MODEL 1
REMARK VINA RESULT:      -6.7      0.000      0.000
REMARK  9 active torsions:
REMARK  status: ('A' for Active; 'I' for Inactive)
REMARK    1  A    between atoms: C_6  and  C_7 
REMARK    2  A    between atoms: C_7  and  C_8 
REMARK    3  A    between atoms: C_8  and  N_10 
REMARK    4  A    between atoms: C_8  and  C_21 
REMARK    5  A    between atoms: C_21  and  O_9 
REMARK       I    between atoms: N_10  and  C_11 
REMARK    6  A    between atoms: C_11  and  C_13 
REMARK    7  A    between atoms: C_13  and  N_15 
REMARK       I    between atoms: N_15  and  C_16 
REMARK    8  A    between atoms: C_16  and  C_18 
REMARK    9  A    between atoms: C_18  and  N_20 
ROOT
HETATM    1  N   UNK N   1      27.121  24.820  -4.968  0.00  0.00    -0.352 N 
HETATM    2  C   UNK N   1      27.494  24.477  -3.702  0.00  0.00     0.240 C 
HETATM    3  O   UNK N   1      26.686  24.001  -2.919  0.00  0.00    -0.271 OA
HETATM    4  H   UNK N   1      27.782  25.276  -5.539  0.00  0.00     0.163 HD
ENDROOT
BRANCH   1   5
HETATM    5  C   UNK N   1      25.807  24.550  -5.524  0.00  0.00     0.117 C 
BRANCH   5   6
HETATM    6  C   UNK N   1      25.241  25.922  -5.933  0.00  0.00     0.066 C 
BRANCH   6   7
HETATM    7  C   UNK N   1      25.946  27.140  -5.469  0.00  0.00    -0.056 A 
HETATM    8  C   UNK N   1      25.556  27.720  -4.259  0.00  0.00     0.007 A 
HETATM    9  C   UNK N   1      26.156  28.901  -3.823  0.00  0.00     0.001 A 
HETATM   10  C   UNK N   1      27.133  29.516  -4.610  0.00  0.00     0.000 A 
HETATM   11  C   UNK N   1      27.513  28.946  -5.831  0.00  0.00     0.001 A 
HETATM   12  C   UNK N   1      26.916  27.757  -6.263  0.00  0.00     0.007 A 
ENDBRANCH   6   7
ENDBRANCH   5   6
BRANCH   5  13
HETATM   13  C   UNK N   1      25.881  23.507  -6.673  0.00  0.00     0.137 C 
HETATM   14  C   UNK N   1      25.645  24.144  -8.033  0.00  0.00     0.041 C 
BRANCH  13  15
HETATM   15  O   UNK N   1      24.901  22.530  -6.487  0.00  0.00    -0.394 OA
HETATM   16  H   UNK N   1      24.325  22.305  -5.740  0.00  0.00     0.210 HD
ENDBRANCH  13  15
ENDBRANCH   5  13
ENDBRANCH   1   5
BRANCH   2  17
HETATM   17  C   UNK N   1      28.919  24.646  -3.279  0.00  0.00     0.172 C 
HETATM   18  C   UNK N   1      29.539  25.809  -4.035  0.00  0.00     0.042 C 
BRANCH  17  19
HETATM   19  N   UNK N   1      29.649  23.434  -3.583  0.00  0.00    -0.346 N 
HETATM   20  C   UNK N   1      30.304  22.698  -2.647  0.00  0.00     0.240 C 
HETATM   21  O   UNK N   1      30.329  23.050  -1.478  0.00  0.00    -0.271 OA
HETATM   22  H   UNK N   1      29.670  23.126  -4.517  0.00  0.00     0.163 HD
BRANCH  20  23
HETATM   23  C   UNK N   1      30.987  21.427  -3.053  0.00  0.00     0.163 C 
HETATM   24  C   UNK N   1      32.493  21.606  -3.013  0.00  0.00     0.041 C 
BRANCH  23  25
HETATM   25  N   UNK N   1      30.579  21.064  -4.399  0.00  0.00    -0.419 N 
HETATM   26  H   UNK N   1      29.943  20.281  -4.546  0.00  0.00     0.150 HD
HETATM   27  H   UNK N   1      30.929  21.593  -5.197  0.00  0.00     0.150 HD
ENDBRANCH  23  25
ENDBRANCH  20  23
ENDBRANCH  17  19
ENDBRANCH   2  17
TORSDOF 9
ENDMDL
MODEL 2
REMARK VINA RESULT:      -6.2     16.066     20.584
REMARK  9 active torsions:
REMARK  status: ('A' for Active; 'I' for Inactive)
REMARK    1  A    between atoms: C_6  and  C_7 
REMARK    2  A    between atoms: C_7  and  C_8 
REMARK    3  A    between atoms: C_8  and  N_10 
REMARK    4  A    between atoms: C_8  and  C_21 
REMARK    5  A    between atoms: C_21  and  O_9 
REMARK       I    between atoms: N_10  and  C_11 
REMARK    6  A    between atoms: C_11  and  C_13 
REMARK    7  A    between atoms: C_13  and  N_15 
REMARK       I    between atoms: N_15  and  C_16 
REMARK    8  A    between atoms: C_16  and  C_18 
REMARK    9  A    between atoms: C_18  and  N_20 
ROOT
HETATM    1  N   UNK N   1      35.031  15.192   9.864  0.00  0.00    -0.352 N 
HETATM    2  C   UNK N   1      34.784  16.531   9.804  0.00  0.00     0.240 C 
HETATM    3  O   UNK N   1      35.237  17.290  10.648  0.00  0.00    -0.271 OA
HETATM    4  H   UNK N   1      34.579  14.606   9.212  0.00  0.00     0.163 HD
ENDROOT
BRANCH   1   5
HETATM    5  C   UNK N   1      35.922  14.577  10.832  0.00  0.00     0.117 C 
BRANCH   5   6
HETATM    6  C   UNK N   1      35.016  13.752  11.764  0.00  0.00     0.066 C 
BRANCH   6   7
HETATM    7  C   UNK N   1      35.469  13.512  13.154  0.00  0.00    -0.056 A 
HETATM    8  C   UNK N   1      34.908  12.449  13.868  0.00  0.00     0.007 A 
HETATM    9  C   UNK N   1      35.267  12.233  15.198  0.00  0.00     0.001 A 
HETATM   10  C   UNK N   1      36.171  13.096  15.823  0.00  0.00     0.000 A 
HETATM   11  C   UNK N   1      36.720  14.171  15.116  0.00  0.00     0.001 A 
HETATM   12  C   UNK N   1      36.367  14.382  13.778  0.00  0.00     0.007 A 
ENDBRANCH   6   7
ENDBRANCH   5   6
BRANCH   5  13
HETATM   13  C   UNK N   1      37.048  13.767  10.132  0.00  0.00     0.137 C 
HETATM   14  C   UNK N   1      36.671  12.303   9.964  0.00  0.00     0.041 C 
BRANCH  13  15
HETATM   15  O   UNK N   1      38.213  13.820  10.899  0.00  0.00    -0.394 OA
HETATM   16  H   UNK N   1      38.489  13.374  11.715  0.00  0.00     0.210 HD
ENDBRANCH  13  15
ENDBRANCH   5  13
ENDBRANCH   1   5
BRANCH   2  17
HETATM   17  C   UNK N   1      33.984  17.086   8.667  0.00  0.00     0.172 C 
HETATM   18  C   UNK N   1      34.608  18.387   8.193  0.00  0.00     0.042 C 
BRANCH  17  19
HETATM   19  N   UNK N   1      32.633  17.339   9.120  0.00  0.00    -0.346 N 
HETATM   20  C   UNK N   1      31.527  17.021   8.398  0.00  0.00     0.240 C 
HETATM   21  O   UNK N   1      31.626  16.515   7.291  0.00  0.00    -0.271 OA
HETATM   22  H   UNK N   1      32.509  17.764   9.998  0.00  0.00     0.163 HD
BRANCH  20  23
HETATM   23  C   UNK N   1      30.169  17.275   8.977  0.00  0.00     0.163 C 
HETATM   24  C   UNK N   1      29.943  18.765   9.149  0.00  0.00     0.041 C 
BRANCH  23  25
HETATM   25  N   UNK N   1      30.059  16.617  10.267  0.00  0.00    -0.419 N 
HETATM   26  H   UNK N   1      29.154  16.554  10.733  0.00  0.00     0.150 HD
HETATM   27  H   UNK N   1      30.888  16.219  10.708  0.00  0.00     0.150 HD
ENDBRANCH  23  25
ENDBRANCH  20  23
ENDBRANCH  17  19
ENDBRANCH   2  17
TORSDOF 9
ENDMDL
MODEL 3
REMARK VINA RESULT:      -6.1     13.699     14.890
REMARK  9 active torsions:
REMARK  status: ('A' for Active; 'I' for Inactive)
REMARK    1  A    between atoms: C_6  and  C_7 
REMARK    2  A    between atoms: C_7  and  C_8 
REMARK    3  A    between atoms: C_8  and  N_10 
REMARK    4  A    between atoms: C_8  and  C_21 
REMARK    5  A    between atoms: C_21  and  O_9 
REMARK       I    between atoms: N_10  and  C_11 
REMARK    6  A    between atoms: C_11  and  C_13 
REMARK    7  A    between atoms: C_13  and  N_15 
REMARK       I    between atoms: N_15  and  C_16 
REMARK    8  A    between atoms: C_16  and  C_18 
REMARK    9  A    between atoms: C_18  and  N_20 
ROOT
HETATM    1  N   UNK N   1      20.645  17.108   5.773  0.00  0.00    -0.352 N 
HETATM    2  C   UNK N   1      20.571  17.694   7.001  0.00  0.00     0.240 C 
HETATM    3  O   UNK N   1      20.985  18.830   7.178  0.00  0.00    -0.271 OA
HETATM    4  H   UNK N   1      20.377  16.163   5.692  0.00  0.00     0.163 HD
ENDROOT
BRANCH   1   5
HETATM    5  C   UNK N   1      21.096  17.795   4.575  0.00  0.00     0.117 C 
BRANCH   5   6
HETATM    6  C   UNK N   1      22.533  17.301   4.330  0.00  0.00     0.066 C 
BRANCH   6   7
HETATM    7  C   UNK N   1      23.571  18.302   3.989  0.00  0.00    -0.056 A 
HETATM    8  C   UNK N   1      23.167  19.550   3.504  0.00  0.00     0.007 A 
HETATM    9  C   UNK N   1      24.118  20.491   3.115  0.00  0.00     0.001 A 
HETATM   10  C   UNK N   1      25.478  20.178   3.189  0.00  0.00     0.000 A 
HETATM   11  C   UNK N   1      25.885  18.923   3.657  0.00  0.00     0.001 A 
HETATM   12  C   UNK N   1      24.929  17.982   4.055  0.00  0.00     0.007 A 
ENDBRANCH   6   7
ENDBRANCH   5   6
BRANCH   5  13
HETATM   13  C   UNK N   1      20.117  17.568   3.390  0.00  0.00     0.137 C 
HETATM   14  C   UNK N   1      19.671  18.880   2.764  0.00  0.00     0.041 C 
BRANCH  13  15
HETATM   15  O   UNK N   1      18.975  16.905   3.842  0.00  0.00    -0.394 OA
HETATM   16  H   UNK N   1      18.334  16.319   3.409  0.00  0.00     0.210 HD
ENDBRANCH  13  15
ENDBRANCH   5  13
ENDBRANCH   1   5
BRANCH   2  17
HETATM   17  C   UNK N   1      19.937  16.954   8.137  0.00  0.00     0.172 C 
HETATM   18  C   UNK N   1      19.399  17.947   9.153  0.00  0.00     0.042 C 
BRANCH  17  19
HETATM   19  N   UNK N   1      20.933  16.115   8.768  0.00  0.00    -0.346 N 
HETATM   20  C   UNK N   1      20.792  14.773   8.928  0.00  0.00     0.240 C 
HETATM   21  O   UNK N   1      19.777  14.202   8.558  0.00  0.00    -0.271 OA
HETATM   22  H   UNK N   1      21.756  16.540   9.099  0.00  0.00     0.163 HD
BRANCH  20  23
HETATM   23  C   UNK N   1      21.903  13.982   9.547  0.00  0.00     0.163 C 
HETATM   24  C   UNK N   1      22.724  13.299   8.470  0.00  0.00     0.041 C 
BRANCH  23  25
HETATM   25  N   UNK N   1      21.347  12.979  10.439  0.00  0.00    -0.419 N 
HETATM   26  H   UNK N   1      21.357  11.995  10.171  0.00  0.00     0.150 HD
HETATM   27  H   UNK N   1      20.945  13.260  11.333  0.00  0.00     0.150 HD
ENDBRANCH  23  25
ENDBRANCH  20  23
ENDBRANCH  17  19
ENDBRANCH   2  17
TORSDOF 9
ENDMDL
MODEL 4
REMARK VINA RESULT:      -6.0     14.282     17.622
REMARK  9 active torsions:
REMARK  status: ('A' for Active; 'I' for Inactive)
REMARK    1  A    between atoms: C_6  and  C_7 
REMARK    2  A    between atoms: C_7  and  C_8 
REMARK    3  A    between atoms: C_8  and  N_10 
REMARK    4  A    between atoms: C_8  and  C_21 
REMARK    5  A    between atoms: C_21  and  O_9 
REMARK       I    between atoms: N_10  and  C_11 
REMARK    6  A    between atoms: C_11  and  C_13 
REMARK    7  A    between atoms: C_13  and  N_15 
REMARK       I    between atoms: N_15  and  C_16 
REMARK    8  A    between atoms: C_16  and  C_18 
REMARK    9  A    between atoms: C_18  and  N_20 
ROOT
HETATM    1  N   UNK N   1      33.482  16.245   8.779  0.00  0.00    -0.352 N 
HETATM    2  C   UNK N   1      34.198  15.238   9.356  0.00  0.00     0.240 C 
HETATM    3  O   UNK N   1      34.424  14.203   8.747  0.00  0.00    -0.271 OA
HETATM    4  H   UNK N   1      33.252  17.027   9.333  0.00  0.00     0.163 HD
ENDROOT
BRANCH   1   5
HETATM    5  C   UNK N   1      33.039  16.232   7.396  0.00  0.00     0.117 C 
BRANCH   5   6
HETATM    6  C   UNK N   1      31.567  15.783   7.437  0.00  0.00     0.066 C 
BRANCH   6   7
HETATM    7  C   UNK N   1      30.526  16.810   7.678  0.00  0.00    -0.056 A 
HETATM    8  C   UNK N   1      29.673  17.160   6.626  0.00  0.00     0.007 A 
HETATM    9  C   UNK N   1      28.724  18.166   6.800  0.00  0.00     0.001 A 
HETATM   10  C   UNK N   1      28.641  18.840   8.022  0.00  0.00     0.000 A 
HETATM   11  C   UNK N   1      29.505  18.503   9.070  0.00  0.00     0.001 A 
HETATM   12  C   UNK N   1      30.452  17.487   8.897  0.00  0.00     0.007 A 
ENDBRANCH   6   7
ENDBRANCH   5   6
BRANCH   5  13
HETATM   13  C   UNK N   1      33.283  17.605   6.710  0.00  0.00     0.137 C 
HETATM   14  C   UNK N   1      33.233  17.497   5.194  0.00  0.00     0.041 C 
BRANCH  13  15
HETATM   15  O   UNK N   1      34.546  18.087   7.059  0.00  0.00    -0.394 OA
HETATM   16  H   UNK N   1      35.442  17.879   6.751  0.00  0.00     0.210 HD
ENDBRANCH  13  15
ENDBRANCH   5  13
ENDBRANCH   1   5
BRANCH   2  17
HETATM   17  C   UNK N   1      34.750  15.419  10.735  0.00  0.00     0.172 C 
HETATM   18  C   UNK N   1      35.410  16.783  10.843  0.00  0.00     0.042 C 
BRANCH  17  19
HETATM   19  N   UNK N   1      35.735  14.389  10.988  0.00  0.00    -0.346 N 
HETATM   20  C   UNK N   1      35.738  13.611  12.102  0.00  0.00     0.240 C 
HETATM   21  O   UNK N   1      34.900  13.768  12.978  0.00  0.00    -0.271 OA
HETATM   22  H   UNK N   1      36.439  14.244  10.317  0.00  0.00     0.163 HD
BRANCH  20  23
HETATM   23  C   UNK N   1      36.769  12.534  12.248  0.00  0.00     0.163 C 
HETATM   24  C   UNK N   1      36.981  12.207  13.714  0.00  0.00     0.041 C 
BRANCH  23  25
HETATM   25  N   UNK N   1      38.023  12.981  11.666  0.00  0.00    -0.419 N 
HETATM   26  H   UNK N   1      38.046  13.814  11.079  0.00  0.00     0.150 HD
HETATM   27  H   UNK N   1      38.881  12.459  11.844  0.00  0.00     0.150 HD
ENDBRANCH  23  25
ENDBRANCH  20  23
ENDBRANCH  17  19
ENDBRANCH   2  17
TORSDOF 9
ENDMDL
MODEL 5
REMARK VINA RESULT:      -5.8     14.508     18.243
REMARK  9 active torsions:
REMARK  status: ('A' for Active; 'I' for Inactive)
REMARK    1  A    between atoms: C_6  and  C_7 
REMARK    2  A    between atoms: C_7  and  C_8 
REMARK    3  A    between atoms: C_8  and  N_10 
REMARK    4  A    between atoms: C_8  and  C_21 
REMARK    5  A    between atoms: C_21  and  O_9 
REMARK       I    between atoms: N_10  and  C_11 
REMARK    6  A    between atoms: C_11  and  C_13 
REMARK    7  A    between atoms: C_13  and  N_15 
REMARK       I    between atoms: N_15  and  C_16 
REMARK    8  A    between atoms: C_16  and  C_18 
REMARK    9  A    between atoms: C_18  and  N_20 
ROOT
HETATM    1  N   UNK N   1      34.292  16.167   9.065  0.00  0.00    -0.352 N 
HETATM    2  C   UNK N   1      35.111  16.200  10.155  0.00  0.00     0.240 C 
HETATM    3  O   UNK N   1      35.259  17.231  10.794  0.00  0.00    -0.271 OA
HETATM    4  H   UNK N   1      34.265  15.340   8.530  0.00  0.00     0.163 HD
ENDROOT
BRANCH   1   5
HETATM    5  C   UNK N   1      33.458  17.279   8.647  0.00  0.00     0.117 C 
BRANCH   5   6
HETATM    6  C   UNK N   1      34.125  17.845   7.380  0.00  0.00     0.066 C 
BRANCH   6   7
HETATM    7  C   UNK N   1      33.904  17.139   6.095  0.00  0.00    -0.056 A 
HETATM    8  C   UNK N   1      33.064  17.725   5.144  0.00  0.00     0.007 A 
HETATM    9  C   UNK N   1      32.786  17.060   3.951  0.00  0.00     0.001 A 
HETATM   10  C   UNK N   1      33.331  15.795   3.717  0.00  0.00     0.000 A 
HETATM   11  C   UNK N   1      34.158  15.198   4.676  0.00  0.00     0.001 A 
HETATM   12  C   UNK N   1      34.444  15.870   5.869  0.00  0.00     0.007 A 
ENDBRANCH   6   7
ENDBRANCH   5   6
BRANCH   5  13
HETATM   13  C   UNK N   1      31.978  16.840   8.464  0.00  0.00     0.137 C 
HETATM   14  C   UNK N   1      31.022  18.018   8.563  0.00  0.00     0.041 C 
BRANCH  13  15
HETATM   15  O   UNK N   1      31.632  15.927   9.462  0.00  0.00    -0.394 OA
HETATM   16  H   UNK N   1      32.108  15.573  10.229  0.00  0.00     0.210 HD
ENDBRANCH  13  15
ENDBRANCH   5  13
ENDBRANCH   1   5
BRANCH   2  17
HETATM   17  C   UNK N   1      35.802  14.950  10.600  0.00  0.00     0.172 C 
HETATM   18  C   UNK N   1      35.418  13.803   9.681  0.00  0.00     0.042 C 
BRANCH  17  19
HETATM   19  N   UNK N   1      35.391  14.639  11.952  0.00  0.00    -0.346 N 
HETATM   20  C   UNK N   1      36.100  13.833  12.785  0.00  0.00     0.240 C 
HETATM   21  O   UNK N   1      37.133  13.298  12.411  0.00  0.00    -0.271 OA
HETATM   22  H   UNK N   1      34.554  15.033  12.286  0.00  0.00     0.163 HD
BRANCH  20  23
HETATM   23  C   UNK N   1      35.619  13.614  14.187  0.00  0.00     0.163 C 
HETATM   24  C   UNK N   1      36.795  13.569  15.144  0.00  0.00     0.041 C 
BRANCH  23  25
HETATM   25  N   UNK N   1      34.889  12.360  14.260  0.00  0.00    -0.419 N 
HETATM   26  H   UNK N   1      34.935  11.697  13.487  0.00  0.00     0.150 HD
HETATM   27  H   UNK N   1      34.331  12.143  15.085  0.00  0.00     0.150 HD
ENDBRANCH  23  25
ENDBRANCH  20  23
ENDBRANCH  17  19
ENDBRANCH   2  17
TORSDOF 9
ENDMDL
MODEL 6
REMARK VINA RESULT:      -5.8     19.196     23.457
REMARK  9 active torsions:
REMARK  status: ('A' for Active; 'I' for Inactive)
REMARK    1  A    between atoms: C_6  and  C_7 
REMARK    2  A    between atoms: C_7  and  C_8 
REMARK    3  A    between atoms: C_8  and  N_10 
REMARK    4  A    between atoms: C_8  and  C_21 
REMARK    5  A    between atoms: C_21  and  O_9 
REMARK       I    between atoms: N_10  and  C_11 
REMARK    6  A    between atoms: C_11  and  C_13 
REMARK    7  A    between atoms: C_13  and  N_15 
REMARK       I    between atoms: N_15  and  C_16 
REMARK    8  A    between atoms: C_16  and  C_18 
REMARK    9  A    between atoms: C_18  and  N_20 
ROOT
HETATM    1  N   UNK N   1      34.887  12.093  12.926  0.00  0.00    -0.352 N 
HETATM    2  C   UNK N   1      36.180  12.520  12.851  0.00  0.00     0.240 C 
HETATM    3  O   UNK N   1      37.106  11.751  13.060  0.00  0.00    -0.271 OA
HETATM    4  H   UNK N   1      34.171  12.763  12.831  0.00  0.00     0.163 HD
ENDROOT
BRANCH   1   5
HETATM    5  C   UNK N   1      34.504  10.708  13.137  0.00  0.00     0.117 C 
BRANCH   5   6
HETATM    6  C   UNK N   1      33.673  10.701  14.433  0.00  0.00     0.066 C 
BRANCH   6   7
HETATM    7  C   UNK N   1      34.362  10.995  15.711  0.00  0.00    -0.056 A 
HETATM    8  C   UNK N   1      34.705   9.930  16.549  0.00  0.00     0.007 A 
HETATM    9  C   UNK N   1      35.298  10.177  17.787  0.00  0.00     0.001 A 
HETATM   10  C   UNK N   1      35.528  11.492  18.198  0.00  0.00     0.000 A 
HETATM   11  C   UNK N   1      35.169  12.561  17.369  0.00  0.00     0.001 A 
HETATM   12  C   UNK N   1      34.582  12.312  16.123  0.00  0.00     0.007 A 
ENDBRANCH   6   7
ENDBRANCH   5   6
BRANCH   5  13
HETATM   13  C   UNK N   1      33.778  10.126  11.893  0.00  0.00     0.137 C 
HETATM   14  C   UNK N   1      34.570   8.997  11.252  0.00  0.00     0.041 C 
BRANCH  13  15
HETATM   15  O   UNK N   1      33.614  11.126  10.933  0.00  0.00    -0.394 OA
HETATM   16  H   UNK N   1      33.922  12.044  10.874  0.00  0.00     0.210 HD
ENDBRANCH  13  15
ENDBRANCH   5  13
ENDBRANCH   1   5
BRANCH   2  17
HETATM   17  C   UNK N   1      36.470  13.936  12.465  0.00  0.00     0.172 C 
HETATM   18  C   UNK N   1      36.434  14.818  13.701  0.00  0.00     0.042 C 
BRANCH  17  19
HETATM   19  N   UNK N   1      35.464  14.385  11.526  0.00  0.00    -0.346 N 
HETATM   20  C   UNK N   1      35.633  15.447  10.695  0.00  0.00     0.240 C 
HETATM   21  O   UNK N   1      36.662  16.105  10.721  0.00  0.00    -0.271 OA
HETATM   22  H   UNK N   1      34.612  13.895  11.488  0.00  0.00     0.163 HD
BRANCH  20  23
HETATM   23  C   UNK N   1      34.552  15.801   9.720  0.00  0.00     0.163 C 
HETATM   24  C   UNK N   1      34.957  15.394   8.316  0.00  0.00     0.041 C 
BRANCH  23  25
HETATM   25  N   UNK N   1      34.315  17.234   9.758  0.00  0.00    -0.419 N 
HETATM   26  H   UNK N   1      34.710  17.836   9.036  0.00  0.00     0.150 HD
HETATM   27  H   UNK N   1      33.753  17.638  10.508  0.00  0.00     0.150 HD
ENDBRANCH  23  25
ENDBRANCH  20  23
ENDBRANCH  17  19
ENDBRANCH   2  17
TORSDOF 9
ENDMDL
MODEL 7
REMARK VINA RESULT:      -5.6     15.167     19.854
REMARK  9 active torsions:
REMARK  status: ('A' for Active; 'I' for Inactive)
REMARK    1  A    between atoms: C_6  and  C_7 
REMARK    2  A    between atoms: C_7  and  C_8 
REMARK    3  A    between atoms: C_8  and  N_10 
REMARK    4  A    between atoms: C_8  and  C_21 
REMARK    5  A    between atoms: C_21  and  O_9 
REMARK       I    between atoms: N_10  and  C_11 
REMARK    6  A    between atoms: C_11  and  C_13 
REMARK    7  A    between atoms: C_13  and  N_15 
REMARK       I    between atoms: N_15  and  C_16 
REMARK    8  A    between atoms: C_16  and  C_18 
REMARK    9  A    between atoms: C_18  and  N_20 
ROOT
HETATM    1  N   UNK N   1      35.166  15.413   9.307  0.00  0.00    -0.352 N 
HETATM    2  C   UNK N   1      34.809  16.728   9.361  0.00  0.00     0.240 C 
HETATM    3  O   UNK N   1      35.138  17.427  10.307  0.00  0.00    -0.271 OA
HETATM    4  H   UNK N   1      34.811  14.865   8.568  0.00  0.00     0.163 HD
ENDROOT
BRANCH   1   5
HETATM    5  C   UNK N   1      36.040  14.772  10.274  0.00  0.00     0.117 C 
BRANCH   5   6
HETATM    6  C   UNK N   1      35.139  13.815  11.076  0.00  0.00     0.066 C 
BRANCH   6   7
HETATM    7  C   UNK N   1      35.462  13.575  12.502  0.00  0.00    -0.056 A 
HETATM    8  C   UNK N   1      34.866  12.491  13.152  0.00  0.00     0.007 A 
HETATM    9  C   UNK N   1      35.099  12.273  14.509  0.00  0.00     0.001 A 
HETATM   10  C   UNK N   1      35.913  13.155  15.224  0.00  0.00     0.000 A 
HETATM   11  C   UNK N   1      36.497  14.252  14.581  0.00  0.00     0.001 A 
HETATM   12  C   UNK N   1      36.269  14.464  13.216  0.00  0.00     0.007 A 
ENDBRANCH   6   7
ENDBRANCH   5   6
BRANCH   5  13
HETATM   13  C   UNK N   1      37.254  14.096   9.580  0.00  0.00     0.137 C 
HETATM   14  C   UNK N   1      37.056  12.597   9.427  0.00  0.00     0.041 C 
BRANCH  13  15
HETATM   15  O   UNK N   1      38.405  14.296  10.345  0.00  0.00    -0.394 OA
HETATM   16  H   UNK N   1      39.063  13.690  10.720  0.00  0.00     0.210 HD
ENDBRANCH  13  15
ENDBRANCH   5  13
ENDBRANCH   1   5
BRANCH   2  17
HETATM   17  C   UNK N   1      34.042  17.333   8.228  0.00  0.00     0.172 C 
HETATM   18  C   UNK N   1      32.635  17.670   8.689  0.00  0.00     0.042 C 
BRANCH  17  19
HETATM   19  N   UNK N   1      33.975  16.380   7.141  0.00  0.00    -0.346 N 
HETATM   20  C   UNK N   1      33.975  16.736   5.829  0.00  0.00     0.240 C 
HETATM   21  O   UNK N   1      34.006  17.912   5.500  0.00  0.00    -0.271 OA
HETATM   22  H   UNK N   1      33.929  15.423   7.364  0.00  0.00     0.163 HD
BRANCH  20  23
HETATM   23  C   UNK N   1      33.956  15.672   4.775  0.00  0.00     0.163 C 
HETATM   24  C   UNK N   1      33.125  16.122   3.589  0.00  0.00     0.041 C 
BRANCH  23  25
HETATM   25  N   UNK N   1      33.391  14.452   5.326  0.00  0.00    -0.419 N 
HETATM   26  H   UNK N   1      33.335  14.326   6.336  0.00  0.00     0.150 HD
HETATM   27  H   UNK N   1      33.051  13.721   4.702  0.00  0.00     0.150 HD
ENDBRANCH  23  25
ENDBRANCH  20  23
ENDBRANCH  17  19
ENDBRANCH   2  17
TORSDOF 9
ENDMDL
MODEL 8
REMARK VINA RESULT:      -5.5     19.106     23.477
REMARK  9 active torsions:
REMARK  status: ('A' for Active; 'I' for Inactive)
REMARK    1  A    between atoms: C_6  and  C_7 
REMARK    2  A    between atoms: C_7  and  C_8 
REMARK    3  A    between atoms: C_8  and  N_10 
REMARK    4  A    between atoms: C_8  and  C_21 
REMARK    5  A    between atoms: C_21  and  O_9 
REMARK       I    between atoms: N_10  and  C_11 
REMARK    6  A    between atoms: C_11  and  C_13 
REMARK    7  A    between atoms: C_13  and  N_15 
REMARK       I    between atoms: N_15  and  C_16 
REMARK    8  A    between atoms: C_16  and  C_18 
REMARK    9  A    between atoms: C_18  and  N_20 
ROOT
HETATM    1  N   UNK N   1      35.881  13.041  12.737  0.00  0.00    -0.352 N 
HETATM    2  C   UNK N   1      36.049  14.378  12.532  0.00  0.00     0.240 C 
HETATM    3  O   UNK N   1      36.438  15.105  13.434  0.00  0.00    -0.271 OA
HETATM    4  H   UNK N   1      35.488  12.505  12.008  0.00  0.00     0.163 HD
ENDROOT
BRANCH   1   5
HETATM    5  C   UNK N   1      36.248  12.358  13.965  0.00  0.00     0.117 C 
BRANCH   5   6
HETATM    6  C   UNK N   1      34.942  12.219  14.768  0.00  0.00     0.066 C 
BRANCH   6   7
HETATM    7  C   UNK N   1      35.020  12.255  16.247  0.00  0.00    -0.056 A 
HETATM    8  C   UNK N   1      35.038  13.498  16.887  0.00  0.00     0.007 A 
HETATM    9  C   UNK N   1      35.173  13.570  18.273  0.00  0.00     0.001 A 
HETATM   10  C   UNK N   1      35.312  12.397  19.020  0.00  0.00     0.000 A 
HETATM   11  C   UNK N   1      35.313  11.152  18.379  0.00  0.00     0.001 A 
HETATM   12  C   UNK N   1      35.168  11.081  16.989  0.00  0.00     0.007 A 
ENDBRANCH   6   7
ENDBRANCH   5   6
BRANCH   5  13
HETATM   13  C   UNK N   1      36.980  11.019  13.672  0.00  0.00     0.137 C 
HETATM   14  C   UNK N   1      38.088  10.748  14.677  0.00  0.00     0.041 C 
BRANCH  13  15
HETATM   15  O   UNK N   1      37.560  11.068  12.403  0.00  0.00    -0.394 OA
HETATM   16  H   UNK N   1      37.799  11.799  11.812  0.00  0.00     0.210 HD
ENDBRANCH  13  15
ENDBRANCH   5  13
ENDBRANCH   1   5
BRANCH   2  17
HETATM   17  C   UNK N   1      35.796  14.957  11.176  0.00  0.00     0.172 C 
HETATM   18  C   UNK N   1      35.389  16.414  11.313  0.00  0.00     0.042 C 
BRANCH  17  19
HETATM   19  N   UNK N   1      34.727  14.218  10.539  0.00  0.00    -0.346 N 
HETATM   20  C   UNK N   1      34.690  13.947   9.208  0.00  0.00     0.240 C 
HETATM   21  O   UNK N   1      35.571  14.348   8.463  0.00  0.00    -0.271 OA
HETATM   22  H   UNK N   1      33.987  13.895  11.101  0.00  0.00     0.163 HD
BRANCH  20  23
HETATM   23  C   UNK N   1      33.566  13.128   8.652  0.00  0.00     0.163 C 
HETATM   24  C   UNK N   1      33.486  13.300   7.147  0.00  0.00     0.041 C 
BRANCH  23  25
HETATM   25  N   UNK N   1      32.313  13.552   9.253  0.00  0.00    -0.419 N 
HETATM   26  H   UNK N   1      32.319  14.144  10.083  0.00  0.00     0.150 HD
HETATM   27  H   UNK N   1      31.426  13.257   8.844  0.00  0.00     0.150 HD
ENDBRANCH  23  25
ENDBRANCH  20  23
ENDBRANCH  17  19
ENDBRANCH   2  17
TORSDOF 9
ENDMDL
MODEL 9
REMARK VINA RESULT:      -5.4     11.608     14.814
REMARK  9 active torsions:
REMARK  status: ('A' for Active; 'I' for Inactive)
REMARK    1  A    between atoms: C_6  and  C_7 
REMARK    2  A    between atoms: C_7  and  C_8 
REMARK    3  A    between atoms: C_8  and  N_10 
REMARK    4  A    between atoms: C_8  and  C_21 
REMARK    5  A    between atoms: C_21  and  O_9 
REMARK       I    between atoms: N_10  and  C_11 
REMARK    6  A    between atoms: C_11  and  C_13 
REMARK    7  A    between atoms: C_13  and  N_15 
REMARK       I    between atoms: N_15  and  C_16 
REMARK    8  A    between atoms: C_16  and  C_18 
REMARK    9  A    between atoms: C_18  and  N_20 
ROOT
HETATM    1  N   UNK N   1      29.876  16.884   7.499  0.00  0.00    -0.352 N 
HETATM    2  C   UNK N   1      28.878  16.441   6.682  0.00  0.00     0.240 C 
HETATM    3  O   UNK N   1      29.106  15.625   5.802  0.00  0.00    -0.271 OA
HETATM    4  H   UNK N   1      29.666  17.602   8.141  0.00  0.00     0.163 HD
ENDROOT
BRANCH   1   5
HETATM    5  C   UNK N   1      31.229  16.358   7.479  0.00  0.00     0.117 C 
BRANCH   5   6
HETATM    6  C   UNK N   1      32.029  17.306   6.567  0.00  0.00     0.066 C 
BRANCH   6   7
HETATM    7  C   UNK N   1      32.443  16.813   5.232  0.00  0.00    -0.056 A 
HETATM    8  C   UNK N   1      33.347  15.749   5.161  0.00  0.00     0.007 A 
HETATM    9  C   UNK N   1      33.805  15.302   3.923  0.00  0.00     0.001 A 
HETATM   10  C   UNK N   1      33.376  15.933   2.753  0.00  0.00     0.000 A 
HETATM   11  C   UNK N   1      32.485  17.011   2.822  0.00  0.00     0.001 A 
HETATM   12  C   UNK N   1      32.019  17.453   4.065  0.00  0.00     0.007 A 
ENDBRANCH   6   7
ENDBRANCH   5   6
BRANCH   5  13
HETATM   13  C   UNK N   1      31.798  16.204   8.917  0.00  0.00     0.137 C 
HETATM   14  C   UNK N   1      32.387  14.821   9.147  0.00  0.00     0.041 C 
BRANCH  13  15
HETATM   15  O   UNK N   1      30.776  16.390   9.850  0.00  0.00    -0.394 OA
HETATM   16  H   UNK N   1      30.424  15.837  10.565  0.00  0.00     0.210 HD
ENDBRANCH  13  15
ENDBRANCH   5  13
ENDBRANCH   1   5
BRANCH   2  17
HETATM   17  C   UNK N   1      27.478  16.927   6.893  0.00  0.00     0.172 C 
HETATM   18  C   UNK N   1      26.496  15.849   6.468  0.00  0.00     0.042 C 
BRANCH  17  19
HETATM   19  N   UNK N   1      27.265  18.113   6.092  0.00  0.00    -0.346 N 
HETATM   20  C   UNK N   1      27.623  19.362   6.489  0.00  0.00     0.240 C 
HETATM   21  O   UNK N   1      28.132  19.549   7.583  0.00  0.00    -0.271 OA
HETATM   22  H   UNK N   1      26.838  18.008   5.212  0.00  0.00     0.163 HD
BRANCH  20  23
HETATM   23  C   UNK N   1      27.407  20.521   5.565  0.00  0.00     0.163 C 
HETATM   24  C   UNK N   1      26.889  21.719   6.338  0.00  0.00     0.041 C 
BRANCH  23  25
HETATM   25  N   UNK N   1      26.444  20.154   4.541  0.00  0.00    -0.419 N 
HETATM   26  H   UNK N   1      26.699  20.212   3.555  0.00  0.00     0.150 HD
HETATM   27  H   UNK N   1      25.512  19.837   4.808  0.00  0.00     0.150 HD
ENDBRANCH  23  25
ENDBRANCH  20  23
ENDBRANCH  17  19
ENDBRANCH   2  17
TORSDOF 9
ENDMDL
