REMARK  9 active torsions:
REMARK  status: ('A' for Active; 'I' for Inactive)
REMARK    1  A    between atoms: C_6  and  C_7 
REMARK    2  A    between atoms: C_7  and  C_8 
REMARK    3  A    between atoms: C_8  and  N_10 
REMARK    4  A    between atoms: C_8  and  C_21 
REMARK    5  A    between atoms: C_21  and  O_9 
REMARK       I    between atoms: N_10  and  C_11 
REMARK    6  A    between atoms: C_11  and  C_13 
REMARK    7  A    between atoms: C_13  and  N_15 
REMARK       I    between atoms: N_15  and  C_16 
REMARK    8  A    between atoms: C_16  and  C_18 
REMARK    9  A    between atoms: C_18  and  N_20 
ROOT
HETATM    1  N   UNK N   1      -0.348  -0.684   0.744  0.00  0.00    -0.352 N 
HETATM    2  C   UNK N   1      -0.978  -0.402  -0.432  0.00  0.00     0.240 C 
HETATM    3  O   UNK N   1      -0.392   0.182  -1.331  0.00  0.00    -0.271 OA
HETATM    4  H   UNK N   1      -0.880  -1.082   1.472  0.00  0.00     0.163 HD
ENDROOT
BRANCH   1   5
HETATM    5  C   UNK N   1       1.062  -0.433   0.986  0.00  0.00     0.117 C 
BRANCH   5   6
HETATM    6  C   UNK N   1       1.818  -1.282  -0.052  0.00  0.00     0.066 C 
BRANCH   6   7
HETATM    7  C   UNK N   1       3.289  -1.131  -0.146  0.00  0.00    -0.056 A 
HETATM    8  C   UNK N   1       3.818  -0.341  -1.171  0.00  0.00     0.007 A 
HETATM    9  C   UNK N   1       5.199  -0.228  -1.326  0.00  0.00     0.001 A 
HETATM   10  C   UNK N   1       6.054  -0.924  -0.468  0.00  0.00     0.000 A 
HETATM   11  C   UNK N   1       5.527  -1.730   0.548  0.00  0.00     0.001 A 
HETATM   12  C   UNK N   1       4.141  -1.836   0.708  0.00  0.00     0.007 A 
ENDBRANCH   6   7
ENDBRANCH   5   6
BRANCH   5  13
HETATM   13  C   UNK N   1       1.382   1.087   0.943  0.00  0.00     0.137 C 
HETATM   14  C   UNK N   1       2.800   1.380   1.407  0.00  0.00     0.041 C 
BRANCH  13  15
HETATM   15  O   UNK N   1       0.509   1.776   1.787  0.00  0.00    -0.394 OA
HETATM   16  H   UNK N   1       0.621   2.541   2.373  0.00  0.00     0.210 HD
ENDBRANCH  13  15
ENDBRANCH   5  13
ENDBRANCH   1   5
BRANCH   2  17
HETATM   17  C   UNK N   1      -2.390  -0.851  -0.641  0.00  0.00     0.172 C 
HETATM   18  C   UNK N   1      -2.457  -1.772  -1.847  0.00  0.00     0.042 C 
BRANCH  17  19
HETATM   19  N   UNK N   1      -3.224   0.308  -0.876  0.00  0.00    -0.346 N 
HETATM   20  C   UNK N   1      -4.280   0.645  -0.090  0.00  0.00     0.240 C 
HETATM   21  O   UNK N   1      -4.598  -0.050   0.863  0.00  0.00    -0.271 OA
HETATM   22  H   UNK N   1      -3.014   0.883  -1.646  0.00  0.00     0.163 HD
BRANCH  20  23
HETATM   23  C   UNK N   1      -5.051   1.895  -0.385  0.00  0.00     0.163 C 
HETATM   24  C   UNK N   1      -5.667   1.817  -1.769  0.00  0.00     0.041 C 
BRANCH  23  25
HETATM   25  N   UNK N   1      -4.162   3.042  -0.316  0.00  0.00    -0.419 N 
HETATM   26  H   UNK N   1      -3.153   2.904  -0.267  0.00  0.00     0.150 HD
HETATM   27  H   UNK N   1      -4.548   3.986  -0.316  0.00  0.00     0.150 HD
ENDBRANCH  23  25
ENDBRANCH  20  23
ENDBRANCH  17  19
ENDBRANCH   2  17
TORSDOF 9
