MODEL 1
REMARK VINA RESULT:      -7.8      0.000      0.000
REMARK  4 active torsions:
REMARK  status: ('A' for Active; 'I' for Inactive)
REMARK    1  A    between atoms: N_2  and  S_4 
REMARK    2  A    between atoms: S_4  and  C_7 
REMARK    3  A    between atoms: C_16  and  C_17 
REMARK    4  A    between atoms: C_17  and  C_18 
ROOT
HETATM    1  C   UNK N   1      32.645  16.612   6.462  0.00  0.00     0.075 A 
HETATM    2  C   UNK N   1      31.251  16.648   6.360  0.00  0.00     0.039 A 
HETATM    3  C   UNK N   1      30.531  17.221   7.393  0.00  0.00     0.008 A 
HETATM    4  C   UNK N   1      33.289  17.162   7.600  0.00  0.00     0.027 A 
HETATM    5  C   UNK N   1      32.528  17.749   8.638  0.00  0.00     0.032 A 
HETATM    6  C   UNK N   1      31.139  17.746   8.508  0.00  0.00     0.046 A 
HETATM    7  N   UNK N   1      30.182  18.190   9.446  0.00  0.00    -0.322 N 
HETATM    8  C   UNK N   1      28.960  17.928   8.919  0.00  0.00     0.257 A 
HETATM    9  O   UNK N   1      27.918  18.193   9.490  0.00  0.00    -0.267 OA
HETATM   10  C   UNK N   1      29.101  17.311   7.582  0.00  0.00     0.047 A 
HETATM   11  H   UNK N   1      30.366  18.611  10.317  0.00  0.00     0.169 HD
ENDROOT
BRANCH  10  12
HETATM   12  C   UNK N   1      28.210  16.887   6.676  0.00  0.00     0.047 C 
BRANCH  12  13
HETATM   13  C   UNK N   1      27.360  17.715   5.818  0.00  0.00     0.033 A 
HETATM   14  C   UNK N   1      27.836  18.786   5.077  0.00  0.00     0.038 A 
HETATM   15  C   UNK N   1      26.745  19.234   4.372  0.00  0.00    -0.033 A 
HETATM   16  C   UNK N   1      26.679  20.384   3.418  0.00  0.00     0.040 C 
HETATM   17  C   UNK N   1      25.683  18.430   4.696  0.00  0.00     0.016 A 
HETATM   18  C   UNK N   1      25.355  20.370   2.637  0.00  0.00     0.005 C 
HETATM   19  C   UNK N   1      24.155  19.994   3.518  0.00  0.00     0.006 C 
HETATM   20  C   UNK N   1      24.308  18.595   4.134  0.00  0.00     0.057 C 
HETATM   21  N   UNK N   1      26.051  17.490   5.579  0.00  0.00    -0.359 N 
HETATM   22  H   UNK N   1      25.486  16.785   5.970  0.00  0.00     0.166 HD
ENDBRANCH  12  13
ENDBRANCH  10  12
BRANCH   1  23
HETATM   23  S   UNK N   1      33.552  15.657   5.247  0.00  0.00     0.243 S 
HETATM   24  O   UNK N   1      35.071  15.742   5.454  0.00  0.00    -0.206 OA
HETATM   25  O   UNK N   1      33.338  14.162   5.540  0.00  0.00    -0.206 OA
BRANCH  23  26
HETATM   26  N   UNK N   1      33.293  15.781   3.499  0.00  0.00    -0.215 NA
HETATM   27  C   UNK N   1      32.707  17.077   3.213  0.00  0.00     0.129 C 
HETATM   28  C   UNK N   1      32.336  14.762   3.104  0.00  0.00     0.129 C 
ENDBRANCH  23  26
ENDBRANCH   1  23
TORSDOF 4
ENDMDL
MODEL 2
REMARK VINA RESULT:      -7.6      6.026      9.513
REMARK  4 active torsions:
REMARK  status: ('A' for Active; 'I' for Inactive)
REMARK    1  A    between atoms: N_2  and  S_4 
REMARK    2  A    between atoms: S_4  and  C_7 
REMARK    3  A    between atoms: C_16  and  C_17 
REMARK    4  A    between atoms: C_17  and  C_18 
ROOT
HETATM    1  C   UNK N   1      21.124  15.315   1.545  0.00  0.00     0.075 A 
HETATM    2  C   UNK N   1      21.542  16.117   2.611  0.00  0.00     0.039 A 
HETATM    3  C   UNK N   1      20.975  17.371   2.752  0.00  0.00     0.008 A 
HETATM    4  C   UNK N   1      20.135  15.789   0.644  0.00  0.00     0.027 A 
HETATM    5  C   UNK N   1      19.566  17.072   0.818  0.00  0.00     0.032 A 
HETATM    6  C   UNK N   1      20.025  17.849   1.881  0.00  0.00     0.046 A 
HETATM    7  N   UNK N   1      19.673  19.180   2.195  0.00  0.00    -0.322 N 
HETATM    8  C   UNK N   1      20.419  19.545   3.267  0.00  0.00     0.257 A 
HETATM    9  O   UNK N   1      20.350  20.645   3.784  0.00  0.00    -0.267 OA
HETATM   10  C   UNK N   1      21.280  18.422   3.697  0.00  0.00     0.047 A 
HETATM   11  H   UNK N   1      19.010  19.737   1.726  0.00  0.00     0.169 HD
ENDROOT
BRANCH  10  12
HETATM   12  C   UNK N   1      22.170  18.284   4.689  0.00  0.00     0.047 C 
BRANCH  12  13
HETATM   13  C   UNK N   1      23.616  18.500   4.616  0.00  0.00     0.033 A 
HETATM   14  C   UNK N   1      24.201  19.511   3.869  0.00  0.00     0.038 A 
HETATM   15  C   UNK N   1      25.545  19.405   4.130  0.00  0.00    -0.033 A 
HETATM   16  C   UNK N   1      26.655  20.240   3.576  0.00  0.00     0.040 C 
HETATM   17  C   UNK N   1      25.716  18.369   5.012  0.00  0.00     0.016 A 
HETATM   18  C   UNK N   1      27.966  19.979   4.336  0.00  0.00     0.005 C 
HETATM   19  C   UNK N   1      28.172  18.493   4.663  0.00  0.00     0.006 C 
HETATM   20  C   UNK N   1      27.044  17.935   5.543  0.00  0.00     0.057 C 
HETATM   21  N   UNK N   1      24.537  17.810   5.321  0.00  0.00    -0.359 N 
HETATM   22  H   UNK N   1      24.377  17.057   5.935  0.00  0.00     0.166 HD
ENDBRANCH  12  13
ENDBRANCH  10  12
BRANCH   1  23
HETATM   23  S   UNK N   1      22.032  13.804   1.224  0.00  0.00     0.243 S 
HETATM   24  O   UNK N   1      22.233  12.965   2.494  0.00  0.00    -0.206 OA
HETATM   25  O   UNK N   1      21.127  12.849   0.427  0.00  0.00    -0.206 OA
BRANCH  23  26
HETATM   26  N   UNK N   1      23.572  13.743   0.353  0.00  0.00    -0.215 NA
HETATM   27  C   UNK N   1      23.995  12.358   0.264  0.00  0.00     0.129 C 
HETATM   28  C   UNK N   1      24.566  14.463   1.129  0.00  0.00     0.129 C 
ENDBRANCH  23  26
ENDBRANCH   1  23
TORSDOF 4
ENDMDL
MODEL 3
REMARK VINA RESULT:      -7.6      8.393     10.352
REMARK  4 active torsions:
REMARK  status: ('A' for Active; 'I' for Inactive)
REMARK    1  A    between atoms: N_2  and  S_4 
REMARK    2  A    between atoms: S_4  and  C_7 
REMARK    3  A    between atoms: C_16  and  C_17 
REMARK    4  A    between atoms: C_17  and  C_18 
ROOT
HETATM    1  C   UNK N   1      21.071  15.439   1.494  0.00  0.00     0.075 A 
HETATM    2  C   UNK N   1      21.448  16.164   2.629  0.00  0.00     0.039 A 
HETATM    3  C   UNK N   1      20.932  17.436   2.798  0.00  0.00     0.008 A 
HETATM    4  C   UNK N   1      20.174  16.008   0.553  0.00  0.00     0.027 A 
HETATM    5  C   UNK N   1      19.656  17.309   0.755  0.00  0.00     0.032 A 
HETATM    6  C   UNK N   1      20.073  18.006   1.889  0.00  0.00     0.046 A 
HETATM    7  N   UNK N   1      19.763  19.336   2.249  0.00  0.00    -0.322 N 
HETATM    8  C   UNK N   1      20.445  19.607   3.389  0.00  0.00     0.257 A 
HETATM    9  O   UNK N   1      20.391  20.681   3.959  0.00  0.00    -0.267 OA
HETATM   10  C   UNK N   1      21.218  18.420   3.817  0.00  0.00     0.047 A 
HETATM   11  H   UNK N   1      19.163  19.949   1.765  0.00  0.00     0.169 HD
ENDROOT
BRANCH  10  12
HETATM   12  C   UNK N   1      22.025  18.187   4.861  0.00  0.00     0.047 C 
BRANCH  12  13
HETATM   13  C   UNK N   1      21.792  17.259   5.969  0.00  0.00     0.033 A 
HETATM   14  C   UNK N   1      20.782  17.426   6.904  0.00  0.00     0.038 A 
HETATM   15  C   UNK N   1      20.867  16.317   7.711  0.00  0.00    -0.033 A 
HETATM   16  C   UNK N   1      20.024  15.981   8.899  0.00  0.00     0.040 C 
HETATM   17  C   UNK N   1      21.890  15.537   7.237  0.00  0.00     0.016 A 
HETATM   18  C   UNK N   1      20.259  14.528   9.342  0.00  0.00     0.005 C 
HETATM   19  C   UNK N   1      21.739  14.122   9.272  0.00  0.00     0.006 C 
HETATM   20  C   UNK N   1      22.301  14.237   7.848  0.00  0.00     0.057 C 
HETATM   21  N   UNK N   1      22.461  16.104   6.164  0.00  0.00    -0.359 N 
HETATM   22  H   UNK N   1      23.209  15.751   5.630  0.00  0.00     0.166 HD
ENDBRANCH  12  13
ENDBRANCH  10  12
BRANCH   1  23
HETATM   23  S   UNK N   1      21.926  13.901   1.157  0.00  0.00     0.243 S 
HETATM   24  O   UNK N   1      22.183  13.086   2.432  0.00  0.00    -0.206 OA
HETATM   25  O   UNK N   1      20.956  12.949   0.436  0.00  0.00    -0.206 OA
BRANCH  23  26
HETATM   26  N   UNK N   1      23.411  13.786   0.200  0.00  0.00    -0.215 NA
HETATM   27  C   UNK N   1      23.719  12.383  -0.004  0.00  0.00     0.129 C 
HETATM   28  C   UNK N   1      24.496  14.374   0.966  0.00  0.00     0.129 C 
ENDBRANCH  23  26
ENDBRANCH   1  23
TORSDOF 4
ENDMDL
MODEL 4
REMARK VINA RESULT:      -7.4      6.223     10.529
REMARK  4 active torsions:
REMARK  status: ('A' for Active; 'I' for Inactive)
REMARK    1  A    between atoms: N_2  and  S_4 
REMARK    2  A    between atoms: S_4  and  C_7 
REMARK    3  A    between atoms: C_16  and  C_17 
REMARK    4  A    between atoms: C_17  and  C_18 
ROOT
HETATM    1  C   UNK N   1      34.829  15.974   7.460  0.00  0.00     0.075 A 
HETATM    2  C   UNK N   1      34.975  15.545   8.782  0.00  0.00     0.039 A 
HETATM    3  C   UNK N   1      35.553  14.309   9.012  0.00  0.00     0.008 A 
HETATM    4  C   UNK N   1      35.277  15.153   6.392  0.00  0.00     0.027 A 
HETATM    5  C   UNK N   1      35.871  13.897   6.658  0.00  0.00     0.032 A 
HETATM    6  C   UNK N   1      35.979  13.496   7.989  0.00  0.00     0.046 A 
HETATM    7  N   UNK N   1      36.450  12.261   8.485  0.00  0.00    -0.322 N 
HETATM    8  C   UNK N   1      36.305  12.294   9.833  0.00  0.00     0.257 A 
HETATM    9  O   UNK N   1      36.622  11.371  10.560  0.00  0.00    -0.267 OA
HETATM   10  C   UNK N   1      35.741  13.595  10.255  0.00  0.00     0.047 A 
HETATM   11  H   UNK N   1      36.816  11.517   7.954  0.00  0.00     0.169 HD
ENDROOT
BRANCH  10  12
HETATM   12  C   UNK N   1      35.428  14.107  11.454  0.00  0.00     0.047 C 
BRANCH  12  13
HETATM   13  C   UNK N   1      35.309  13.383  12.720  0.00  0.00     0.033 A 
HETATM   14  C   UNK N   1      35.889  13.813  13.903  0.00  0.00     0.038 A 
HETATM   15  C   UNK N   1      35.480  12.899  14.845  0.00  0.00    -0.033 A 
HETATM   16  C   UNK N   1      35.821  12.867  16.300  0.00  0.00     0.040 C 
HETATM   17  C   UNK N   1      34.679  11.983  14.213  0.00  0.00     0.016 A 
HETATM   18  C   UNK N   1      34.937  11.855  17.046  0.00  0.00     0.005 C 
HETATM   19  C   UNK N   1      34.720  10.561  16.248  0.00  0.00     0.006 C 
HETATM   20  C   UNK N   1      34.034  10.824  14.900  0.00  0.00     0.057 C 
HETATM   21  N   UNK N   1      34.563  12.274  12.909  0.00  0.00    -0.359 N 
HETATM   22  H   UNK N   1      34.042  11.783  12.232  0.00  0.00     0.166 HD
ENDBRANCH  12  13
ENDBRANCH  10  12
BRANCH   1  23
HETATM   23  S   UNK N   1      33.865  17.454   7.158  0.00  0.00     0.243 S 
HETATM   24  O   UNK N   1      34.392  18.663   7.944  0.00  0.00    -0.206 OA
HETATM   25  O   UNK N   1      34.146  17.938   5.726  0.00  0.00    -0.206 OA
BRANCH  23  26
HETATM   26  N   UNK N   1      32.100  17.525   7.284  0.00  0.00    -0.215 NA
HETATM   27  C   UNK N   1      31.744  17.616   8.687  0.00  0.00     0.129 C 
HETATM   28  C   UNK N   1      31.553  16.284   6.764  0.00  0.00     0.129 C 
ENDBRANCH  23  26
ENDBRANCH   1  23
TORSDOF 4
ENDMDL
MODEL 5
REMARK VINA RESULT:      -7.1      6.722      9.943
REMARK  4 active torsions:
REMARK  status: ('A' for Active; 'I' for Inactive)
REMARK    1  A    between atoms: N_2  and  S_4 
REMARK    2  A    between atoms: S_4  and  C_7 
REMARK    3  A    between atoms: C_16  and  C_17 
REMARK    4  A    between atoms: C_17  and  C_18 
ROOT
HETATM    1  C   UNK N   1      20.305  14.538   5.928  0.00  0.00     0.075 A 
HETATM    2  C   UNK N   1      20.700  15.827   5.558  0.00  0.00     0.039 A 
HETATM    3  C   UNK N   1      20.387  16.270   4.285  0.00  0.00     0.008 A 
HETATM    4  C   UNK N   1      19.594  13.721   5.011  0.00  0.00     0.027 A 
HETATM    5  C   UNK N   1      19.281  14.203   3.719  0.00  0.00     0.032 A 
HETATM    6  C   UNK N   1      19.711  15.486   3.380  0.00  0.00     0.046 A 
HETATM    7  N   UNK N   1      19.594  16.137   2.133  0.00  0.00    -0.322 N 
HETATM    8  C   UNK N   1      20.215  17.336   2.252  0.00  0.00     0.257 A 
HETATM    9  O   UNK N   1      20.291  18.141   1.342  0.00  0.00    -0.267 OA
HETATM   10  C   UNK N   1      20.745  17.504   3.623  0.00  0.00     0.047 A 
HETATM   11  H   UNK N   1      19.146  15.787   1.329  0.00  0.00     0.169 HD
ENDROOT
BRANCH  10  12
HETATM   12  C   UNK N   1      21.414  18.497   4.227  0.00  0.00     0.047 C 
BRANCH  12  13
HETATM   13  C   UNK N   1      22.855  18.747   4.180  0.00  0.00     0.033 A 
HETATM   14  C   UNK N   1      23.791  17.944   4.816  0.00  0.00     0.038 A 
HETATM   15  C   UNK N   1      25.006  18.480   4.465  0.00  0.00    -0.033 A 
HETATM   16  C   UNK N   1      26.366  18.018   4.881  0.00  0.00     0.040 C 
HETATM   17  C   UNK N   1      24.766  19.550   3.643  0.00  0.00     0.016 A 
HETATM   18  C   UNK N   1      27.457  18.710   4.048  0.00  0.00     0.005 C 
HETATM   19  C   UNK N   1      27.158  20.196   3.805  0.00  0.00     0.006 C 
HETATM   20  C   UNK N   1      25.838  20.403   3.048  0.00  0.00     0.057 C 
HETATM   21  N   UNK N   1      23.448  19.719   3.458  0.00  0.00    -0.359 N 
HETATM   22  H   UNK N   1      23.007  20.407   2.908  0.00  0.00     0.166 HD
ENDBRANCH  12  13
ENDBRANCH  10  12
BRANCH   1  23
HETATM   23  S   UNK N   1      20.921  13.883   7.478  0.00  0.00     0.243 S 
HETATM   24  O   UNK N   1      19.983  14.190   8.654  0.00  0.00    -0.206 OA
HETATM   25  O   UNK N   1      20.798  12.350   7.446  0.00  0.00    -0.206 OA
BRANCH  23  26
HETATM   26  N   UNK N   1      22.563  14.157   8.082  0.00  0.00    -0.215 NA
HETATM   27  C   UNK N   1      23.504  13.682   7.086  0.00  0.00     0.129 C 
HETATM   28  C   UNK N   1      22.748  13.364   9.285  0.00  0.00     0.129 C 
ENDBRANCH  23  26
ENDBRANCH   1  23
TORSDOF 4
ENDMDL
MODEL 6
REMARK VINA RESULT:      -7.0     13.328     14.358
REMARK  4 active torsions:
REMARK  status: ('A' for Active; 'I' for Inactive)
REMARK    1  A    between atoms: N_2  and  S_4 
REMARK    2  A    between atoms: S_4  and  C_7 
REMARK    3  A    between atoms: C_16  and  C_17 
REMARK    4  A    between atoms: C_17  and  C_18 
ROOT
HETATM    1  C   UNK N   1      44.302  18.041   2.895  0.00  0.00     0.075 A 
HETATM    2  C   UNK N   1      43.399  19.102   2.776  0.00  0.00     0.039 A 
HETATM    3  C   UNK N   1      43.845  20.380   3.062  0.00  0.00     0.008 A 
HETATM    4  C   UNK N   1      45.641  18.289   3.293  0.00  0.00     0.027 A 
HETATM    5  C   UNK N   1      46.072  19.607   3.572  0.00  0.00     0.032 A 
HETATM    6  C   UNK N   1      45.135  20.635   3.462  0.00  0.00     0.046 A 
HETATM    7  N   UNK N   1      45.309  22.001   3.773  0.00  0.00    -0.322 N 
HETATM    8  C   UNK N   1      44.112  22.607   3.579  0.00  0.00     0.257 A 
HETATM    9  O   UNK N   1      43.929  23.796   3.764  0.00  0.00    -0.267 OA
HETATM   10  C   UNK N   1      43.112  21.625   3.105  0.00  0.00     0.047 A 
HETATM   11  H   UNK N   1      46.143  22.432   4.072  0.00  0.00     0.169 HD
ENDROOT
BRANCH  10  12
HETATM   12  C   UNK N   1      41.818  21.730   2.771  0.00  0.00     0.047 C 
BRANCH  12  13
HETATM   13  C   UNK N   1      41.239  22.596   1.743  0.00  0.00     0.033 A 
HETATM   14  C   UNK N   1      40.533  22.116   0.650  0.00  0.00     0.038 A 
HETATM   15  C   UNK N   1      40.111  23.243  -0.014  0.00  0.00    -0.033 A 
HETATM   16  C   UNK N   1      39.314  23.318  -1.277  0.00  0.00     0.040 C 
HETATM   17  C   UNK N   1      40.555  24.331   0.691  0.00  0.00     0.016 A 
HETATM   18  C   UNK N   1      38.817  24.751  -1.525  0.00  0.00     0.005 C 
HETATM   19  C   UNK N   1      39.876  25.809  -1.185  0.00  0.00     0.006 C 
HETATM   20  C   UNK N   1      40.300  25.748   0.290  0.00  0.00     0.057 C 
HETATM   21  N   UNK N   1      41.244  23.945   1.775  0.00  0.00    -0.359 N 
HETATM   22  H   UNK N   1      41.664  24.523   2.452  0.00  0.00     0.166 HD
ENDBRANCH  12  13
ENDBRANCH  10  12
BRANCH   1  23
HETATM   23  S   UNK N   1      43.661  16.373   2.763  0.00  0.00     0.243 S 
HETATM   24  O   UNK N   1      44.253  15.435   3.825  0.00  0.00    -0.206 OA
HETATM   25  O   UNK N   1      42.191  16.376   3.215  0.00  0.00    -0.206 OA
BRANCH  23  26
HETATM   26  N   UNK N   1      43.632  15.443   1.256  0.00  0.00    -0.215 NA
HETATM   27  C   UNK N   1      44.682  15.943   0.388  0.00  0.00     0.129 C 
HETATM   28  C   UNK N   1      42.359  15.677   0.597  0.00  0.00     0.129 C 
ENDBRANCH  23  26
ENDBRANCH   1  23
TORSDOF 4
ENDMDL
MODEL 7
REMARK VINA RESULT:      -6.9     11.220     13.479
REMARK  4 active torsions:
REMARK  status: ('A' for Active; 'I' for Inactive)
REMARK    1  A    between atoms: N_2  and  S_4 
REMARK    2  A    between atoms: S_4  and  C_7 
REMARK    3  A    between atoms: C_16  and  C_17 
REMARK    4  A    between atoms: C_17  and  C_18 
ROOT
HETATM    1  C   UNK N   1      30.010  21.374  -6.888  0.00  0.00     0.075 A 
HETATM    2  C   UNK N   1      29.315  22.100  -5.917  0.00  0.00     0.039 A 
HETATM    3  C   UNK N   1      29.927  22.317  -4.695  0.00  0.00     0.008 A 
HETATM    4  C   UNK N   1      31.315  20.888  -6.614  0.00  0.00     0.027 A 
HETATM    5  C   UNK N   1      31.919  21.132  -5.359  0.00  0.00     0.032 A 
HETATM    6  C   UNK N   1      31.184  21.841  -4.409  0.00  0.00     0.046 A 
HETATM    7  N   UNK N   1      31.542  22.124  -3.073  0.00  0.00    -0.322 N 
HETATM    8  C   UNK N   1      30.492  22.773  -2.511  0.00  0.00     0.257 A 
HETATM    9  O   UNK N   1      30.486  23.155  -1.355  0.00  0.00    -0.267 OA
HETATM   10  C   UNK N   1      29.409  22.949  -3.503  0.00  0.00     0.047 A 
HETATM   11  H   UNK N   1      32.392  21.895  -2.633  0.00  0.00     0.169 HD
ENDROOT
BRANCH  10  12
HETATM   12  C   UNK N   1      28.199  23.523  -3.439  0.00  0.00     0.047 C 
BRANCH  12  13
HETATM   13  C   UNK N   1      27.859  24.906  -3.776  0.00  0.00     0.033 A 
HETATM   14  C   UNK N   1      26.620  25.473  -3.516  0.00  0.00     0.038 A 
HETATM   15  C   UNK N   1      26.744  26.781  -3.916  0.00  0.00    -0.033 A 
HETATM   16  C   UNK N   1      25.704  27.855  -3.877  0.00  0.00     0.040 C 
HETATM   17  C   UNK N   1      28.023  26.954  -4.380  0.00  0.00     0.016 A 
HETATM   18  C   UNK N   1      26.330  29.232  -4.149  0.00  0.00     0.005 C 
HETATM   19  C   UNK N   1      27.390  29.188  -5.259  0.00  0.00     0.006 C 
HETATM   20  C   UNK N   1      28.552  28.247  -4.909  0.00  0.00     0.057 C 
HETATM   21  N   UNK N   1      28.717  25.810  -4.292  0.00  0.00    -0.359 N 
HETATM   22  H   UNK N   1      29.656  25.661  -4.550  0.00  0.00     0.166 HD
ENDBRANCH  12  13
ENDBRANCH  10  12
BRANCH   1  23
HETATM   23  S   UNK N   1      29.124  20.888  -8.368  0.00  0.00     0.243 S 
HETATM   24  O   UNK N   1      29.426  19.439  -8.778  0.00  0.00    -0.206 OA
HETATM   25  O   UNK N   1      27.632  20.751  -8.022  0.00  0.00    -0.206 OA
BRANCH  23  26
HETATM   26  N   UNK N   1      29.121  21.826  -9.870  0.00  0.00    -0.215 NA
HETATM   27  C   UNK N   1      28.420  23.074  -9.630  0.00  0.00     0.129 C 
HETATM   28  C   UNK N   1      28.378  21.083 -10.873  0.00  0.00     0.129 C 
ENDBRANCH  23  26
ENDBRANCH   1  23
TORSDOF 4
ENDMDL
MODEL 8
REMARK VINA RESULT:      -6.9     11.626     14.650
REMARK  4 active torsions:
REMARK  status: ('A' for Active; 'I' for Inactive)
REMARK    1  A    between atoms: N_2  and  S_4 
REMARK    2  A    between atoms: S_4  and  C_7 
REMARK    3  A    between atoms: C_16  and  C_17 
REMARK    4  A    between atoms: C_17  and  C_18 
ROOT
HETATM    1  C   UNK N   1      27.238  28.412  -3.738  0.00  0.00     0.075 A 
HETATM    2  C   UNK N   1      27.462  27.051  -3.512  0.00  0.00     0.039 A 
HETATM    3  C   UNK N   1      26.766  26.134  -4.280  0.00  0.00     0.008 A 
HETATM    4  C   UNK N   1      26.323  28.825  -4.740  0.00  0.00     0.027 A 
HETATM    5  C   UNK N   1      25.631  27.866  -5.515  0.00  0.00     0.032 A 
HETATM    6  C   UNK N   1      25.866  26.518  -5.245  0.00  0.00     0.046 A 
HETATM    7  N   UNK N   1      25.232  25.396  -5.822  0.00  0.00    -0.322 N 
HETATM    8  C   UNK N   1      25.731  24.297  -5.203  0.00  0.00     0.257 A 
HETATM    9  O   UNK N   1      25.382  23.163  -5.475  0.00  0.00    -0.267 OA
HETATM   10  C   UNK N   1      26.741  24.691  -4.197  0.00  0.00     0.047 A 
HETATM   11  H   UNK N   1      24.558  25.409  -6.540  0.00  0.00     0.169 HD
ENDROOT
BRANCH  10  12
HETATM   12  C   UNK N   1      27.508  23.988  -3.352  0.00  0.00     0.047 C 
BRANCH  12  13
HETATM   13  C   UNK N   1      28.881  23.533  -3.573  0.00  0.00     0.033 A 
HETATM   14  C   UNK N   1      29.598  22.789  -2.649  0.00  0.00     0.038 A 
HETATM   15  C   UNK N   1      30.793  22.518  -3.270  0.00  0.00    -0.033 A 
HETATM   16  C   UNK N   1      31.957  21.754  -2.725  0.00  0.00     0.040 C 
HETATM   17  C   UNK N   1      30.749  23.083  -4.518  0.00  0.00     0.016 A 
HETATM   18  C   UNK N   1      32.972  21.440  -3.836  0.00  0.00     0.005 C 
HETATM   19  C   UNK N   1      33.171  22.617  -4.802  0.00  0.00     0.006 C 
HETATM   20  C   UNK N   1      31.866  23.010  -5.508  0.00  0.00     0.057 C 
HETATM   21  N   UNK N   1      29.577  23.705  -4.716  0.00  0.00    -0.359 N 
HETATM   22  H   UNK N   1      29.285  24.184  -5.526  0.00  0.00     0.166 HD
ENDBRANCH  12  13
ENDBRANCH  10  12
BRANCH   1  23
HETATM   23  S   UNK N   1      27.951  29.584  -2.584  0.00  0.00     0.243 S 
HETATM   24  O   UNK N   1      27.203  30.925  -2.579  0.00  0.00    -0.206 OA
HETATM   25  O   UNK N   1      27.640  29.112  -1.154  0.00  0.00    -0.206 OA
BRANCH  23  26
HETATM   26  N   UNK N   1      29.674  29.988  -2.525  0.00  0.00    -0.215 NA
HETATM   27  C   UNK N   1      30.409  28.971  -3.255  0.00  0.00     0.129 C 
HETATM   28  C   UNK N   1      30.108  29.945  -1.140  0.00  0.00     0.129 C 
ENDBRANCH  23  26
ENDBRANCH   1  23
TORSDOF 4
ENDMDL
MODEL 9
REMARK VINA RESULT:      -6.9      4.631      9.139
REMARK  4 active torsions:
REMARK  status: ('A' for Active; 'I' for Inactive)
REMARK    1  A    between atoms: N_2  and  S_4 
REMARK    2  A    between atoms: S_4  and  C_7 
REMARK    3  A    between atoms: C_16  and  C_17 
REMARK    4  A    between atoms: C_17  and  C_18 
ROOT
HETATM    1  C   UNK N   1      21.858  18.159   3.770  0.00  0.00     0.075 A 
HETATM    2  C   UNK N   1      23.167  17.836   4.139  0.00  0.00     0.039 A 
HETATM    3  C   UNK N   1      24.170  18.751   3.871  0.00  0.00     0.008 A 
HETATM    4  C   UNK N   1      21.581  19.403   3.146  0.00  0.00     0.027 A 
HETATM    5  C   UNK N   1      22.625  20.322   2.891  0.00  0.00     0.032 A 
HETATM    6  C   UNK N   1      23.920  19.955   3.255  0.00  0.00     0.046 A 
HETATM    7  N   UNK N   1      25.119  20.663   3.021  0.00  0.00    -0.322 N 
HETATM    8  C   UNK N   1      26.132  19.890   3.484  0.00  0.00     0.257 A 
HETATM    9  O   UNK N   1      27.302  20.222   3.428  0.00  0.00    -0.267 OA
HETATM   10  C   UNK N   1      25.598  18.638   4.063  0.00  0.00     0.047 A 
HETATM   11  H   UNK N   1      25.203  21.551   2.603  0.00  0.00     0.169 HD
ENDROOT
BRANCH  10  12
HETATM   12  C   UNK N   1      26.182  17.581   4.643  0.00  0.00     0.047 C 
BRANCH  12  13
HETATM   13  C   UNK N   1      27.227  17.600   5.668  0.00  0.00     0.033 A 
HETATM   14  C   UNK N   1      28.466  16.998   5.507  0.00  0.00     0.038 A 
HETATM   15  C   UNK N   1      29.156  17.309   6.653  0.00  0.00    -0.033 A 
HETATM   16  C   UNK N   1      30.547  16.904   7.024  0.00  0.00     0.040 C 
HETATM   17  C   UNK N   1      28.335  18.077   7.437  0.00  0.00     0.016 A 
HETATM   18  C   UNK N   1      31.037  17.690   8.251  0.00  0.00     0.005 C 
HETATM   19  C   UNK N   1      29.944  17.859   9.316  0.00  0.00     0.006 C 
HETATM   20  C   UNK N   1      28.723  18.618   8.775  0.00  0.00     0.057 C 
HETATM   21  N   UNK N   1      27.150  18.267   6.838  0.00  0.00    -0.359 N 
HETATM   22  H   UNK N   1      26.385  18.784   7.181  0.00  0.00     0.166 HD
ENDBRANCH  12  13
ENDBRANCH  10  12
BRANCH   1  23
HETATM   23  S   UNK N   1      20.610  16.879   3.895  0.00  0.00     0.243 S 
HETATM   24  O   UNK N   1      20.384  16.425   5.344  0.00  0.00    -0.206 OA
HETATM   25  O   UNK N   1      19.236  17.505   3.605  0.00  0.00    -0.206 OA
BRANCH  23  26
HETATM   26  N   UNK N   1      20.611  15.402   2.918  0.00  0.00    -0.215 NA
HETATM   27  C   UNK N   1      20.384  15.768   1.533  0.00  0.00     0.129 C 
HETATM   28  C   UNK N   1      19.501  14.568   3.346  0.00  0.00     0.129 C 
ENDBRANCH  23  26
ENDBRANCH   1  23
TORSDOF 4
ENDMDL
