MODEL 1
REMARK VINA RESULT:      -6.8      0.000      0.000
REMARK  9 active torsions:
REMARK  status: ('A' for Active; 'I' for Inactive)
REMARK       I    between atoms: N_3  and  C_2 
REMARK    1  A    between atoms: C_5  and  C_2 
REMARK    2  A    between atoms: N_3  and  O_4 
REMARK    3  A    between atoms: C_5  and  C_6 
REMARK    4  A    between atoms: C_6  and  C_15 
REMARK    5  A    between atoms: C_6  and  C_7 
REMARK       I    between atoms: C_7  and  N_9 
REMARK    6  A    between atoms: C_10  and  N_9 
REMARK    7  A    between atoms: C_12  and  C_10 
REMARK    8  A    between atoms: C_12  and  O_14 
REMARK    9  A    between atoms: C_15  and  C_16 
ROOT
HETATM    1  C   UNK N   1      21.239  17.938   3.231  0.00  0.00     0.091 C 
ENDROOT
BRANCH   1   2
HETATM    2  C   UNK N   1      20.612  19.341   3.348  0.00  0.00     0.119 C 
BRANCH   2   3
HETATM    3  C   UNK N   1      20.946  20.299   2.236  0.00  0.00     0.241 C 
HETATM    4  O   UNK N   1      21.659  21.268   2.453  0.00  0.00    -0.271 OA
HETATM    5  N   UNK N   1      20.505  20.057   0.982  0.00  0.00    -0.237 N 
HETATM    6  H   UNK N   1      19.945  19.267   0.807  0.00  0.00     0.197 HD
BRANCH   5   7
HETATM    7  O   UNK N   1      20.821  20.881  -0.026  0.00  0.00    -0.287 OA
HETATM    8  H   UNK N   1      21.685  21.281  -0.216  0.00  0.00     0.244 HD
ENDBRANCH   5   7
ENDBRANCH   2   3
ENDBRANCH   1   2
BRANCH   1   9
HETATM    9  C   UNK N   1      22.331  17.715   4.304  0.00  0.00     0.053 C 
BRANCH   9  10
HETATM   10  C   UNK N   1      23.777  18.048   4.073  0.00  0.00    -0.057 A 
HETATM   11  C   UNK N   1      24.695  16.992   4.070  0.00  0.00     0.007 A 
HETATM   12  C   UNK N   1      26.060  17.237   3.901  0.00  0.00     0.001 A 
HETATM   13  C   UNK N   1      26.517  18.547   3.743  0.00  0.00     0.000 A 
HETATM   14  C   UNK N   1      25.606  19.608   3.742  0.00  0.00     0.001 A 
HETATM   15  C   UNK N   1      24.238  19.359   3.902  0.00  0.00     0.007 A 
ENDBRANCH   9  10
ENDBRANCH   1   9
BRANCH   1  16
HETATM   16  C   UNK N   1      20.128  16.913   3.493  0.00  0.00     0.223 C 
HETATM   17  N   UNK N   1      19.695  16.022   2.558  0.00  0.00    -0.347 N 
HETATM   18  H   UNK N   1      18.897  15.495   2.791  0.00  0.00     0.163 HD
HETATM   19  O   UNK N   1      19.580  16.897   4.587  0.00  0.00    -0.273 OA
BRANCH  17  20
HETATM   20  C   UNK N   1      20.279  15.765   1.260  0.00  0.00     0.178 C 
HETATM   21  C   UNK N   1      20.031  14.307   0.914  0.00  0.00     0.043 C 
BRANCH  20  22
HETATM   22  C   UNK N   1      19.659  16.679   0.234  0.00  0.00     0.163 C 
HETATM   23  O   UNK N   1      20.330  17.564  -0.274  0.00  0.00    -0.648 OA
BRANCH  22  24
HETATM   24  O   UNK N   1      18.371  16.530  -0.138  0.00  0.00    -0.775 OA
HETATM   25  H   UNK N   1      17.997  17.079  -0.799  0.00  0.00     0.167 HD
ENDBRANCH  22  24
ENDBRANCH  20  22
ENDBRANCH  17  20
ENDBRANCH   1  16
TORSDOF 9
ENDMDL
MODEL 2
REMARK VINA RESULT:      -6.7      5.691      7.273
REMARK  9 active torsions:
REMARK  status: ('A' for Active; 'I' for Inactive)
REMARK       I    between atoms: N_3  and  C_2 
REMARK    1  A    between atoms: C_5  and  C_2 
REMARK    2  A    between atoms: N_3  and  O_4 
REMARK    3  A    between atoms: C_5  and  C_6 
REMARK    4  A    between atoms: C_6  and  C_15 
REMARK    5  A    between atoms: C_6  and  C_7 
REMARK       I    between atoms: C_7  and  N_9 
REMARK    6  A    between atoms: C_10  and  N_9 
REMARK    7  A    between atoms: C_12  and  C_10 
REMARK    8  A    between atoms: C_12  and  O_14 
REMARK    9  A    between atoms: C_15  and  C_16 
ROOT
HETATM    1  C   UNK N   1      20.332  15.866   8.342  0.00  0.00     0.091 C 
ENDROOT
BRANCH   1   2
HETATM    2  C   UNK N   1      19.202  16.914   8.337  0.00  0.00     0.119 C 
BRANCH   2   3
HETATM    3  C   UNK N   1      19.548  18.249   8.939  0.00  0.00     0.241 C 
HETATM    4  O   UNK N   1      20.358  18.980   8.389  0.00  0.00    -0.271 OA
HETATM    5  N   UNK N   1      18.920  18.667  10.060  0.00  0.00    -0.237 N 
HETATM    6  H   UNK N   1      18.255  18.084  10.491  0.00  0.00     0.197 HD
BRANCH   5   7
HETATM    7  O   UNK N   1      19.191  19.867  10.591  0.00  0.00    -0.287 OA
HETATM    8  H   UNK N   1      18.609  20.417  11.138  0.00  0.00     0.244 HD
ENDBRANCH   5   7
ENDBRANCH   2   3
ENDBRANCH   1   2
BRANCH   1   9
HETATM    9  C   UNK N   1      20.006  14.688   9.291  0.00  0.00     0.053 C 
BRANCH   9  10
HETATM   10  C   UNK N   1      21.061  13.765   9.830  0.00  0.00    -0.057 A 
HETATM   11  C   UNK N   1      20.670  12.820  10.786  0.00  0.00     0.007 A 
HETATM   12  C   UNK N   1      21.608  11.958  11.358  0.00  0.00     0.001 A 
HETATM   13  C   UNK N   1      22.951  12.044  10.984  0.00  0.00     0.000 A 
HETATM   14  C   UNK N   1      23.350  12.984  10.028  0.00  0.00     0.001 A 
HETATM   15  C   UNK N   1      22.406  13.839   9.449  0.00  0.00     0.007 A 
ENDBRANCH   9  10
ENDBRANCH   1   9
BRANCH   1  16
HETATM   16  C   UNK N   1      20.435  15.292   6.924  0.00  0.00     0.223 C 
HETATM   17  N   UNK N   1      21.224  15.832   5.952  0.00  0.00    -0.347 N 
HETATM   18  H   UNK N   1      21.121  15.459   5.047  0.00  0.00     0.163 HD
HETATM   19  O   UNK N   1      19.767  14.311   6.629  0.00  0.00    -0.273 OA
BRANCH  17  20
HETATM   20  C   UNK N   1      22.194  16.894   6.105  0.00  0.00     0.178 C 
HETATM   21  C   UNK N   1      23.558  16.341   5.729  0.00  0.00     0.043 C 
BRANCH  20  22
HETATM   22  C   UNK N   1      21.817  18.057   5.223  0.00  0.00     0.163 C 
HETATM   23  O   UNK N   1      22.150  18.059   4.048  0.00  0.00    -0.648 OA
BRANCH  22  24
HETATM   24  O   UNK N   1      21.109  19.095   5.711  0.00  0.00    -0.775 OA
HETATM   25  H   UNK N   1      21.431  19.596   6.435  0.00  0.00     0.167 HD
ENDBRANCH  22  24
ENDBRANCH  20  22
ENDBRANCH  17  20
ENDBRANCH   1  16
TORSDOF 9
ENDMDL
MODEL 3
REMARK VINA RESULT:      -6.3      5.719      7.467
REMARK  9 active torsions:
REMARK  status: ('A' for Active; 'I' for Inactive)
REMARK       I    between atoms: N_3  and  C_2 
REMARK    1  A    between atoms: C_5  and  C_2 
REMARK    2  A    between atoms: N_3  and  O_4 
REMARK    3  A    between atoms: C_5  and  C_6 
REMARK    4  A    between atoms: C_6  and  C_15 
REMARK    5  A    between atoms: C_6  and  C_7 
REMARK       I    between atoms: C_7  and  N_9 
REMARK    6  A    between atoms: C_10  and  N_9 
REMARK    7  A    between atoms: C_12  and  C_10 
REMARK    8  A    between atoms: C_12  and  O_14 
REMARK    9  A    between atoms: C_15  and  C_16 
ROOT
HETATM    1  C   UNK N   1      21.070  14.677   8.244  0.00  0.00     0.091 C 
ENDROOT
BRANCH   1   2
HETATM    2  C   UNK N   1      19.857  15.013   9.132  0.00  0.00     0.119 C 
BRANCH   2   3
HETATM    3  C   UNK N   1      19.234  16.363   8.901  0.00  0.00     0.241 C 
HETATM    4  O   UNK N   1      18.045  16.453   8.631  0.00  0.00    -0.271 OA
HETATM    5  N   UNK N   1      19.974  17.483   9.047  0.00  0.00    -0.237 N 
HETATM    6  H   UNK N   1      20.927  17.409   9.281  0.00  0.00     0.197 HD
BRANCH   5   7
HETATM    7  O   UNK N   1      19.427  18.694   8.878  0.00  0.00    -0.287 OA
HETATM    8  H   UNK N   1      18.603  19.031   9.264  0.00  0.00     0.244 HD
ENDBRANCH   5   7
ENDBRANCH   2   3
ENDBRANCH   1   2
BRANCH   1   9
HETATM    9  C   UNK N   1      21.511  13.204   8.421  0.00  0.00     0.053 C 
BRANCH   9  10
HETATM   10  C   UNK N   1      22.459  12.765   9.499  0.00  0.00    -0.057 A 
HETATM   11  C   UNK N   1      21.912  12.391  10.732  0.00  0.00     0.007 A 
HETATM   12  C   UNK N   1      22.739  12.011  11.791  0.00  0.00     0.001 A 
HETATM   13  C   UNK N   1      24.126  12.012  11.625  0.00  0.00     0.000 A 
HETATM   14  C   UNK N   1      24.681  12.381  10.396  0.00  0.00     0.001 A 
HETATM   15  C   UNK N   1      23.848  12.752   9.333  0.00  0.00     0.007 A 
ENDBRANCH   9  10
ENDBRANCH   1   9
BRANCH   1  16
HETATM   16  C   UNK N   1      20.634  14.848   6.783  0.00  0.00     0.223 C 
HETATM   17  N   UNK N   1      21.147  15.800   5.954  0.00  0.00    -0.347 N 
HETATM   18  H   UNK N   1      20.710  15.900   5.078  0.00  0.00     0.163 HD
HETATM   19  O   UNK N   1      19.767  14.112   6.331  0.00  0.00    -0.273 OA
BRANCH  17  20
HETATM   20  C   UNK N   1      22.263  16.681   6.221  0.00  0.00     0.178 C 
HETATM   21  C   UNK N   1      23.432  16.230   5.361  0.00  0.00     0.043 C 
BRANCH  20  22
HETATM   22  C   UNK N   1      21.875  18.103   5.907  0.00  0.00     0.163 C 
HETATM   23  O   UNK N   1      22.255  18.620   4.868  0.00  0.00    -0.648 OA
BRANCH  22  24
HETATM   24  O   UNK N   1      21.105  18.813   6.756  0.00  0.00    -0.775 OA
HETATM   25  H   UNK N   1      20.231  18.541   6.951  0.00  0.00     0.167 HD
ENDBRANCH  22  24
ENDBRANCH  20  22
ENDBRANCH  17  20
ENDBRANCH   1  16
TORSDOF 9
ENDMDL
MODEL 4
REMARK VINA RESULT:      -6.2     10.777     12.954
REMARK  9 active torsions:
REMARK  status: ('A' for Active; 'I' for Inactive)
REMARK       I    between atoms: N_3  and  C_2 
REMARK    1  A    between atoms: C_5  and  C_2 
REMARK    2  A    between atoms: N_3  and  O_4 
REMARK    3  A    between atoms: C_5  and  C_6 
REMARK    4  A    between atoms: C_6  and  C_15 
REMARK    5  A    between atoms: C_6  and  C_7 
REMARK       I    between atoms: C_7  and  N_9 
REMARK    6  A    between atoms: C_10  and  N_9 
REMARK    7  A    between atoms: C_12  and  C_10 
REMARK    8  A    between atoms: C_12  and  O_14 
REMARK    9  A    between atoms: C_15  and  C_16 
ROOT
HETATM    1  C   UNK N   1      27.261  24.649  -5.062  0.00  0.00     0.091 C 
ENDROOT
BRANCH   1   2
HETATM    2  C   UNK N   1      26.902  23.419  -5.918  0.00  0.00     0.119 C 
BRANCH   2   3
HETATM    3  C   UNK N   1      26.310  23.715  -7.269  0.00  0.00     0.241 C 
HETATM    4  O   UNK N   1      26.961  24.325  -8.105  0.00  0.00    -0.271 OA
HETATM    5  N   UNK N   1      25.078  23.258  -7.582  0.00  0.00    -0.237 N 
HETATM    6  H   UNK N   1      24.562  22.753  -6.913  0.00  0.00     0.197 HD
BRANCH   5   7
HETATM    7  O   UNK N   1      24.549  23.484  -8.792  0.00  0.00    -0.287 OA
HETATM    8  H   UNK N   1      23.752  23.084  -9.174  0.00  0.00     0.244 HD
ENDBRANCH   5   7
ENDBRANCH   2   3
ENDBRANCH   1   2
BRANCH   1   9
HETATM    9  C   UNK N   1      26.131  25.706  -5.089  0.00  0.00     0.053 C 
BRANCH   9  10
HETATM   10  C   UNK N   1      26.392  27.176  -4.923  0.00  0.00    -0.057 A 
HETATM   11  C   UNK N   1      27.217  27.800  -5.866  0.00  0.00     0.007 A 
HETATM   12  C   UNK N   1      27.532  29.156  -5.748  0.00  0.00     0.001 A 
HETATM   13  C   UNK N   1      27.030  29.895  -4.675  0.00  0.00     0.000 A 
HETATM   14  C   UNK N   1      26.203  29.280  -3.729  0.00  0.00     0.001 A 
HETATM   15  C   UNK N   1      25.881  27.924  -3.856  0.00  0.00     0.007 A 
ENDBRANCH   9  10
ENDBRANCH   1   9
BRANCH   1  16
HETATM   16  C   UNK N   1      27.404  24.175  -3.610  0.00  0.00     0.223 C 
HETATM   17  N   UNK N   1      28.597  23.829  -3.049  0.00  0.00    -0.347 N 
HETATM   18  H   UNK N   1      28.558  23.424  -2.152  0.00  0.00     0.163 HD
HETATM   19  O   UNK N   1      26.402  24.078  -2.914  0.00  0.00    -0.273 OA
BRANCH  17  20
HETATM   20  C   UNK N   1      29.913  23.992  -3.625  0.00  0.00     0.178 C 
HETATM   21  C   UNK N   1      30.272  25.467  -3.566  0.00  0.00     0.043 C 
BRANCH  20  22
HETATM   22  C   UNK N   1      30.909  23.160  -2.860  0.00  0.00     0.163 C 
HETATM   23  O   UNK N   1      30.736  22.948  -1.670  0.00  0.00    -0.648 OA
BRANCH  22  24
HETATM   24  O   UNK N   1      31.991  22.638  -3.473  0.00  0.00    -0.775 OA
HETATM   25  H   UNK N   1      32.234  21.744  -3.336  0.00  0.00     0.167 HD
ENDBRANCH  22  24
ENDBRANCH  20  22
ENDBRANCH  17  20
ENDBRANCH   1  16
TORSDOF 9
ENDMDL
MODEL 5
REMARK VINA RESULT:      -6.1      1.708      2.522
REMARK  9 active torsions:
REMARK  status: ('A' for Active; 'I' for Inactive)
REMARK       I    between atoms: N_3  and  C_2 
REMARK    1  A    between atoms: C_5  and  C_2 
REMARK    2  A    between atoms: N_3  and  O_4 
REMARK    3  A    between atoms: C_5  and  C_6 
REMARK    4  A    between atoms: C_6  and  C_15 
REMARK    5  A    between atoms: C_6  and  C_7 
REMARK       I    between atoms: C_7  and  N_9 
REMARK    6  A    between atoms: C_10  and  N_9 
REMARK    7  A    between atoms: C_12  and  C_10 
REMARK    8  A    between atoms: C_12  and  O_14 
REMARK    9  A    between atoms: C_15  and  C_16 
ROOT
HETATM    1  C   UNK N   1      21.204  17.962   3.293  0.00  0.00     0.091 C 
ENDROOT
BRANCH   1   2
HETATM    2  C   UNK N   1      20.751  19.423   3.486  0.00  0.00     0.119 C 
BRANCH   2   3
HETATM    3  C   UNK N   1      21.028  20.349   2.333  0.00  0.00     0.241 C 
HETATM    4  O   UNK N   1      21.757  21.318   2.484  0.00  0.00    -0.271 OA
HETATM    5  N   UNK N   1      20.517  20.079   1.112  0.00  0.00    -0.237 N 
HETATM    6  H   UNK N   1      19.944  19.288   0.988  0.00  0.00     0.197 HD
BRANCH   5   7
HETATM    7  O   UNK N   1      20.782  20.874   0.066  0.00  0.00    -0.287 OA
HETATM    8  H   UNK N   1      21.651  21.108  -0.295  0.00  0.00     0.244 HD
ENDBRANCH   5   7
ENDBRANCH   2   3
ENDBRANCH   1   2
BRANCH   1   9
HETATM    9  C   UNK N   1      22.236  17.543   4.366  0.00  0.00     0.053 C 
BRANCH   9  10
HETATM   10  C   UNK N   1      22.714  16.128   4.523  0.00  0.00    -0.057 A 
HETATM   11  C   UNK N   1      23.344  15.529   3.425  0.00  0.00     0.007 A 
HETATM   12  C   UNK N   1      23.776  14.202   3.490  0.00  0.00     0.001 A 
HETATM   13  C   UNK N   1      23.570  13.460   4.656  0.00  0.00     0.000 A 
HETATM   14  C   UNK N   1      22.943  14.052   5.758  0.00  0.00     0.001 A 
HETATM   15  C   UNK N   1      22.521  15.384   5.693  0.00  0.00     0.007 A 
ENDBRANCH   9  10
ENDBRANCH   1   9
BRANCH   1  16
HETATM   16  C   UNK N   1      19.970  17.069   3.476  0.00  0.00     0.223 C 
HETATM   17  N   UNK N   1      19.552  16.168   2.543  0.00  0.00    -0.347 N 
HETATM   18  H   UNK N   1      18.683  15.736   2.709  0.00  0.00     0.163 HD
HETATM   19  O   UNK N   1      19.306  17.174   4.498  0.00  0.00    -0.273 OA
BRANCH  17  20
HETATM   20  C   UNK N   1      20.245  15.776   1.336  0.00  0.00     0.178 C 
HETATM   21  C   UNK N   1      20.057  14.279   1.152  0.00  0.00     0.043 C 
BRANCH  20  22
HETATM   22  C   UNK N   1      19.692  16.541   0.161  0.00  0.00     0.163 C 
HETATM   23  O   UNK N   1      18.679  16.148  -0.396  0.00  0.00    -0.648 OA
BRANCH  22  24
HETATM   24  O   UNK N   1      20.298  17.661  -0.282  0.00  0.00    -0.775 OA
HETATM   25  H   UNK N   1      20.791  18.202   0.303  0.00  0.00     0.167 HD
ENDBRANCH  22  24
ENDBRANCH  20  22
ENDBRANCH  17  20
ENDBRANCH   1  16
TORSDOF 9
ENDMDL
MODEL 6
REMARK VINA RESULT:      -6.1     11.019     13.636
REMARK  9 active torsions:
REMARK  status: ('A' for Active; 'I' for Inactive)
REMARK       I    between atoms: N_3  and  C_2 
REMARK    1  A    between atoms: C_5  and  C_2 
REMARK    2  A    between atoms: N_3  and  O_4 
REMARK    3  A    between atoms: C_5  and  C_6 
REMARK    4  A    between atoms: C_6  and  C_15 
REMARK    5  A    between atoms: C_6  and  C_7 
REMARK       I    between atoms: C_7  and  N_9 
REMARK    6  A    between atoms: C_10  and  N_9 
REMARK    7  A    between atoms: C_12  and  C_10 
REMARK    8  A    between atoms: C_12  and  O_14 
REMARK    9  A    between atoms: C_15  and  C_16 
ROOT
HETATM    1  C   UNK N   1      33.386  17.234   7.952  0.00  0.00     0.091 C 
ENDROOT
BRANCH   1   2
HETATM    2  C   UNK N   1      32.250  18.147   8.452  0.00  0.00     0.119 C 
BRANCH   2   3
HETATM    3  C   UNK N   1      30.915  17.479   8.645  0.00  0.00     0.241 C 
HETATM    4  O   UNK N   1      30.477  16.723   7.790  0.00  0.00    -0.271 OA
HETATM    5  N   UNK N   1      30.224  17.669   9.790  0.00  0.00    -0.237 N 
HETATM    6  H   UNK N   1      30.587  18.265  10.484  0.00  0.00     0.197 HD
BRANCH   5   7
HETATM    7  O   UNK N   1      29.050  17.056   9.992  0.00  0.00    -0.287 OA
HETATM    8  H   UNK N   1      28.521  17.043  10.806  0.00  0.00     0.244 HD
ENDBRANCH   5   7
ENDBRANCH   2   3
ENDBRANCH   1   2
BRANCH   1   9
HETATM    9  C   UNK N   1      33.784  17.572   6.496  0.00  0.00     0.053 C 
BRANCH   9  10
HETATM   10  C   UNK N   1      33.131  16.929   5.306  0.00  0.00    -0.057 A 
HETATM   11  C   UNK N   1      32.891  15.551   5.362  0.00  0.00     0.007 A 
HETATM   12  C   UNK N   1      32.323  14.884   4.275  0.00  0.00     0.001 A 
HETATM   13  C   UNK N   1      32.001  15.592   3.115  0.00  0.00     0.000 A 
HETATM   14  C   UNK N   1      32.235  16.969   3.051  0.00  0.00     0.001 A 
HETATM   15  C   UNK N   1      32.795  17.637   4.146  0.00  0.00     0.007 A 
ENDBRANCH   9  10
ENDBRANCH   1   9
BRANCH   1  16
HETATM   16  C   UNK N   1      34.614  17.502   8.832  0.00  0.00     0.223 C 
HETATM   17  N   UNK N   1      35.180  16.558   9.636  0.00  0.00    -0.347 N 
HETATM   18  H   UNK N   1      35.885  16.870  10.248  0.00  0.00     0.163 HD
HETATM   19  O   UNK N   1      35.110  18.620   8.837  0.00  0.00    -0.273 OA
BRANCH  17  20
HETATM   20  C   UNK N   1      34.857  15.150   9.691  0.00  0.00     0.178 C 
HETATM   21  C   UNK N   1      36.161  14.370   9.723  0.00  0.00     0.043 C 
BRANCH  20  22
HETATM   22  C   UNK N   1      34.024  14.866  10.915  0.00  0.00     0.163 C 
HETATM   23  O   UNK N   1      34.558  14.432  11.924  0.00  0.00    -0.648 OA
BRANCH  22  24
HETATM   24  O   UNK N   1      32.695  15.092  10.915  0.00  0.00    -0.775 OA
HETATM   25  H   UNK N   1      32.348  15.907  10.609  0.00  0.00     0.167 HD
ENDBRANCH  22  24
ENDBRANCH  20  22
ENDBRANCH  17  20
ENDBRANCH   1  16
TORSDOF 9
ENDMDL
MODEL 7
REMARK VINA RESULT:      -6.1     11.207     13.807
REMARK  9 active torsions:
REMARK  status: ('A' for Active; 'I' for Inactive)
REMARK       I    between atoms: N_3  and  C_2 
REMARK    1  A    between atoms: C_5  and  C_2 
REMARK    2  A    between atoms: N_3  and  O_4 
REMARK    3  A    between atoms: C_5  and  C_6 
REMARK    4  A    between atoms: C_6  and  C_15 
REMARK    5  A    between atoms: C_6  and  C_7 
REMARK       I    between atoms: C_7  and  N_9 
REMARK    6  A    between atoms: C_10  and  N_9 
REMARK    7  A    between atoms: C_12  and  C_10 
REMARK    8  A    between atoms: C_12  and  O_14 
REMARK    9  A    between atoms: C_15  and  C_16 
ROOT
HETATM    1  C   UNK N   1      32.880  16.534   7.329  0.00  0.00     0.091 C 
ENDROOT
BRANCH   1   2
HETATM    2  C   UNK N   1      33.396  17.978   7.488  0.00  0.00     0.119 C 
BRANCH   2   3
HETATM    3  C   UNK N   1      34.492  18.170   8.501  0.00  0.00     0.241 C 
HETATM    4  O   UNK N   1      35.263  19.113   8.400  0.00  0.00    -0.271 OA
HETATM    5  N   UNK N   1      34.589  17.334   9.557  0.00  0.00    -0.237 N 
HETATM    6  H   UNK N   1      33.956  16.585   9.645  0.00  0.00     0.197 HD
BRANCH   5   7
HETATM    7  O   UNK N   1      35.538  17.510  10.486  0.00  0.00    -0.287 OA
HETATM    8  H   UNK N   1      35.770  16.914  11.216  0.00  0.00     0.244 HD
ENDBRANCH   5   7
ENDBRANCH   2   3
ENDBRANCH   1   2
BRANCH   1   9
HETATM    9  C   UNK N   1      31.427  16.508   6.796  0.00  0.00     0.053 C 
BRANCH   9  10
HETATM   10  C   UNK N   1      30.298  17.220   7.483  0.00  0.00    -0.057 A 
HETATM   11  C   UNK N   1      30.258  17.178   8.882  0.00  0.00     0.007 A 
HETATM   12  C   UNK N   1      29.213  17.785   9.582  0.00  0.00     0.001 A 
HETATM   13  C   UNK N   1      28.192  18.432   8.884  0.00  0.00     0.000 A 
HETATM   14  C   UNK N   1      28.225  18.481   7.486  0.00  0.00     0.001 A 
HETATM   15  C   UNK N   1      29.278  17.881   6.788  0.00  0.00     0.007 A 
ENDBRANCH   9  10
ENDBRANCH   1   9
BRANCH   1  16
HETATM   16  C   UNK N   1      33.760  15.842   6.280  0.00  0.00     0.223 C 
HETATM   17  N   UNK N   1      34.614  14.821   6.575  0.00  0.00    -0.347 N 
HETATM   18  H   UNK N   1      35.219  14.534   5.853  0.00  0.00     0.163 HD
HETATM   19  O   UNK N   1      33.720  16.229   5.121  0.00  0.00    -0.273 OA
BRANCH  17  20
HETATM   20  C   UNK N   1      34.729  14.114   7.831  0.00  0.00     0.178 C 
HETATM   21  C   UNK N   1      34.414  12.650   7.576  0.00  0.00     0.043 C 
BRANCH  20  22
HETATM   22  C   UNK N   1      36.122  14.281   8.383  0.00  0.00     0.163 C 
HETATM   23  O   UNK N   1      36.284  14.817   9.468  0.00  0.00    -0.648 OA
BRANCH  22  24
HETATM   24  O   UNK N   1      37.196  13.841   7.696  0.00  0.00    -0.775 OA
HETATM   25  H   UNK N   1      37.090  13.337   6.913  0.00  0.00     0.167 HD
ENDBRANCH  22  24
ENDBRANCH  20  22
ENDBRANCH  17  20
ENDBRANCH   1  16
TORSDOF 9
ENDMDL
MODEL 8
REMARK VINA RESULT:      -6.1      7.139      9.767
REMARK  9 active torsions:
REMARK  status: ('A' for Active; 'I' for Inactive)
REMARK       I    between atoms: N_3  and  C_2 
REMARK    1  A    between atoms: C_5  and  C_2 
REMARK    2  A    between atoms: N_3  and  O_4 
REMARK    3  A    between atoms: C_5  and  C_6 
REMARK    4  A    between atoms: C_6  and  C_15 
REMARK    5  A    between atoms: C_6  and  C_7 
REMARK       I    between atoms: C_7  and  N_9 
REMARK    6  A    between atoms: C_10  and  N_9 
REMARK    7  A    between atoms: C_12  and  C_10 
REMARK    8  A    between atoms: C_12  and  O_14 
REMARK    9  A    between atoms: C_15  and  C_16 
ROOT
HETATM    1  C   UNK N   1      28.913  18.236   7.258  0.00  0.00     0.091 C 
ENDROOT
BRANCH   1   2
HETATM    2  C   UNK N   1      28.497  18.591   8.699  0.00  0.00     0.119 C 
BRANCH   2   3
HETATM    3  C   UNK N   1      28.546  17.458   9.688  0.00  0.00     0.241 C 
HETATM    4  O   UNK N   1      27.594  16.701   9.803  0.00  0.00    -0.271 OA
HETATM    5  N   UNK N   1      29.667  17.239  10.410  0.00  0.00    -0.237 N 
HETATM    6  H   UNK N   1      30.439  17.840  10.303  0.00  0.00     0.197 HD
BRANCH   5   7
HETATM    7  O   UNK N   1      29.740  16.215  11.270  0.00  0.00    -0.287 OA
HETATM    8  H   UNK N   1      30.488  15.614  11.413  0.00  0.00     0.244 HD
ENDBRANCH   5   7
ENDBRANCH   2   3
ENDBRANCH   1   2
BRANCH   1   9
HETATM    9  C   UNK N   1      29.910  17.054   7.231  0.00  0.00     0.053 C 
BRANCH   9  10
HETATM   10  C   UNK N   1      31.393  17.246   7.086  0.00  0.00    -0.057 A 
HETATM   11  C   UNK N   1      31.948  17.082   5.812  0.00  0.00     0.007 A 
HETATM   12  C   UNK N   1      33.325  17.206   5.615  0.00  0.00     0.001 A 
HETATM   13  C   UNK N   1      34.160  17.487   6.699  0.00  0.00     0.000 A 
HETATM   14  C   UNK N   1      33.613  17.654   7.975  0.00  0.00     0.001 A 
HETATM   15  C   UNK N   1      32.232  17.539   8.168  0.00  0.00     0.007 A 
ENDBRANCH   9  10
ENDBRANCH   1   9
BRANCH   1  16
HETATM   16  C   UNK N   1      27.651  17.783   6.512  0.00  0.00     0.223 C 
HETATM   17  N   UNK N   1      26.926  18.603   5.700  0.00  0.00    -0.347 N 
HETATM   18  H   UNK N   1      26.069  18.246   5.370  0.00  0.00     0.163 HD
HETATM   19  O   UNK N   1      27.252  16.636   6.660  0.00  0.00    -0.273 OA
BRANCH  17  20
HETATM   20  C   UNK N   1      27.275  19.939   5.270  0.00  0.00     0.178 C 
HETATM   21  C   UNK N   1      26.647  20.172   3.906  0.00  0.00     0.043 C 
BRANCH  20  22
HETATM   22  C   UNK N   1      26.777  20.943   6.277  0.00  0.00     0.163 C 
HETATM   23  O   UNK N   1      27.179  22.095   6.234  0.00  0.00    -0.648 OA
BRANCH  22  24
HETATM   24  O   UNK N   1      25.884  20.590   7.223  0.00  0.00    -0.775 OA
HETATM   25  H   UNK N   1      25.452  21.240   7.741  0.00  0.00     0.167 HD
ENDBRANCH  22  24
ENDBRANCH  20  22
ENDBRANCH  17  20
ENDBRANCH   1  16
TORSDOF 9
ENDMDL
MODEL 9
REMARK VINA RESULT:      -6.1     17.906     20.519
REMARK  9 active torsions:
REMARK  status: ('A' for Active; 'I' for Inactive)
REMARK       I    between atoms: N_3  and  C_2 
REMARK    1  A    between atoms: C_5  and  C_2 
REMARK    2  A    between atoms: N_3  and  O_4 
REMARK    3  A    between atoms: C_5  and  C_6 
REMARK    4  A    between atoms: C_6  and  C_15 
REMARK    5  A    between atoms: C_6  and  C_7 
REMARK       I    between atoms: C_7  and  N_9 
REMARK    6  A    between atoms: C_10  and  N_9 
REMARK    7  A    between atoms: C_12  and  C_10 
REMARK    8  A    between atoms: C_12  and  O_14 
REMARK    9  A    between atoms: C_15  and  C_16 
ROOT
HETATM    1  C   UNK N   1      35.928  10.762  14.836  0.00  0.00     0.091 C 
ENDROOT
BRANCH   1   2
HETATM    2  C   UNK N   1      35.756   9.768  13.672  0.00  0.00     0.119 C 
BRANCH   2   3
HETATM    3  C   UNK N   1      35.446  10.380  12.333  0.00  0.00     0.241 C 
HETATM    4  O   UNK N   1      36.162  10.147  11.370  0.00  0.00    -0.271 OA
HETATM    5  N   UNK N   1      34.342  11.143  12.178  0.00  0.00    -0.237 N 
HETATM    6  H   UNK N   1      33.757  11.315  12.951  0.00  0.00     0.197 HD
BRANCH   5   7
HETATM    7  O   UNK N   1      34.032  11.668  10.985  0.00  0.00    -0.287 OA
HETATM    8  H   UNK N   1      34.624  12.128  10.369  0.00  0.00     0.244 HD
ENDBRANCH   5   7
ENDBRANCH   2   3
ENDBRANCH   1   2
BRANCH   1   9
HETATM    9  C   UNK N   1      35.910  10.040  16.205  0.00  0.00     0.053 C 
BRANCH   9  10
HETATM   10  C   UNK N   1      35.835  10.778  17.511  0.00  0.00    -0.057 A 
HETATM   11  C   UNK N   1      36.343  10.139  18.648  0.00  0.00     0.007 A 
HETATM   12  C   UNK N   1      36.268  10.752  19.901  0.00  0.00     0.001 A 
HETATM   13  C   UNK N   1      35.673  12.009  20.025  0.00  0.00     0.000 A 
HETATM   14  C   UNK N   1      35.166  12.656  18.894  0.00  0.00     0.001 A 
HETATM   15  C   UNK N   1      35.251  12.044  17.638  0.00  0.00     0.007 A 
ENDBRANCH   9  10
ENDBRANCH   1   9
BRANCH   1  16
HETATM   16  C   UNK N   1      37.309  11.414  14.686  0.00  0.00     0.223 C 
HETATM   17  N   UNK N   1      37.498  12.761  14.613  0.00  0.00    -0.347 N 
HETATM   18  H   UNK N   1      38.409  13.065  14.395  0.00  0.00     0.163 HD
HETATM   19  O   UNK N   1      38.298  10.699  14.605  0.00  0.00    -0.273 OA
BRANCH  17  20
HETATM   20  C   UNK N   1      36.507  13.795  14.821  0.00  0.00     0.178 C 
HETATM   21  C   UNK N   1      37.178  14.948  15.549  0.00  0.00     0.043 C 
BRANCH  20  22
HETATM   22  C   UNK N   1      35.952  14.241  13.493  0.00  0.00     0.163 C 
HETATM   23  O   UNK N   1      34.909  13.759  13.079  0.00  0.00    -0.648 OA
BRANCH  22  24
HETATM   24  O   UNK N   1      36.588  15.173  12.755  0.00  0.00    -0.775 OA
HETATM   25  H   UNK N   1      37.245  14.927  12.134  0.00  0.00     0.167 HD
ENDBRANCH  22  24
ENDBRANCH  20  22
ENDBRANCH  17  20
ENDBRANCH   1  16
TORSDOF 9
ENDMDL
