MODEL 1
REMARK VINA RESULT:      -6.1      0.000      0.000
REMARK  10 active torsions:
REMARK  status: ('A' for Active; 'I' for Inactive)
REMARK    1  A    between atoms: O_1  and  C_8 
REMARK    2  A    between atoms: O_1  and  C_19 
REMARK    3  A    between atoms: C_5  and  C_19 
REMARK       I    between atoms: C_8  and  N_10 
REMARK    4  A    between atoms: C_11  and  N_10 
REMARK    5  A    between atoms: C_11  and  C_12 
REMARK    6  A    between atoms: C_11  and  C_20 
REMARK    7  A    between atoms: C_12  and  C_13 
REMARK    8  A    between atoms: C_20  and  O_21 
REMARK    9  A    between atoms: C_20  and  C_22 
REMARK   10  A    between atoms: C_22  and  O_24 
ROOT
HETATM    1  C   UNK N   1      33.160  16.165   8.333  0.00  0.00     0.130 C 
ENDROOT
BRANCH   1   2
HETATM    2  N   UNK N   1      32.507  17.348   8.865  0.00  0.00    -0.329 N 
HETATM    3  C   UNK N   1      31.217  17.656   8.580  0.00  0.00     0.361 C 
HETATM    4  O   UNK N   1      30.719  18.665   9.055  0.00  0.00    -0.238 OA
HETATM    5  H   UNK N   1      33.019  17.948   9.455  0.00  0.00     0.165 HD
BRANCH   3   6
HETATM    6  O   UNK N   1      30.486  16.828   7.787  0.00  0.00    -0.299 OA
BRANCH   6   7
HETATM    7  C   UNK N   1      29.558  17.251   6.857  0.00  0.00     0.219 C 
BRANCH   7   8
HETATM    8  C   UNK N   1      29.620  16.434   5.605  0.00  0.00    -0.034 A 
HETATM    9  C   UNK N   1      30.136  15.131   5.631  0.00  0.00     0.009 A 
HETATM   10  C   UNK N   1      30.201  14.380   4.454  0.00  0.00     0.001 A 
HETATM   11  C   UNK N   1      29.763  14.934   3.246  0.00  0.00     0.000 A 
HETATM   12  C   UNK N   1      29.257  16.237   3.218  0.00  0.00     0.001 A 
HETATM   13  C   UNK N   1      29.181  16.985   4.397  0.00  0.00     0.009 A 
ENDBRANCH   7   8
ENDBRANCH   6   7
ENDBRANCH   3   6
ENDBRANCH   1   2
BRANCH   1  14
HETATM   14  C   UNK N   1      34.169  16.546   7.228  0.00  0.00     0.067 C 
BRANCH  14  15
HETATM   15  C   UNK N   1      33.702  16.492   5.807  0.00  0.00    -0.056 A 
HETATM   16  C   UNK N   1      33.079  17.600   5.221  0.00  0.00     0.007 A 
HETATM   17  C   UNK N   1      32.740  17.580   3.864  0.00  0.00     0.001 A 
HETATM   18  C   UNK N   1      33.036  16.457   3.086  0.00  0.00     0.000 A 
HETATM   19  C   UNK N   1      33.668  15.353   3.666  0.00  0.00     0.001 A 
HETATM   20  C   UNK N   1      34.010  15.375   5.022  0.00  0.00     0.007 A 
ENDBRANCH  14  15
ENDBRANCH   1  14
BRANCH   1  21
HETATM   21  C   UNK N   1      33.773  15.328   9.478  0.00  0.00     0.238 C 
BRANCH  21  22
HETATM   22  O   UNK N   1      32.828  15.164  10.494  0.00  0.00    -0.383 OA
HETATM   23  H   UNK N   1      31.992  15.476  10.875  0.00  0.00     0.210 HD
ENDBRANCH  21  22
BRANCH  21  24
HETATM   24  C   UNK N   1      35.001  15.973  10.085  0.00  0.00     0.171 C 
HETATM   25  O   UNK N   1      36.095  15.433  10.019  0.00  0.00    -0.648 OA
BRANCH  24  26
HETATM   26  O   UNK N   1      34.893  17.177  10.679  0.00  0.00    -0.774 OA
HETATM   27  H   UNK N   1      34.213  17.784  10.467  0.00  0.00     0.167 HD
ENDBRANCH  24  26
ENDBRANCH  21  24
ENDBRANCH   1  21
TORSDOF 10
ENDMDL
MODEL 2
REMARK VINA RESULT:      -6.0      6.026     10.169
REMARK  10 active torsions:
REMARK  status: ('A' for Active; 'I' for Inactive)
REMARK    1  A    between atoms: O_1  and  C_8 
REMARK    2  A    between atoms: O_1  and  C_19 
REMARK    3  A    between atoms: C_5  and  C_19 
REMARK       I    between atoms: C_8  and  N_10 
REMARK    4  A    between atoms: C_11  and  N_10 
REMARK    5  A    between atoms: C_11  and  C_12 
REMARK    6  A    between atoms: C_11  and  C_20 
REMARK    7  A    between atoms: C_12  and  C_13 
REMARK    8  A    between atoms: C_20  and  O_21 
REMARK    9  A    between atoms: C_20  and  C_22 
REMARK   10  A    between atoms: C_22  and  O_24 
ROOT
HETATM    1  C   UNK N   1      35.732  14.151  12.056  0.00  0.00     0.130 C 
ENDROOT
BRANCH   1   2
HETATM    2  N   UNK N   1      37.030  14.211  11.408  0.00  0.00    -0.329 N 
HETATM    3  C   UNK N   1      37.687  13.100  10.994  0.00  0.00     0.361 C 
HETATM    4  O   UNK N   1      38.778  13.210  10.456  0.00  0.00    -0.238 OA
HETATM    5  H   UNK N   1      37.448  15.091  11.264  0.00  0.00     0.165 HD
BRANCH   3   6
HETATM    6  O   UNK N   1      37.117  11.877  11.162  0.00  0.00    -0.299 OA
BRANCH   6   7
HETATM    7  C   UNK N   1      37.817  10.691  11.261  0.00  0.00     0.219 C 
BRANCH   7   8
HETATM    8  C   UNK N   1      37.614  10.040  12.592  0.00  0.00    -0.034 A 
HETATM    9  C   UNK N   1      36.874   8.854  12.698  0.00  0.00     0.009 A 
HETATM   10  C   UNK N   1      36.680   8.259  13.948  0.00  0.00     0.001 A 
HETATM   11  C   UNK N   1      37.212   8.854  15.096  0.00  0.00     0.000 A 
HETATM   12  C   UNK N   1      37.941  10.043  14.993  0.00  0.00     0.001 A 
HETATM   13  C   UNK N   1      38.145  10.633  13.741  0.00  0.00     0.009 A 
ENDBRANCH   7   8
ENDBRANCH   6   7
ENDBRANCH   3   6
ENDBRANCH   1   2
BRANCH   1  14
HETATM   14  C   UNK N   1      35.888  14.009  13.585  0.00  0.00     0.067 C 
BRANCH  14  15
HETATM   15  C   UNK N   1      35.208  12.854  14.252  0.00  0.00    -0.056 A 
HETATM   16  C   UNK N   1      34.521  11.899  13.493  0.00  0.00     0.007 A 
HETATM   17  C   UNK N   1      33.978  10.768  14.111  0.00  0.00     0.001 A 
HETATM   18  C   UNK N   1      34.133  10.581  15.488  0.00  0.00     0.000 A 
HETATM   19  C   UNK N   1      34.828  11.527  16.246  0.00  0.00     0.001 A 
HETATM   20  C   UNK N   1      35.374  12.657  15.627  0.00  0.00     0.007 A 
ENDBRANCH  14  15
ENDBRANCH   1  14
BRANCH   1  21
HETATM   21  C   UNK N   1      34.860  15.352  11.625  0.00  0.00     0.238 C 
BRANCH  21  22
HETATM   22  O   UNK N   1      33.582  14.902  11.282  0.00  0.00    -0.383 OA
HETATM   23  H   UNK N   1      33.060  14.326  10.702  0.00  0.00     0.210 HD
ENDBRANCH  21  22
BRANCH  21  24
HETATM   24  C   UNK N   1      35.429  16.092  10.433  0.00  0.00     0.171 C 
HETATM   25  O   UNK N   1      35.961  17.184  10.564  0.00  0.00    -0.648 OA
BRANCH  24  26
HETATM   26  O   UNK N   1      35.376  15.525   9.213  0.00  0.00    -0.774 OA
HETATM   27  H   UNK N   1      34.568  15.288   8.802  0.00  0.00     0.167 HD
ENDBRANCH  24  26
ENDBRANCH  21  24
ENDBRANCH   1  21
TORSDOF 10
ENDMDL
MODEL 3
REMARK VINA RESULT:      -6.0     13.683     16.079
REMARK  10 active torsions:
REMARK  status: ('A' for Active; 'I' for Inactive)
REMARK    1  A    between atoms: O_1  and  C_8 
REMARK    2  A    between atoms: O_1  and  C_19 
REMARK    3  A    between atoms: C_5  and  C_19 
REMARK       I    between atoms: C_8  and  N_10 
REMARK    4  A    between atoms: C_11  and  N_10 
REMARK    5  A    between atoms: C_11  and  C_12 
REMARK    6  A    between atoms: C_11  and  C_20 
REMARK    7  A    between atoms: C_12  and  C_13 
REMARK    8  A    between atoms: C_20  and  O_21 
REMARK    9  A    between atoms: C_20  and  C_22 
REMARK   10  A    between atoms: C_22  and  O_24 
ROOT
HETATM    1  C   UNK N   1      28.198  23.916  -4.135  0.00  0.00     0.130 C 
ENDROOT
BRANCH   1   2
HETATM    2  N   UNK N   1      28.610  23.282  -5.375  0.00  0.00    -0.329 N 
HETATM    3  C   UNK N   1      29.229  23.966  -6.369  0.00  0.00     0.361 C 
HETATM    4  O   UNK N   1      29.552  23.381  -7.392  0.00  0.00    -0.238 OA
HETATM    5  H   UNK N   1      28.433  22.321  -5.498  0.00  0.00     0.165 HD
BRANCH   3   6
HETATM    6  O   UNK N   1      29.503  25.288  -6.210  0.00  0.00    -0.299 OA
BRANCH   6   7
HETATM    7  C   UNK N   1      28.928  26.303  -6.947  0.00  0.00     0.219 C 
BRANCH   7   8
HETATM    8  C   UNK N   1      28.808  27.564  -6.151  0.00  0.00    -0.034 A 
HETATM    9  C   UNK N   1      28.165  28.687  -6.690  0.00  0.00     0.009 A 
HETATM   10  C   UNK N   1      28.068  29.864  -5.943  0.00  0.00     0.001 A 
HETATM   11  C   UNK N   1      28.626  29.927  -4.663  0.00  0.00     0.000 A 
HETATM   12  C   UNK N   1      29.277  28.811  -4.128  0.00  0.00     0.001 A 
HETATM   13  C   UNK N   1      29.364  27.629  -4.870  0.00  0.00     0.009 A 
ENDBRANCH   7   8
ENDBRANCH   6   7
ENDBRANCH   3   6
ENDBRANCH   1   2
BRANCH   1  14
HETATM   14  C   UNK N   1      26.674  24.159  -4.123  0.00  0.00     0.067 C 
BRANCH  14  15
HETATM   15  C   UNK N   1      26.186  25.552  -4.374  0.00  0.00    -0.056 A 
HETATM   16  C   UNK N   1      25.483  25.858  -5.546  0.00  0.00     0.007 A 
HETATM   17  C   UNK N   1      24.940  27.135  -5.726  0.00  0.00     0.001 A 
HETATM   18  C   UNK N   1      25.087  28.104  -4.730  0.00  0.00     0.000 A 
HETATM   19  C   UNK N   1      25.778  27.798  -3.554  0.00  0.00     0.001 A 
HETATM   20  C   UNK N   1      26.319  26.520  -3.373  0.00  0.00     0.007 A 
ENDBRANCH  14  15
ENDBRANCH   1  14
BRANCH   1  21
HETATM   21  C   UNK N   1      28.713  23.109  -2.922  0.00  0.00     0.238 C 
BRANCH  21  22
HETATM   22  O   UNK N   1      27.841  23.278  -1.843  0.00  0.00    -0.383 OA
HETATM   23  H   UNK N   1      27.031  22.971  -1.407  0.00  0.00     0.210 HD
ENDBRANCH  21  22
BRANCH  21  24
HETATM   24  C   UNK N   1      30.095  23.538  -2.476  0.00  0.00     0.171 C 
HETATM   25  O   UNK N   1      30.667  24.476  -3.010  0.00  0.00    -0.648 OA
BRANCH  24  26
HETATM   26  O   UNK N   1      30.691  22.897  -1.453  0.00  0.00    -0.774 OA
HETATM   27  H   UNK N   1      30.444  23.034  -0.560  0.00  0.00     0.167 HD
ENDBRANCH  24  26
ENDBRANCH  21  24
ENDBRANCH   1  21
TORSDOF 10
ENDMDL
MODEL 4
REMARK VINA RESULT:      -5.9      2.130      4.128
REMARK  10 active torsions:
REMARK  status: ('A' for Active; 'I' for Inactive)
REMARK    1  A    between atoms: O_1  and  C_8 
REMARK    2  A    between atoms: O_1  and  C_19 
REMARK    3  A    between atoms: C_5  and  C_19 
REMARK       I    between atoms: C_8  and  N_10 
REMARK    4  A    between atoms: C_11  and  N_10 
REMARK    5  A    between atoms: C_11  and  C_12 
REMARK    6  A    between atoms: C_11  and  C_20 
REMARK    7  A    between atoms: C_12  and  C_13 
REMARK    8  A    between atoms: C_20  and  O_21 
REMARK    9  A    between atoms: C_20  and  C_22 
REMARK   10  A    between atoms: C_22  and  O_24 
ROOT
HETATM    1  C   UNK N   1      34.283  15.677   8.747  0.00  0.00     0.130 C 
ENDROOT
BRANCH   1   2
HETATM    2  N   UNK N   1      35.317  14.669   8.590  0.00  0.00    -0.329 N 
HETATM    3  C   UNK N   1      35.964  14.470   7.415  0.00  0.00     0.361 C 
HETATM    4  O   UNK N   1      36.825  13.607   7.339  0.00  0.00    -0.238 OA
HETATM    5  H   UNK N   1      35.557  14.111   9.365  0.00  0.00     0.165 HD
BRANCH   3   6
HETATM    6  O   UNK N   1      35.664  15.246   6.339  0.00  0.00    -0.299 OA
BRANCH   6   7
HETATM    7  C   UNK N   1      35.087  14.783   5.174  0.00  0.00     0.219 C 
BRANCH   7   8
HETATM    8  C   UNK N   1      34.082  15.749   4.634  0.00  0.00    -0.034 A 
HETATM    9  C   UNK N   1      33.368  15.453   3.465  0.00  0.00     0.009 A 
HETATM   10  C   UNK N   1      32.438  16.368   2.961  0.00  0.00     0.001 A 
HETATM   11  C   UNK N   1      32.231  17.586   3.615  0.00  0.00     0.000 A 
HETATM   12  C   UNK N   1      32.950  17.887   4.776  0.00  0.00     0.001 A 
HETATM   13  C   UNK N   1      33.871  16.967   5.287  0.00  0.00     0.009 A 
ENDBRANCH   7   8
ENDBRANCH   6   7
ENDBRANCH   3   6
ENDBRANCH   1   2
BRANCH   1  14
HETATM   14  C   UNK N   1      32.893  15.019   8.880  0.00  0.00     0.067 C 
BRANCH  14  15
HETATM   15  C   UNK N   1      31.797  15.518   7.990  0.00  0.00    -0.056 A 
HETATM   16  C   UNK N   1      31.209  16.768   8.219  0.00  0.00     0.007 A 
HETATM   17  C   UNK N   1      30.260  17.272   7.323  0.00  0.00     0.001 A 
HETATM   18  C   UNK N   1      29.907  16.535   6.190  0.00  0.00     0.000 A 
HETATM   19  C   UNK N   1      30.500  15.292   5.953  0.00  0.00     0.001 A 
HETATM   20  C   UNK N   1      31.452  14.789   6.847  0.00  0.00     0.007 A 
ENDBRANCH  14  15
ENDBRANCH   1  14
BRANCH   1  21
HETATM   21  C   UNK N   1      34.636  16.633   9.909  0.00  0.00     0.238 C 
BRANCH  21  22
HETATM   22  O   UNK N   1      35.240  17.785   9.399  0.00  0.00    -0.383 OA
HETATM   23  H   UNK N   1      35.303  18.752   9.450  0.00  0.00     0.210 HD
ENDBRANCH  21  22
BRANCH  21  24
HETATM   24  C   UNK N   1      35.587  16.013  10.911  0.00  0.00     0.171 C 
HETATM   25  O   UNK N   1      35.178  15.281  11.799  0.00  0.00    -0.648 OA
BRANCH  24  26
HETATM   26  O   UNK N   1      36.909  16.246  10.803  0.00  0.00    -0.774 OA
HETATM   27  H   UNK N   1      37.550  15.725  11.244  0.00  0.00     0.167 HD
ENDBRANCH  24  26
ENDBRANCH  21  24
ENDBRANCH   1  21
TORSDOF 10
ENDMDL
MODEL 5
REMARK VINA RESULT:      -5.9      2.036      2.922
REMARK  10 active torsions:
REMARK  status: ('A' for Active; 'I' for Inactive)
REMARK    1  A    between atoms: O_1  and  C_8 
REMARK    2  A    between atoms: O_1  and  C_19 
REMARK    3  A    between atoms: C_5  and  C_19 
REMARK       I    between atoms: C_8  and  N_10 
REMARK    4  A    between atoms: C_11  and  N_10 
REMARK    5  A    between atoms: C_11  and  C_12 
REMARK    6  A    between atoms: C_11  and  C_20 
REMARK    7  A    between atoms: C_12  and  C_13 
REMARK    8  A    between atoms: C_20  and  O_21 
REMARK    9  A    between atoms: C_20  and  C_22 
REMARK   10  A    between atoms: C_22  and  O_24 
ROOT
HETATM    1  C   UNK N   1      31.771  16.693   8.260  0.00  0.00     0.130 C 
ENDROOT
BRANCH   1   2
HETATM    2  N   UNK N   1      31.350  17.657   9.261  0.00  0.00    -0.329 N 
HETATM    3  C   UNK N   1      30.121  18.230   9.244  0.00  0.00     0.361 C 
HETATM    4  O   UNK N   1      29.820  19.037  10.111  0.00  0.00    -0.238 OA
HETATM    5  H   UNK N   1      31.979  17.903   9.977  0.00  0.00     0.165 HD
BRANCH   3   6
HETATM    6  O   UNK N   1      29.229  17.887   8.277  0.00  0.00    -0.299 OA
BRANCH   6   7
HETATM    7  C   UNK N   1      27.984  18.461   8.118  0.00  0.00     0.219 C 
BRANCH   7   8
HETATM    8  C   UNK N   1      27.829  19.075   6.763  0.00  0.00    -0.034 A 
HETATM    9  C   UNK N   1      27.283  20.358   6.622  0.00  0.00     0.009 A 
HETATM   10  C   UNK N   1      27.131  20.919   5.350  0.00  0.00     0.001 A 
HETATM   11  C   UNK N   1      27.510  20.194   4.217  0.00  0.00     0.000 A 
HETATM   12  C   UNK N   1      28.046  18.909   4.356  0.00  0.00     0.001 A 
HETATM   13  C   UNK N   1      28.209  18.353   5.628  0.00  0.00     0.009 A 
ENDBRANCH   7   8
ENDBRANCH   6   7
ENDBRANCH   3   6
ENDBRANCH   1   2
BRANCH   1  14
HETATM   14  C   UNK N   1      32.476  17.397   7.082  0.00  0.00     0.067 C 
BRANCH  14  15
HETATM   15  C   UNK N   1      31.997  17.090   5.697  0.00  0.00    -0.056 A 
HETATM   16  C   UNK N   1      32.663  17.614   4.582  0.00  0.00     0.007 A 
HETATM   17  C   UNK N   1      32.275  17.240   3.291  0.00  0.00     0.001 A 
HETATM   18  C   UNK N   1      31.229  16.330   3.112  0.00  0.00     0.000 A 
HETATM   19  C   UNK N   1      30.569  15.798   4.223  0.00  0.00     0.001 A 
HETATM   20  C   UNK N   1      30.959  16.169   5.514  0.00  0.00     0.007 A 
ENDBRANCH  14  15
ENDBRANCH   1  14
BRANCH   1  21
HETATM   21  C   UNK N   1      32.612  15.573   8.914  0.00  0.00     0.238 C 
BRANCH  21  22
HETATM   22  O   UNK N   1      32.010  15.173  10.109  0.00  0.00    -0.383 OA
HETATM   23  H   UNK N   1      31.176  14.983  10.567  0.00  0.00     0.210 HD
ENDBRANCH  21  22
BRANCH  21  24
HETATM   24  C   UNK N   1      34.028  16.010   9.228  0.00  0.00     0.171 C 
HETATM   25  O   UNK N   1      34.987  15.462   8.707  0.00  0.00    -0.648 OA
BRANCH  24  26
HETATM   26  O   UNK N   1      34.232  17.039  10.071  0.00  0.00    -0.774 OA
HETATM   27  H   UNK N   1      33.643  17.765  10.133  0.00  0.00     0.167 HD
ENDBRANCH  24  26
ENDBRANCH  21  24
ENDBRANCH   1  21
TORSDOF 10
ENDMDL
MODEL 6
REMARK VINA RESULT:      -5.8     12.800     15.044
REMARK  10 active torsions:
REMARK  status: ('A' for Active; 'I' for Inactive)
REMARK    1  A    between atoms: O_1  and  C_8 
REMARK    2  A    between atoms: O_1  and  C_19 
REMARK    3  A    between atoms: C_5  and  C_19 
REMARK       I    between atoms: C_8  and  N_10 
REMARK    4  A    between atoms: C_11  and  N_10 
REMARK    5  A    between atoms: C_11  and  C_12 
REMARK    6  A    between atoms: C_11  and  C_20 
REMARK    7  A    between atoms: C_12  and  C_13 
REMARK    8  A    between atoms: C_20  and  O_21 
REMARK    9  A    between atoms: C_20  and  C_22 
REMARK   10  A    between atoms: C_22  and  O_24 
ROOT
HETATM    1  C   UNK N   1      30.523  23.805  -4.424  0.00  0.00     0.130 C 
ENDROOT
BRANCH   1   2
HETATM    2  N   UNK N   1      31.540  24.837  -4.517  0.00  0.00    -0.329 N 
HETATM    3  C   UNK N   1      31.311  26.119  -4.139  0.00  0.00     0.361 C 
HETATM    4  O   UNK N   1      32.204  26.947  -4.242  0.00  0.00    -0.238 OA
HETATM    5  H   UNK N   1      32.429  24.597  -4.867  0.00  0.00     0.165 HD
BRANCH   3   6
HETATM    6  O   UNK N   1      30.098  26.467  -3.632  0.00  0.00    -0.299 OA
BRANCH   6   7
HETATM    7  C   UNK N   1      29.579  27.745  -3.645  0.00  0.00     0.219 C 
BRANCH   7   8
HETATM    8  C   UNK N   1      28.181  27.768  -4.176  0.00  0.00    -0.034 A 
HETATM    9  C   UNK N   1      27.943  27.723  -5.556  0.00  0.00     0.009 A 
HETATM   10  C   UNK N   1      26.633  27.757  -6.043  0.00  0.00     0.001 A 
HETATM   11  C   UNK N   1      25.559  27.850  -5.152  0.00  0.00     0.000 A 
HETATM   12  C   UNK N   1      25.795  27.905  -3.775  0.00  0.00     0.001 A 
HETATM   13  C   UNK N   1      27.105  27.859  -3.287  0.00  0.00     0.009 A 
ENDBRANCH   7   8
ENDBRANCH   6   7
ENDBRANCH   3   6
ENDBRANCH   1   2
BRANCH   1  14
HETATM   14  C   UNK N   1      29.653  23.775  -5.699  0.00  0.00     0.067 C 
BRANCH  14  15
HETATM   15  C   UNK N   1      28.186  24.029  -5.549  0.00  0.00    -0.056 A 
HETATM   16  C   UNK N   1      27.347  24.031  -6.671  0.00  0.00     0.007 A 
HETATM   17  C   UNK N   1      25.964  24.164  -6.514  0.00  0.00     0.001 A 
HETATM   18  C   UNK N   1      25.414  24.282  -5.234  0.00  0.00     0.000 A 
HETATM   19  C   UNK N   1      26.247  24.270  -4.112  0.00  0.00     0.001 A 
HETATM   20  C   UNK N   1      27.631  24.133  -4.269  0.00  0.00     0.007 A 
ENDBRANCH  14  15
ENDBRANCH   1  14
BRANCH   1  21
HETATM   21  C   UNK N   1      31.167  22.445  -4.073  0.00  0.00     0.238 C 
BRANCH  21  22
HETATM   22  O   UNK N   1      30.325  21.409  -4.483  0.00  0.00    -0.383 OA
HETATM   23  H   UNK N   1      30.032  20.854  -5.223  0.00  0.00     0.210 HD
ENDBRANCH  21  22
BRANCH  21  24
HETATM   24  C   UNK N   1      31.420  22.281  -2.589  0.00  0.00     0.171 C 
HETATM   25  O   UNK N   1      30.828  22.966  -1.769  0.00  0.00    -0.648 OA
BRANCH  24  26
HETATM   26  O   UNK N   1      32.289  21.345  -2.164  0.00  0.00    -0.774 OA
HETATM   27  H   UNK N   1      32.013  20.556  -1.741  0.00  0.00     0.167 HD
ENDBRANCH  24  26
ENDBRANCH  21  24
ENDBRANCH   1  21
TORSDOF 10
ENDMDL
MODEL 7
REMARK VINA RESULT:      -5.8      2.687      5.793
REMARK  10 active torsions:
REMARK  status: ('A' for Active; 'I' for Inactive)
REMARK    1  A    between atoms: O_1  and  C_8 
REMARK    2  A    between atoms: O_1  and  C_19 
REMARK    3  A    between atoms: C_5  and  C_19 
REMARK       I    between atoms: C_8  and  N_10 
REMARK    4  A    between atoms: C_11  and  N_10 
REMARK    5  A    between atoms: C_11  and  C_12 
REMARK    6  A    between atoms: C_11  and  C_20 
REMARK    7  A    between atoms: C_12  and  C_13 
REMARK    8  A    between atoms: C_20  and  O_21 
REMARK    9  A    between atoms: C_20  and  C_22 
REMARK   10  A    between atoms: C_22  and  O_24 
ROOT
HETATM    1  C   UNK N   1      28.604  17.851   5.946  0.00  0.00     0.130 C 
ENDROOT
BRANCH   1   2
HETATM    2  N   UNK N   1      27.812  17.762   7.160  0.00  0.00    -0.329 N 
HETATM    3  C   UNK N   1      28.372  17.769   8.395  0.00  0.00     0.361 C 
HETATM    4  O   UNK N   1      27.657  17.691   9.382  0.00  0.00    -0.238 OA
HETATM    5  H   UNK N   1      26.832  17.695   7.083  0.00  0.00     0.165 HD
BRANCH   3   6
HETATM    6  O   UNK N   1      29.721  17.884   8.523  0.00  0.00    -0.299 OA
BRANCH   6   7
HETATM    7  C   UNK N   1      30.544  16.916   9.061  0.00  0.00     0.219 C 
BRANCH   7   8
HETATM    8  C   UNK N   1      31.858  16.851   8.351  0.00  0.00    -0.034 A 
HETATM    9  C   UNK N   1      32.596  18.018   8.113  0.00  0.00     0.009 A 
HETATM   10  C   UNK N   1      33.819  17.949   7.439  0.00  0.00     0.001 A 
HETATM   11  C   UNK N   1      34.299  16.715   6.988  0.00  0.00     0.000 A 
HETATM   12  C   UNK N   1      33.558  15.551   7.215  0.00  0.00     0.001 A 
HETATM   13  C   UNK N   1      32.341  15.619   7.901  0.00  0.00     0.009 A 
ENDBRANCH   7   8
ENDBRANCH   6   7
ENDBRANCH   3   6
ENDBRANCH   1   2
BRANCH   1  14
HETATM   14  C   UNK N   1      29.224  16.482   5.595  0.00  0.00     0.067 C 
BRANCH  14  15
HETATM   15  C   UNK N   1      30.497  16.473   4.807  0.00  0.00    -0.056 A 
HETATM   16  C   UNK N   1      31.228  17.653   4.625  0.00  0.00     0.007 A 
HETATM   17  C   UNK N   1      32.468  17.619   3.978  0.00  0.00     0.001 A 
HETATM   18  C   UNK N   1      32.987  16.403   3.525  0.00  0.00     0.000 A 
HETATM   19  C   UNK N   1      32.265  15.221   3.716  0.00  0.00     0.001 A 
HETATM   20  C   UNK N   1      31.026  15.255   4.365  0.00  0.00     0.007 A 
ENDBRANCH  14  15
ENDBRANCH   1  14
BRANCH   1  21
HETATM   21  C   UNK N   1      27.769  18.472   4.803  0.00  0.00     0.238 C 
BRANCH  21  22
HETATM   22  O   UNK N   1      28.357  19.672   4.394  0.00  0.00    -0.383 OA
HETATM   23  H   UNK N   1      28.785  20.152   3.668  0.00  0.00     0.210 HD
ENDBRANCH  21  22
BRANCH  21  24
HETATM   24  C   UNK N   1      26.342  18.767   5.214  0.00  0.00     0.171 C 
HETATM   25  O   UNK N   1      25.432  18.004   4.927  0.00  0.00    -0.648 OA
BRANCH  24  26
HETATM   26  O   UNK N   1      26.074  19.874   5.932  0.00  0.00    -0.774 OA
HETATM   27  H   UNK N   1      26.694  20.568   6.038  0.00  0.00     0.167 HD
ENDBRANCH  24  26
ENDBRANCH  21  24
ENDBRANCH   1  21
TORSDOF 10
ENDMDL
MODEL 8
REMARK VINA RESULT:      -5.8      1.887      2.994
REMARK  10 active torsions:
REMARK  status: ('A' for Active; 'I' for Inactive)
REMARK    1  A    between atoms: O_1  and  C_8 
REMARK    2  A    between atoms: O_1  and  C_19 
REMARK    3  A    between atoms: C_5  and  C_19 
REMARK       I    between atoms: C_8  and  N_10 
REMARK    4  A    between atoms: C_11  and  N_10 
REMARK    5  A    between atoms: C_11  and  C_12 
REMARK    6  A    between atoms: C_11  and  C_20 
REMARK    7  A    between atoms: C_12  and  C_13 
REMARK    8  A    between atoms: C_20  and  O_21 
REMARK    9  A    between atoms: C_20  and  C_22 
REMARK   10  A    between atoms: C_22  and  O_24 
ROOT
HETATM    1  C   UNK N   1      31.910  17.125   8.059  0.00  0.00     0.130 C 
ENDROOT
BRANCH   1   2
HETATM    2  N   UNK N   1      31.376  18.088   9.006  0.00  0.00    -0.329 N 
HETATM    3  C   UNK N   1      30.073  18.092   9.382  0.00  0.00     0.361 C 
HETATM    4  O   UNK N   1      29.679  18.927  10.182  0.00  0.00    -0.238 OA
HETATM    5  H   UNK N   1      31.983  18.763   9.389  0.00  0.00     0.165 HD
BRANCH   3   6
HETATM    6  O   UNK N   1      29.224  17.154   8.883  0.00  0.00    -0.299 OA
BRANCH   6   7
HETATM    7  C   UNK N   1      27.932  17.406   8.470  0.00  0.00     0.219 C 
BRANCH   7   8
HETATM    8  C   UNK N   1      27.838  17.505   6.980  0.00  0.00    -0.034 A 
HETATM    9  C   UNK N   1      28.198  18.688   6.322  0.00  0.00     0.009 A 
HETATM   10  C   UNK N   1      28.096  18.775   4.930  0.00  0.00     0.001 A 
HETATM   11  C   UNK N   1      27.620  17.684   4.196  0.00  0.00     0.000 A 
HETATM   12  C   UNK N   1      27.251  16.506   4.852  0.00  0.00     0.001 A 
HETATM   13  C   UNK N   1      27.365  16.415   6.243  0.00  0.00     0.009 A 
ENDBRANCH   7   8
ENDBRANCH   6   7
ENDBRANCH   3   6
ENDBRANCH   1   2
BRANCH   1  14
HETATM   14  C   UNK N   1      31.585  17.542   6.610  0.00  0.00     0.067 C 
BRANCH  14  15
HETATM   15  C   UNK N   1      31.200  16.467   5.642  0.00  0.00    -0.056 A 
HETATM   16  C   UNK N   1      30.744  15.226   6.104  0.00  0.00     0.007 A 
HETATM   17  C   UNK N   1      30.288  14.263   5.197  0.00  0.00     0.001 A 
HETATM   18  C   UNK N   1      30.273  14.544   3.828  0.00  0.00     0.000 A 
HETATM   19  C   UNK N   1      30.717  15.786   3.365  0.00  0.00     0.001 A 
HETATM   20  C   UNK N   1      31.170  16.750   4.272  0.00  0.00     0.007 A 
ENDBRANCH  14  15
ENDBRANCH   1  14
BRANCH   1  21
HETATM   21  C   UNK N   1      33.415  16.890   8.321  0.00  0.00     0.238 C 
BRANCH  21  22
HETATM   22  O   UNK N   1      33.664  16.942   9.695  0.00  0.00    -0.383 OA
HETATM   23  H   UNK N   1      34.235  16.646  10.422  0.00  0.00     0.210 HD
ENDBRANCH  21  22
BRANCH  21  24
HETATM   24  C   UNK N   1      34.295  17.923   7.649  0.00  0.00     0.171 C 
HETATM   25  O   UNK N   1      34.641  17.794   6.484  0.00  0.00    -0.648 OA
BRANCH  24  26
HETATM   26  O   UNK N   1      34.678  19.016   8.335  0.00  0.00    -0.774 OA
HETATM   27  H   UNK N   1      34.978  19.796   7.913  0.00  0.00     0.167 HD
ENDBRANCH  24  26
ENDBRANCH  21  24
ENDBRANCH   1  21
TORSDOF 10
ENDMDL
MODEL 9
REMARK VINA RESULT:      -5.8      6.295     10.066
REMARK  10 active torsions:
REMARK  status: ('A' for Active; 'I' for Inactive)
REMARK    1  A    between atoms: O_1  and  C_8 
REMARK    2  A    between atoms: O_1  and  C_19 
REMARK    3  A    between atoms: C_5  and  C_19 
REMARK       I    between atoms: C_8  and  N_10 
REMARK    4  A    between atoms: C_11  and  N_10 
REMARK    5  A    between atoms: C_11  and  C_12 
REMARK    6  A    between atoms: C_11  and  C_20 
REMARK    7  A    between atoms: C_12  and  C_13 
REMARK    8  A    between atoms: C_20  and  O_21 
REMARK    9  A    between atoms: C_20  and  C_22 
REMARK   10  A    between atoms: C_22  and  O_24 
ROOT
HETATM    1  C   UNK N   1      35.469  13.927  11.941  0.00  0.00     0.130 C 
ENDROOT
BRANCH   1   2
HETATM    2  N   UNK N   1      36.038  13.450  10.693  0.00  0.00    -0.329 N 
HETATM    3  C   UNK N   1      36.033  12.139  10.346  0.00  0.00     0.361 C 
HETATM    4  O   UNK N   1      36.527  11.795   9.283  0.00  0.00    -0.238 OA
HETATM    5  H   UNK N   1      36.441  14.103  10.075  0.00  0.00     0.165 HD
BRANCH   3   6
HETATM    6  O   UNK N   1      35.460  11.225  11.174  0.00  0.00    -0.299 OA
BRANCH   6   7
HETATM    7  C   UNK N   1      36.033  10.021  11.529  0.00  0.00     0.219 C 
BRANCH   7   8
HETATM    8  C   UNK N   1      36.317   9.956  12.996  0.00  0.00    -0.034 A 
HETATM    9  C   UNK N   1      35.365   9.431  13.881  0.00  0.00     0.009 A 
HETATM   10  C   UNK N   1      35.635   9.385  15.252  0.00  0.00     0.001 A 
HETATM   11  C   UNK N   1      36.849   9.876  15.743  0.00  0.00     0.000 A 
HETATM   12  C   UNK N   1      37.795  10.409  14.861  0.00  0.00     0.001 A 
HETATM   13  C   UNK N   1      37.530  10.445  13.489  0.00  0.00     0.009 A 
ENDBRANCH   7   8
ENDBRANCH   6   7
ENDBRANCH   3   6
ENDBRANCH   1   2
BRANCH   1  14
HETATM   14  C   UNK N   1      36.533  13.937  13.060  0.00  0.00     0.067 C 
BRANCH  14  15
HETATM   15  C   UNK N   1      36.081  13.643  14.456  0.00  0.00    -0.056 A 
HETATM   16  C   UNK N   1      36.776  14.167  15.553  0.00  0.00     0.007 A 
HETATM   17  C   UNK N   1      36.289  13.975  16.850  0.00  0.00     0.001 A 
HETATM   18  C   UNK N   1      35.098  13.272  17.053  0.00  0.00     0.000 A 
HETATM   19  C   UNK N   1      34.397  12.757  15.959  0.00  0.00     0.001 A 
HETATM   20  C   UNK N   1      34.882  12.952  14.662  0.00  0.00     0.007 A 
ENDBRANCH  14  15
ENDBRANCH   1  14
BRANCH   1  21
HETATM   21  C   UNK N   1      34.771  15.289  11.729  0.00  0.00     0.238 C 
BRANCH  21  22
HETATM   22  O   UNK N   1      33.532  15.089  11.116  0.00  0.00    -0.383 OA
HETATM   23  H   UNK N   1      33.040  15.070  10.280  0.00  0.00     0.210 HD
ENDBRANCH  21  22
BRANCH  21  24
HETATM   24  C   UNK N   1      35.575  16.231  10.858  0.00  0.00     0.171 C 
HETATM   25  O   UNK N   1      35.030  17.109  10.207  0.00  0.00    -0.648 OA
BRANCH  24  26
HETATM   26  O   UNK N   1      36.917  16.119  10.822  0.00  0.00    -0.774 OA
HETATM   27  H   UNK N   1      37.366  15.659  10.141  0.00  0.00     0.167 HD
ENDBRANCH  24  26
ENDBRANCH  21  24
ENDBRANCH   1  21
TORSDOF 10
ENDMDL
