REMARK  6 active torsions:
REMARK  status: ('A' for Active; 'I' for Inactive)
REMARK    1  A    between atoms: N_1  and  C_4 
REMARK       I    between atoms: N_1  and  C_5 
REMARK    2  A    between atoms: C_8  and  N_22 
REMARK    3  A    between atoms: C_9  and  N_22 
REMARK    4  A    between atoms: C_14  and  O_34 
REMARK    5  A    between atoms: O_17  and  C_18 
REMARK    6  A    between atoms: C_32  and  O_33 
ROOT
HETATM    1  N   UNK N   1       2.294  -0.984  -0.386  0.00  0.00    -0.191 N 
HETATM    2  N   UNK N   1       1.214   1.162  -0.065  0.00  0.00    -0.176 N 
ATOM      3  HN  UNK N   1       2.006   1.619  -0.516  1.00  0.00     0.186 HD
HETATM    4  C   UNK N   1       1.210  -0.195   0.092  0.00  0.00     0.684 A 
HETATM    5  C   UNK N   1      -0.870  -0.092   1.219  0.00  0.00     0.110 A 
HETATM    6  C   UNK N   1      -0.899   1.272   1.042  0.00  0.00     0.067 A 
HETATM    7  C   UNK N   1       0.159   1.911   0.380  0.00  0.00     0.124 A 
HETATM    8  N   UNK N   1       0.173  -0.795   0.741  0.00  0.00    -0.202 N 
ATOM      9  HN  UNK N   1       0.188  -1.807   0.868  1.00  0.00     0.183 HD
HETATM   10  H   UNK N   1       3.082  -0.530  -0.763  0.00  0.00     0.184 HD
ENDROOT
BRANCH   1  11
HETATM   11  C   UNK N   1       2.279  -2.411  -0.338  0.00  0.00     0.054 A 
HETATM   12  C   UNK N   1       3.478  -3.117  -0.324  0.00  0.00     0.069 A 
HETATM   13  C   UNK N   1       3.491  -4.517  -0.159  0.00  0.00     0.106 A 
HETATM   14  C   UNK N   1       2.258  -5.219  -0.016  0.00  0.00     0.135 A 
HETATM   15  C   UNK N   1       1.052  -4.503  -0.062  0.00  0.00     0.106 A 
HETATM   16  C   UNK N   1       1.077  -3.117  -0.221  0.00  0.00     0.069 A 
BRANCH  13  17
HETATM   17  O   UNK N   1       4.668  -5.187  -0.120  0.00  0.00    -0.353 OA
HETATM   18  C   UNK N   1       5.896  -4.570  -0.209  0.00  0.00     0.210 C 
ENDBRANCH  13  17
BRANCH  14  19
HETATM   19  O   UNK N   1       2.182  -6.564   0.176  0.00  0.00    -0.351 OA
HETATM   20  C   UNK N   1       3.250  -7.415   0.334  0.00  0.00     0.210 C 
ENDBRANCH  14  19
BRANCH  15  21
HETATM   21  O   UNK N   1      -0.124  -5.165   0.076  0.00  0.00    -0.353 OA
HETATM   22  C   UNK N   1      -1.350  -4.536   0.085  0.00  0.00     0.210 C 
ENDBRANCH  15  21
ENDBRANCH   1  11
BRANCH   7  23
HETATM   23  N   UNK N   1       0.122   3.331   0.182  0.00  0.00    -0.337 N 
HETATM   24  C   UNK N   1       1.359   4.047  -0.025  0.00  0.00     0.158 C 
BRANCH  23  25
HETATM   25  C   UNK N   1      -1.130   4.040   0.145  0.00  0.00     0.037 A 
HETATM   26  C   UNK N   1      -2.335   3.329  -0.069  0.00  0.00     0.061 A 
HETATM   27  C   UNK N   1      -3.521   4.023  -0.125  0.00  0.00     0.062 A 
HETATM   28  C   UNK N   1      -3.577   5.371   0.018  0.00  0.00     0.016 A 
HETATM   29  N   UNK N   1      -4.754   3.523  -0.315  0.00  0.00    -0.300 N 
HETATM   30  C   UNK N   1      -2.426   6.136   0.219  0.00  0.00     0.018 A 
HETATM   31  C   UNK N   1      -4.911   5.682  -0.085  0.00  0.00     0.034 A 
HETATM   32  C   UNK N   1      -1.186   5.457   0.269  0.00  0.00     0.031 A 
HETATM   33  C   UNK N   1      -5.528   7.031   0.009  0.00  0.00     0.070 C 
HETATM   34  N   UNK N   1      -5.609   4.540  -0.290  0.00  0.00    -0.304 N 
ATOM     35  HN  UNK N   1      -6.620   4.472  -0.406  1.00  0.00     0.186 HD
HETATM   36  H   UNK N   1      -4.982   2.575  -0.447  0.00  0.00     0.187 HD
ENDBRANCH  23  25
ENDBRANCH   7  23
TORSDOF 6
