MODEL 1
REMARK VINA RESULT:      -7.9      0.000      0.000
REMARK  6 active torsions:
REMARK  status: ('A' for Active; 'I' for Inactive)
REMARK    1  A    between atoms: N_1  and  C_4 
REMARK       I    between atoms: N_1  and  C_5 
REMARK    2  A    between atoms: C_8  and  N_22 
REMARK    3  A    between atoms: C_9  and  N_22 
REMARK    4  A    between atoms: C_14  and  O_34 
REMARK    5  A    between atoms: O_17  and  C_18 
REMARK    6  A    between atoms: C_32  and  O_33 
ROOT
HETATM    1  N   UNK N   1      32.427  14.723   9.606  0.00  0.00    -0.191 N 
HETATM    2  N   UNK N   1      34.301  14.202  11.052  0.00  0.00    -0.176 N 
ATOM      3  HN  UNK N   1      33.863  13.312  11.286  1.00  0.00     0.186 HD
HETATM    4  C   UNK N   1      33.677  15.063  10.194  0.00  0.00     0.684 A 
HETATM    5  C   UNK N   1      35.419  16.645  10.464  0.00  0.00     0.110 A 
HETATM    6  C   UNK N   1      36.077  15.778  11.305  0.00  0.00     0.067 A 
HETATM    7  C   UNK N   1      35.512  14.529  11.598  0.00  0.00     0.124 A 
HETATM    8  N   UNK N   1      34.243  16.273   9.925  0.00  0.00    -0.202 N 
ATOM      9  HN  UNK N   1      33.761  16.916   9.297  1.00  0.00     0.183 HD
HETATM   10  H   UNK N   1      31.981  13.891   9.885  0.00  0.00     0.184 HD
ENDROOT
BRANCH   1  11
HETATM   11  C   UNK N   1      31.796  15.546   8.624  0.00  0.00     0.054 A 
HETATM   12  C   UNK N   1      31.997  15.290   7.271  0.00  0.00     0.069 A 
HETATM   13  C   UNK N   1      31.294  16.013   6.286  0.00  0.00     0.106 A 
HETATM   14  C   UNK N   1      30.373  17.027   6.682  0.00  0.00     0.135 A 
HETATM   15  C   UNK N   1      30.199  17.299   8.048  0.00  0.00     0.106 A 
HETATM   16  C   UNK N   1      30.907  16.560   8.996  0.00  0.00     0.069 A 
BRANCH  13  17
HETATM   17  O   UNK N   1      31.481  15.733   4.974  0.00  0.00    -0.353 OA
HETATM   18  C   UNK N   1      32.570  16.170   4.252  0.00  0.00     0.210 C 
ENDBRANCH  13  17
BRANCH  14  19
HETATM   19  O   UNK N   1      29.634  17.751   5.799  0.00  0.00    -0.351 OA
HETATM   20  C   UNK N   1      28.438  17.361   5.242  0.00  0.00     0.210 C 
ENDBRANCH  14  19
BRANCH  15  21
HETATM   21  O   UNK N   1      29.322  18.261   8.431  0.00  0.00    -0.353 OA
HETATM   22  C   UNK N   1      28.174  17.997   9.146  0.00  0.00     0.210 C 
ENDBRANCH  15  21
ENDBRANCH   1  11
BRANCH   7  23
HETATM   23  N   UNK N   1      36.206  13.618  12.463  0.00  0.00    -0.337 N 
HETATM   24  C   UNK N   1      37.167  12.701  11.896  0.00  0.00     0.158 C 
BRANCH  23  25
HETATM   25  C   UNK N   1      35.986  13.637  13.885  0.00  0.00     0.037 A 
HETATM   26  C   UNK N   1      36.639  14.605  14.685  0.00  0.00     0.061 A 
HETATM   27  C   UNK N   1      36.438  14.596  16.045  0.00  0.00     0.062 A 
HETATM   28  C   UNK N   1      35.632  13.687  16.650  0.00  0.00     0.016 A 
HETATM   29  N   UNK N   1      36.964  15.432  16.956  0.00  0.00    -0.300 N 
HETATM   30  C   UNK N   1      34.968  12.697  15.924  0.00  0.00     0.018 A 
HETATM   31  C   UNK N   1      35.680  14.007  17.985  0.00  0.00     0.034 A 
HETATM   32  C   UNK N   1      35.162  12.667  14.523  0.00  0.00     0.031 A 
HETATM   33  C   UNK N   1      34.966  13.327  19.097  0.00  0.00     0.070 C 
HETATM   34  N   UNK N   1      36.500  15.073  18.148  0.00  0.00    -0.304 N 
ATOM     35  HN  UNK N   1      36.723  15.523  19.036  1.00  0.00     0.186 HD
HETATM   36  H   UNK N   1      37.581  16.177  16.773  0.00  0.00     0.187 HD
ENDBRANCH  23  25
ENDBRANCH   7  23
TORSDOF 6
ENDMDL
MODEL 2
REMARK VINA RESULT:      -7.7      0.473      2.333
REMARK  6 active torsions:
REMARK  status: ('A' for Active; 'I' for Inactive)
REMARK    1  A    between atoms: N_1  and  C_4 
REMARK       I    between atoms: N_1  and  C_5 
REMARK    2  A    between atoms: C_8  and  N_22 
REMARK    3  A    between atoms: C_9  and  N_22 
REMARK    4  A    between atoms: C_14  and  O_34 
REMARK    5  A    between atoms: O_17  and  C_18 
REMARK    6  A    between atoms: C_32  and  O_33 
ROOT
HETATM    1  N   UNK N   1      32.568  14.444   9.460  0.00  0.00    -0.191 N 
HETATM    2  N   UNK N   1      34.400  14.054  10.998  0.00  0.00    -0.176 N 
ATOM      3  HN  UNK N   1      34.030  13.123  11.190  1.00  0.00     0.186 HD
HETATM    4  C   UNK N   1      33.750  14.878  10.124  0.00  0.00     0.684 A 
HETATM    5  C   UNK N   1      35.328  16.598  10.520  0.00  0.00     0.110 A 
HETATM    6  C   UNK N   1      36.014  15.772  11.379  0.00  0.00     0.067 A 
HETATM    7  C   UNK N   1      35.546  14.471  11.617  0.00  0.00     0.124 A 
HETATM    8  N   UNK N   1      34.220  16.139   9.910  0.00  0.00    -0.202 N 
ATOM      9  HN  UNK N   1      33.717  16.752   9.268  1.00  0.00     0.183 HD
HETATM   10  H   UNK N   1      32.183  13.570   9.698  0.00  0.00     0.184 HD
ENDROOT
BRANCH   1  11
HETATM   11  C   UNK N   1      31.920  15.232   8.461  0.00  0.00     0.054 A 
HETATM   12  C   UNK N   1      31.116  16.304   8.836  0.00  0.00     0.069 A 
HETATM   13  C   UNK N   1      30.562  17.166   7.868  0.00  0.00     0.106 A 
HETATM   14  C   UNK N   1      30.820  16.929   6.486  0.00  0.00     0.135 A 
HETATM   15  C   UNK N   1      31.607  15.828   6.115  0.00  0.00     0.106 A 
HETATM   16  C   UNK N   1      32.144  14.999   7.100  0.00  0.00     0.069 A 
BRANCH  13  17
HETATM   17  O   UNK N   1      29.804  18.222   8.251  0.00  0.00    -0.353 OA
HETATM   18  C   UNK N   1      29.793  18.723   9.534  0.00  0.00     0.210 C 
ENDBRANCH  13  17
BRANCH  14  19
HETATM   19  O   UNK N   1      30.349  17.728   5.490  0.00  0.00    -0.351 OA
HETATM   20  C   UNK N   1      29.084  17.683   4.954  0.00  0.00     0.210 C 
ENDBRANCH  14  19
BRANCH  15  21
HETATM   21  O   UNK N   1      31.858  15.598   4.801  0.00  0.00    -0.353 OA
HETATM   22  C   UNK N   1      33.129  15.560   4.269  0.00  0.00     0.210 C 
ENDBRANCH  15  21
ENDBRANCH   1  11
BRANCH   7  23
HETATM   23  N   UNK N   1      36.270  13.604  12.501  0.00  0.00    -0.337 N 
HETATM   24  C   UNK N   1      37.279  12.725  11.958  0.00  0.00     0.158 C 
BRANCH  23  25
HETATM   25  C   UNK N   1      36.033  13.631  13.921  0.00  0.00     0.037 A 
HETATM   26  C   UNK N   1      36.669  14.609  14.722  0.00  0.00     0.061 A 
HETATM   27  C   UNK N   1      36.450  14.608  16.080  0.00  0.00     0.062 A 
HETATM   28  C   UNK N   1      35.644  13.697  16.681  0.00  0.00     0.016 A 
HETATM   29  N   UNK N   1      36.960  15.453  16.992  0.00  0.00    -0.300 N 
HETATM   30  C   UNK N   1      34.995  12.697  15.953  0.00  0.00     0.018 A 
HETATM   31  C   UNK N   1      35.673  14.026  18.015  0.00  0.00     0.034 A 
HETATM   32  C   UNK N   1      35.207  12.660  14.555  0.00  0.00     0.031 A 
HETATM   33  C   UNK N   1      34.949  13.348  19.122  0.00  0.00     0.070 C 
HETATM   34  N   UNK N   1      36.483  15.098  18.180  0.00  0.00    -0.304 N 
ATOM     35  HN  UNK N   1      36.693  15.555  19.068  1.00  0.00     0.186 HD
HETATM   36  H   UNK N   1      37.574  16.200  16.812  0.00  0.00     0.187 HD
ENDBRANCH  23  25
ENDBRANCH   7  23
TORSDOF 6
ENDMDL
MODEL 3
REMARK VINA RESULT:      -7.6      4.207     10.026
REMARK  6 active torsions:
REMARK  status: ('A' for Active; 'I' for Inactive)
REMARK    1  A    between atoms: N_1  and  C_4 
REMARK       I    between atoms: N_1  and  C_5 
REMARK    2  A    between atoms: C_8  and  N_22 
REMARK    3  A    between atoms: C_9  and  N_22 
REMARK    4  A    between atoms: C_14  and  O_34 
REMARK    5  A    between atoms: O_17  and  C_18 
REMARK    6  A    between atoms: C_32  and  O_33 
ROOT
HETATM    1  N   UNK N   1      35.819  15.274  12.033  0.00  0.00    -0.191 N 
HETATM    2  N   UNK N   1      34.507  16.310  10.278  0.00  0.00    -0.176 N 
ATOM      3  HN  UNK N   1      34.925  17.211  10.509  1.00  0.00     0.186 HD
HETATM    4  C   UNK N   1      34.858  15.196  10.986  0.00  0.00     0.684 A 
HETATM    5  C   UNK N   1      33.339  13.881   9.734  0.00  0.00     0.110 A 
HETATM    6  C   UNK N   1      32.996  14.986   8.989  0.00  0.00     0.067 A 
HETATM    7  C   UNK N   1      33.597  16.223   9.260  0.00  0.00     0.124 A 
HETATM    8  N   UNK N   1      34.259  14.005  10.707  0.00  0.00    -0.202 N 
ATOM      9  HN  UNK N   1      34.516  13.182  11.253  1.00  0.00     0.183 HD
HETATM   10  H   UNK N   1      36.170  16.157  12.291  0.00  0.00     0.184 HD
ENDROOT
BRANCH   1  11
HETATM   11  C   UNK N   1      36.292  14.117  12.724  0.00  0.00     0.054 A 
HETATM   12  C   UNK N   1      36.027  13.963  14.081  0.00  0.00     0.069 A 
HETATM   13  C   UNK N   1      36.380  12.778  14.757  0.00  0.00     0.106 A 
HETATM   14  C   UNK N   1      37.029  11.728  14.041  0.00  0.00     0.135 A 
HETATM   15  C   UNK N   1      37.320  11.904  12.680  0.00  0.00     0.106 A 
HETATM   16  C   UNK N   1      36.950  13.089  12.042  0.00  0.00     0.069 A 
BRANCH  13  17
HETATM   17  O   UNK N   1      36.091  12.631  16.072  0.00  0.00    -0.353 OA
HETATM   18  C   UNK N   1      34.964  13.157  16.664  0.00  0.00     0.210 C 
ENDBRANCH  13  17
BRANCH  14  19
HETATM   19  O   UNK N   1      37.378  10.542  14.609  0.00  0.00    -0.351 OA
HETATM   20  C   UNK N   1      36.544   9.466  14.801  0.00  0.00     0.210 C 
ENDBRANCH  14  19
BRANCH  15  21
HETATM   21  O   UNK N   1      37.935  10.908  11.994  0.00  0.00    -0.353 OA
HETATM   22  C   UNK N   1      37.296  10.134  11.049  0.00  0.00     0.210 C 
ENDBRANCH  15  21
ENDBRANCH   1  11
BRANCH   7  23
HETATM   23  N   UNK N   1      33.251  17.371   8.474  0.00  0.00    -0.337 N 
HETATM   24  C   UNK N   1      34.282  18.317   8.115  0.00  0.00     0.158 C 
BRANCH  23  25
HETATM   25  C   UNK N   1      31.904  17.569   8.007  0.00  0.00     0.037 A 
HETATM   26  C   UNK N   1      30.923  18.088   8.885  0.00  0.00     0.061 A 
HETATM   27  C   UNK N   1      29.635  18.249   8.431  0.00  0.00     0.062 A 
HETATM   28  C   UNK N   1      29.270  17.926   7.165  0.00  0.00     0.016 A 
HETATM   29  N   UNK N   1      28.580  18.727   9.113  0.00  0.00    -0.300 N 
HETATM   30  C   UNK N   1      30.183  17.397   6.250  0.00  0.00     0.018 A 
HETATM   31  C   UNK N   1      27.933  18.236   7.093  0.00  0.00     0.034 A 
HETATM   32  C   UNK N   1      31.515  17.205   6.686  0.00  0.00     0.031 A 
HETATM   33  C   UNK N   1      27.039  18.083   5.916  0.00  0.00     0.070 C 
HETATM   34  N   UNK N   1      27.534  18.720   8.293  0.00  0.00    -0.304 N 
ATOM     35  HN  UNK N   1      26.591  19.027   8.528  1.00  0.00     0.186 HD
HETATM   36  H   UNK N   1      28.583  19.028  10.049  0.00  0.00     0.187 HD
ENDBRANCH  23  25
ENDBRANCH   7  23
TORSDOF 6
ENDMDL
MODEL 4
REMARK VINA RESULT:      -7.5      4.259      9.845
REMARK  6 active torsions:
REMARK  status: ('A' for Active; 'I' for Inactive)
REMARK    1  A    between atoms: N_1  and  C_4 
REMARK       I    between atoms: N_1  and  C_5 
REMARK    2  A    between atoms: C_8  and  N_22 
REMARK    3  A    between atoms: C_9  and  N_22 
REMARK    4  A    between atoms: C_14  and  O_34 
REMARK    5  A    between atoms: O_17  and  C_18 
REMARK    6  A    between atoms: C_32  and  O_33 
ROOT
HETATM    1  N   UNK N   1      35.448  15.098  12.110  0.00  0.00    -0.191 N 
HETATM    2  N   UNK N   1      34.291  16.171  10.271  0.00  0.00    -0.176 N 
ATOM      3  HN  UNK N   1      34.625  17.076  10.600  1.00  0.00     0.186 HD
HETATM    4  C   UNK N   1      34.623  15.035  10.952  0.00  0.00     0.684 A 
HETATM    5  C   UNK N   1      33.340  13.722   9.455  0.00  0.00     0.110 A 
HETATM    6  C   UNK N   1      33.022  14.852   8.737  0.00  0.00     0.067 A 
HETATM    7  C   UNK N   1      33.513  16.099   9.147  0.00  0.00     0.124 A 
HETATM    8  N   UNK N   1      34.132  13.833  10.538  0.00  0.00    -0.202 N 
ATOM      9  HN  UNK N   1      34.371  12.993  11.064  1.00  0.00     0.183 HD
HETATM   10  H   UNK N   1      35.714  15.980  12.457  0.00  0.00     0.184 HD
ENDROOT
BRANCH   1  11
HETATM   11  C   UNK N   1      35.905  13.926  12.787  0.00  0.00     0.054 A 
HETATM   12  C   UNK N   1      36.642  12.969  12.097  0.00  0.00     0.069 A 
HETATM   13  C   UNK N   1      37.202  11.864  12.769  0.00  0.00     0.106 A 
HETATM   14  C   UNK N   1      37.001  11.720  14.173  0.00  0.00     0.135 A 
HETATM   15  C   UNK N   1      36.231  12.674  14.857  0.00  0.00     0.106 A 
HETATM   16  C   UNK N   1      35.696  13.758  14.160  0.00  0.00     0.069 A 
BRANCH  13  17
HETATM   17  O   UNK N   1      37.940  10.955  12.087  0.00  0.00    -0.353 OA
HETATM   18  C   UNK N   1      37.393   9.999  11.261  0.00  0.00     0.210 C 
ENDBRANCH  13  17
BRANCH  14  19
HETATM   19  O   UNK N   1      37.530  10.701  14.903  0.00  0.00    -0.351 OA
HETATM   20  C   UNK N   1      36.982   9.449  15.050  0.00  0.00     0.210 C 
ENDBRANCH  14  19
BRANCH  15  21
HETATM   21  O   UNK N   1      36.038  12.544  16.193  0.00  0.00    -0.353 OA
HETATM   22  C   UNK N   1      34.966  13.095  16.860  0.00  0.00     0.210 C 
ENDBRANCH  15  21
ENDBRANCH   1  11
BRANCH   7  23
HETATM   23  N   UNK N   1      33.194  17.275   8.390  0.00  0.00    -0.337 N 
HETATM   24  C   UNK N   1      34.247  18.201   8.048  0.00  0.00     0.158 C 
BRANCH  23  25
HETATM   25  C   UNK N   1      31.851  17.519   7.935  0.00  0.00     0.037 A 
HETATM   26  C   UNK N   1      30.892  18.057   8.826  0.00  0.00     0.061 A 
HETATM   27  C   UNK N   1      29.607  18.263   8.383  0.00  0.00     0.062 A 
HETATM   28  C   UNK N   1      29.223  17.966   7.116  0.00  0.00     0.016 A 
HETATM   29  N   UNK N   1      28.571  18.765   9.078  0.00  0.00    -0.300 N 
HETATM   30  C   UNK N   1      30.113  17.420   6.188  0.00  0.00     0.018 A 
HETATM   31  C   UNK N   1      27.896  18.317   7.057  0.00  0.00     0.034 A 
HETATM   32  C   UNK N   1      31.441  17.183   6.613  0.00  0.00     0.031 A 
HETATM   33  C   UNK N   1      26.989  18.205   5.885  0.00  0.00     0.070 C 
HETATM   34  N   UNK N   1      27.520  18.799   8.265  0.00  0.00    -0.304 N 
ATOM     35  HN  UNK N   1      26.588  19.132   8.510  1.00  0.00     0.186 HD
HETATM   36  H   UNK N   1      28.589  19.055  10.018  0.00  0.00     0.187 HD
ENDBRANCH  23  25
ENDBRANCH   7  23
TORSDOF 6
ENDMDL
MODEL 5
REMARK VINA RESULT:      -7.4      2.342      3.181
REMARK  6 active torsions:
REMARK  status: ('A' for Active; 'I' for Inactive)
REMARK    1  A    between atoms: N_1  and  C_4 
REMARK       I    between atoms: N_1  and  C_5 
REMARK    2  A    between atoms: C_8  and  N_22 
REMARK    3  A    between atoms: C_9  and  N_22 
REMARK    4  A    between atoms: C_14  and  O_34 
REMARK    5  A    between atoms: O_17  and  C_18 
REMARK    6  A    between atoms: C_32  and  O_33 
ROOT
HETATM    1  N   UNK N   1      33.883  13.544  10.072  0.00  0.00    -0.191 N 
HETATM    2  N   UNK N   1      34.594  12.322  12.041  0.00  0.00    -0.176 N 
ATOM      3  HN  UNK N   1      33.930  11.584  11.812  1.00  0.00     0.186 HD
HETATM    4  C   UNK N   1      34.689  13.424  11.239  0.00  0.00     0.684 A 
HETATM    5  C   UNK N   1      36.318  14.369  12.674  0.00  0.00     0.110 A 
HETATM    6  C   UNK N   1      36.260  13.253  13.477  0.00  0.00     0.067 A 
HETATM    7  C   UNK N   1      35.387  12.206  13.150  0.00  0.00     0.124 A 
HETATM    8  N   UNK N   1      35.542  14.432  11.577  0.00  0.00    -0.202 N 
ATOM      9  HN  UNK N   1      35.593  15.257  10.981  1.00  0.00     0.183 HD
HETATM   10  H   UNK N   1      33.201  12.858   9.893  0.00  0.00     0.184 HD
ENDROOT
BRANCH   1  11
HETATM   11  C   UNK N   1      34.028  14.626   9.152  0.00  0.00     0.054 A 
HETATM   12  C   UNK N   1      34.877  14.496   8.057  0.00  0.00     0.069 A 
HETATM   13  C   UNK N   1      34.948  15.503   7.073  0.00  0.00     0.106 A 
HETATM   14  C   UNK N   1      34.148  16.675   7.208  0.00  0.00     0.135 A 
HETATM   15  C   UNK N   1      33.318  16.813   8.332  0.00  0.00     0.106 A 
HETATM   16  C   UNK N   1      33.268  15.793   9.283  0.00  0.00     0.069 A 
BRANCH  13  17
HETATM   17  O   UNK N   1      35.758  15.349   5.998  0.00  0.00    -0.353 OA
HETATM   18  C   UNK N   1      35.548  14.404   5.018  0.00  0.00     0.210 C 
ENDBRANCH  13  17
BRANCH  14  19
HETATM   19  O   UNK N   1      34.134  17.681   6.292  0.00  0.00    -0.351 OA
HETATM   20  C   UNK N   1      33.375  17.713   5.146  0.00  0.00     0.210 C 
ENDBRANCH  14  19
BRANCH  15  21
HETATM   21  O   UNK N   1      32.552  17.925   8.465  0.00  0.00    -0.353 OA
HETATM   22  C   UNK N   1      31.177  17.891   8.549  0.00  0.00     0.210 C 
ENDBRANCH  15  21
ENDBRANCH   1  11
BRANCH   7  23
HETATM   23  N   UNK N   1      35.336  11.036  13.978  0.00  0.00    -0.337 N 
HETATM   24  C   UNK N   1      35.377   9.731  13.359  0.00  0.00     0.158 C 
BRANCH  23  25
HETATM   25  C   UNK N   1      35.288  11.147  15.412  0.00  0.00     0.037 A 
HETATM   26  C   UNK N   1      35.261  12.425  16.018  0.00  0.00     0.061 A 
HETATM   27  C   UNK N   1      35.239  12.515  17.391  0.00  0.00     0.062 A 
HETATM   28  C   UNK N   1      35.242  11.417  18.187  0.00  0.00     0.016 A 
HETATM   29  N   UNK N   1      35.208  13.632  18.137  0.00  0.00    -0.300 N 
HETATM   30  C   UNK N   1      35.281  10.126  17.656  0.00  0.00     0.018 A 
HETATM   31  C   UNK N   1      35.204  11.910  19.469  0.00  0.00     0.034 A 
HETATM   32  C   UNK N   1      35.318   9.995  16.248  0.00  0.00     0.031 A 
HETATM   33  C   UNK N   1      35.182  11.126  20.731  0.00  0.00     0.070 C 
HETATM   34  N   UNK N   1      35.186  13.263  19.414  0.00  0.00    -0.304 N 
ATOM     35  HN  UNK N   1      35.160  13.892  20.216  1.00  0.00     0.186 HD
HETATM   36  H   UNK N   1      35.202  14.556  17.800  0.00  0.00     0.187 HD
ENDBRANCH  23  25
ENDBRANCH   7  23
TORSDOF 6
ENDMDL
MODEL 6
REMARK VINA RESULT:      -7.3      4.408      7.811
REMARK  6 active torsions:
REMARK  status: ('A' for Active; 'I' for Inactive)
REMARK    1  A    between atoms: N_1  and  C_4 
REMARK       I    between atoms: N_1  and  C_5 
REMARK    2  A    between atoms: C_8  and  N_22 
REMARK    3  A    between atoms: C_9  and  N_22 
REMARK    4  A    between atoms: C_14  and  O_34 
REMARK    5  A    between atoms: O_17  and  C_18 
REMARK    6  A    between atoms: C_32  and  O_33 
ROOT
HETATM    1  N   UNK N   1      26.990  16.757   4.759  0.00  0.00    -0.191 N 
HETATM    2  N   UNK N   1      29.223  16.814   5.700  0.00  0.00    -0.176 N 
ATOM      3  HN  UNK N   1      29.578  16.353   4.863  1.00  0.00     0.186 HD
HETATM    4  C   UNK N   1      27.890  17.090   5.811  0.00  0.00     0.684 A 
HETATM    5  C   UNK N   1      28.221  17.985   7.978  0.00  0.00     0.110 A 
HETATM    6  C   UNK N   1      29.571  17.744   7.871  0.00  0.00     0.067 A 
HETATM    7  C   UNK N   1      30.084  17.155   6.707  0.00  0.00     0.124 A 
HETATM    8  N   UNK N   1      27.412  17.660   6.953  0.00  0.00    -0.202 N 
ATOM      9  HN  UNK N   1      26.413  17.846   7.032  1.00  0.00     0.183 HD
HETATM   10  H   UNK N   1      27.330  16.256   3.984  0.00  0.00     0.184 HD
ENDROOT
BRANCH   1  11
HETATM   11  C   UNK N   1      25.610  17.124   4.790  0.00  0.00     0.054 A 
HETATM   12  C   UNK N   1      25.198  18.322   4.215  0.00  0.00     0.069 A 
HETATM   13  C   UNK N   1      23.830  18.651   4.129  0.00  0.00     0.106 A 
HETATM   14  C   UNK N   1      22.857  17.747   4.650  0.00  0.00     0.135 A 
HETATM   15  C   UNK N   1      23.282  16.556   5.256  0.00  0.00     0.106 A 
HETATM   16  C   UNK N   1      24.645  16.260   5.318  0.00  0.00     0.069 A 
BRANCH  13  17
HETATM   17  O   UNK N   1      23.443  19.808   3.541  0.00  0.00    -0.353 OA
HETATM   18  C   UNK N   1      24.284  20.592   2.783  0.00  0.00     0.210 C 
ENDBRANCH  13  17
BRANCH  14  19
HETATM   19  O   UNK N   1      21.517  17.973   4.582  0.00  0.00    -0.351 OA
HETATM   20  C   UNK N   1      20.730  17.815   3.466  0.00  0.00     0.210 C 
ENDBRANCH  14  19
BRANCH  15  21
HETATM   21  O   UNK N   1      22.361  15.691   5.750  0.00  0.00    -0.353 OA
HETATM   22  C   UNK N   1      21.956  15.689   7.067  0.00  0.00     0.210 C 
ENDBRANCH  15  21
ENDBRANCH   1  11
BRANCH   7  23
HETATM   23  N   UNK N   1      31.494  16.918   6.589  0.00  0.00    -0.337 N 
HETATM   24  C   UNK N   1      32.168  17.265   5.360  0.00  0.00     0.158 C 
BRANCH  23  25
HETATM   25  C   UNK N   1      32.247  16.380   7.691  0.00  0.00     0.037 A 
HETATM   26  C   UNK N   1      33.158  17.207   8.391  0.00  0.00     0.061 A 
HETATM   27  C   UNK N   1      33.888  16.672   9.427  0.00  0.00     0.062 A 
HETATM   28  C   UNK N   1      33.766  15.374   9.803  0.00  0.00     0.016 A 
HETATM   29  N   UNK N   1      34.789  17.299  10.202  0.00  0.00    -0.300 N 
HETATM   30  C   UNK N   1      32.896  14.500   9.148  0.00  0.00     0.018 A 
HETATM   31  C   UNK N   1      34.633  15.229  10.858  0.00  0.00     0.034 A 
HETATM   32  C   UNK N   1      32.138  15.012   8.069  0.00  0.00     0.031 A 
HETATM   33  C   UNK N   1      34.884  13.997  11.651  0.00  0.00     0.070 C 
HETATM   34  N   UNK N   1      35.248  16.415  11.082  0.00  0.00    -0.304 N 
ATOM     35  HN  UNK N   1      35.945  16.598  11.804  1.00  0.00     0.186 HD
HETATM   36  H   UNK N   1      35.060  18.242  10.131  0.00  0.00     0.187 HD
ENDBRANCH  23  25
ENDBRANCH   7  23
TORSDOF 6
ENDMDL
MODEL 7
REMARK VINA RESULT:      -7.3      3.672      6.454
REMARK  6 active torsions:
REMARK  status: ('A' for Active; 'I' for Inactive)
REMARK    1  A    between atoms: N_1  and  C_4 
REMARK       I    between atoms: N_1  and  C_5 
REMARK    2  A    between atoms: C_8  and  N_22 
REMARK    3  A    between atoms: C_9  and  N_22 
REMARK    4  A    between atoms: C_14  and  O_34 
REMARK    5  A    between atoms: O_17  and  C_18 
REMARK    6  A    between atoms: C_32  and  O_33 
ROOT
HETATM    1  N   UNK N   1      29.312  16.832   5.958  0.00  0.00    -0.191 N 
HETATM    2  N   UNK N   1      31.619  16.095   5.863  0.00  0.00    -0.176 N 
ATOM      3  HN  UNK N   1      31.451  15.493   6.669  1.00  0.00     0.186 HD
HETATM    4  C   UNK N   1      30.607  16.870   5.370  0.00  0.00     0.684 A 
HETATM    5  C   UNK N   1      32.059  17.789   3.741  0.00  0.00     0.110 A 
HETATM    6  C   UNK N   1      33.082  16.993   4.203  0.00  0.00     0.067 A 
HETATM    7  C   UNK N   1      32.856  16.123   5.279  0.00  0.00     0.124 A 
HETATM    8  N   UNK N   1      30.850  17.710   4.325  0.00  0.00    -0.202 N 
ATOM      9  HN  UNK N   1      30.092  18.297   3.976  1.00  0.00     0.183 HD
HETATM   10  H   UNK N   1      29.175  16.297   6.773  0.00  0.00     0.184 HD
ENDROOT
BRANCH   1  11
HETATM   11  C   UNK N   1      28.202  17.543   5.408  0.00  0.00     0.054 A 
HETATM   12  C   UNK N   1      27.444  16.967   4.393  0.00  0.00     0.069 A 
HETATM   13  C   UNK N   1      26.277  17.597   3.916  0.00  0.00     0.106 A 
HETATM   14  C   UNK N   1      25.875  18.847   4.474  0.00  0.00     0.135 A 
HETATM   15  C   UNK N   1      26.662  19.435   5.475  0.00  0.00     0.106 A 
HETATM   16  C   UNK N   1      27.808  18.780   5.927  0.00  0.00     0.069 A 
BRANCH  13  17
HETATM   17  O   UNK N   1      25.534  17.010   2.947  0.00  0.00    -0.353 OA
HETATM   18  C   UNK N   1      25.770  15.738   2.475  0.00  0.00     0.210 C 
ENDBRANCH  13  17
BRANCH  14  19
HETATM   19  O   UNK N   1      24.748  19.507   4.092  0.00  0.00    -0.351 OA
HETATM   20  C   UNK N   1      24.640  20.358   3.017  0.00  0.00     0.210 C 
ENDBRANCH  14  19
BRANCH  15  21
HETATM   21  O   UNK N   1      26.284  20.623   6.011  0.00  0.00    -0.353 OA
HETATM   22  C   UNK N   1      27.170  21.632   6.317  0.00  0.00     0.210 C 
ENDBRANCH  15  21
ENDBRANCH   1  11
BRANCH   7  23
HETATM   23  N   UNK N   1      33.918  15.282   5.751  0.00  0.00    -0.337 N 
HETATM   24  C   UNK N   1      34.704  14.536   4.797  0.00  0.00     0.158 C 
BRANCH  23  25
HETATM   25  C   UNK N   1      34.234  15.208   7.153  0.00  0.00     0.037 A 
HETATM   26  C   UNK N   1      34.398  16.398   7.902  0.00  0.00     0.061 A 
HETATM   27  C   UNK N   1      34.723  16.311   9.235  0.00  0.00     0.062 A 
HETATM   28  C   UNK N   1      34.893  15.119   9.861  0.00  0.00     0.016 A 
HETATM   29  N   UNK N   1      34.913  17.323  10.099  0.00  0.00    -0.300 N 
HETATM   30  C   UNK N   1      34.759  13.907   9.181  0.00  0.00     0.018 A 
HETATM   31  C   UNK N   1      35.191  15.444  11.162  0.00  0.00     0.034 A 
HETATM   32  C   UNK N   1      34.438  13.958   7.804  0.00  0.00     0.031 A 
HETATM   33  C   UNK N   1      35.463  14.504  12.282  0.00  0.00     0.070 C 
HETATM   34  N   UNK N   1      35.201  16.792  11.283  0.00  0.00    -0.304 N 
ATOM     35  HN  UNK N   1      35.395  17.313  12.138  1.00  0.00     0.186 HD
HETATM   36  H   UNK N   1      34.850  18.283   9.892  0.00  0.00     0.187 HD
ENDBRANCH  23  25
ENDBRANCH   7  23
TORSDOF 6
ENDMDL
MODEL 8
REMARK VINA RESULT:      -7.0      4.476      8.173
REMARK  6 active torsions:
REMARK  status: ('A' for Active; 'I' for Inactive)
REMARK    1  A    between atoms: N_1  and  C_4 
REMARK       I    between atoms: N_1  and  C_5 
REMARK    2  A    between atoms: C_8  and  N_22 
REMARK    3  A    between atoms: C_9  and  N_22 
REMARK    4  A    between atoms: C_14  and  O_34 
REMARK    5  A    between atoms: O_17  and  C_18 
REMARK    6  A    between atoms: C_32  and  O_33 
ROOT
HETATM    1  N   UNK N   1      26.915  16.585   4.611  0.00  0.00    -0.191 N 
HETATM    2  N   UNK N   1      29.186  16.831   5.422  0.00  0.00    -0.176 N 
ATOM      3  HN  UNK N   1      29.524  16.319   4.607  1.00  0.00     0.186 HD
HETATM    4  C   UNK N   1      27.847  17.048   5.582  0.00  0.00     0.684 A 
HETATM    5  C   UNK N   1      28.236  18.136   7.649  0.00  0.00     0.110 A 
HETATM    6  C   UNK N   1      29.591  17.954   7.490  0.00  0.00     0.067 A 
HETATM    7  C   UNK N   1      30.076  17.297   6.351  0.00  0.00     0.124 A 
HETATM    8  N   UNK N   1      27.396  17.687   6.698  0.00  0.00    -0.202 N 
ATOM      9  HN  UNK N   1      26.393  17.830   6.816  1.00  0.00     0.183 HD
HETATM   10  H   UNK N   1      27.243  16.038   3.861  0.00  0.00     0.184 HD
ENDROOT
BRANCH   1  11
HETATM   11  C   UNK N   1      25.521  16.885   4.686  0.00  0.00     0.054 A 
HETATM   12  C   UNK N   1      24.685  16.101   5.476  0.00  0.00     0.069 A 
HETATM   13  C   UNK N   1      23.331  16.447   5.659  0.00  0.00     0.106 A 
HETATM   14  C   UNK N   1      22.809  17.608   5.016  0.00  0.00     0.135 A 
HETATM   15  C   UNK N   1      23.651  18.375   4.196  0.00  0.00     0.106 A 
HETATM   16  C   UNK N   1      24.988  18.006   4.043  0.00  0.00     0.069 A 
BRANCH  13  17
HETATM   17  O   UNK N   1      22.536  15.689   6.453  0.00  0.00    -0.353 OA
HETATM   18  C   UNK N   1      22.096  14.431   6.108  0.00  0.00     0.210 C 
ENDBRANCH  13  17
BRANCH  14  19
HETATM   19  O   UNK N   1      21.522  18.028   5.162  0.00  0.00    -0.351 OA
HETATM   20  C   UNK N   1      20.441  17.567   4.450  0.00  0.00     0.210 C 
ENDBRANCH  14  19
BRANCH  15  21
HETATM   21  O   UNK N   1      23.160  19.481   3.584  0.00  0.00    -0.353 OA
HETATM   22  C   UNK N   1      23.960  20.482   3.077  0.00  0.00     0.210 C 
ENDBRANCH  15  21
ENDBRANCH   1  11
BRANCH   7  23
HETATM   23  N   UNK N   1      31.489  17.120   6.177  0.00  0.00    -0.337 N 
HETATM   24  C   UNK N   1      32.071  17.329   4.872  0.00  0.00     0.158 C 
BRANCH  23  25
HETATM   25  C   UNK N   1      32.334  16.782   7.292  0.00  0.00     0.037 A 
HETATM   26  C   UNK N   1      32.163  15.542   7.953  0.00  0.00     0.061 A 
HETATM   27  C   UNK N   1      32.963  15.243   9.031  0.00  0.00     0.062 A 
HETATM   28  C   UNK N   1      33.914  16.097   9.485  0.00  0.00     0.016 A 
HETATM   29  N   UNK N   1      32.948  14.123   9.775  0.00  0.00    -0.300 N 
HETATM   30  C   UNK N   1      34.128  17.341   8.888  0.00  0.00     0.018 A 
HETATM   31  C   UNK N   1      34.496  15.447  10.546  0.00  0.00     0.034 A 
HETATM   32  C   UNK N   1      33.314  17.689   7.784  0.00  0.00     0.031 A 
HETATM   33  C   UNK N   1      35.608  15.939  11.401  0.00  0.00     0.070 C 
HETATM   34  N   UNK N   1      33.889  14.246  10.706  0.00  0.00    -0.304 N 
ATOM     35  HN  UNK N   1      34.117  13.554  11.419  1.00  0.00     0.186 HD
HETATM   36  H   UNK N   1      32.350  13.352   9.652  0.00  0.00     0.187 HD
ENDBRANCH  23  25
ENDBRANCH   7  23
TORSDOF 6
ENDMDL
MODEL 9
REMARK VINA RESULT:      -7.0      4.180     10.422
REMARK  6 active torsions:
REMARK  status: ('A' for Active; 'I' for Inactive)
REMARK    1  A    between atoms: N_1  and  C_4 
REMARK       I    between atoms: N_1  and  C_5 
REMARK    2  A    between atoms: C_8  and  N_22 
REMARK    3  A    between atoms: C_9  and  N_22 
REMARK    4  A    between atoms: C_14  and  O_34 
REMARK    5  A    between atoms: O_17  and  C_18 
REMARK    6  A    between atoms: C_32  and  O_33 
ROOT
HETATM    1  N   UNK N   1      33.463  14.097  10.372  0.00  0.00    -0.191 N 
HETATM    2  N   UNK N   1      32.250  15.886   9.275  0.00  0.00    -0.176 N 
ATOM      3  HN  UNK N   1      31.386  15.354   9.380  1.00  0.00     0.186 HD
HETATM    4  C   UNK N   1      33.428  15.367   9.731  0.00  0.00     0.684 A 
HETATM    5  C   UNK N   1      34.608  17.259   8.934  0.00  0.00     0.110 A 
HETATM    6  C   UNK N   1      33.426  17.812   8.496  0.00  0.00     0.067 A 
HETATM    7  C   UNK N   1      32.223  17.116   8.678  0.00  0.00     0.124 A 
HETATM    8  N   UNK N   1      34.587  16.059   9.542  0.00  0.00    -0.202 N 
ATOM      9  HN  UNK N   1      35.464  15.655   9.871  1.00  0.00     0.183 HD
HETATM   10  H   UNK N   1      32.636  13.563  10.413  0.00  0.00     0.184 HD
ENDROOT
BRANCH   1  11
HETATM   11  C   UNK N   1      34.653  13.569  10.957  0.00  0.00     0.054 A 
HETATM   12  C   UNK N   1      34.907  13.766  12.311  0.00  0.00     0.069 A 
HETATM   13  C   UNK N   1      36.014  13.156  12.935  0.00  0.00     0.106 A 
HETATM   14  C   UNK N   1      36.891  12.336  12.166  0.00  0.00     0.135 A 
HETATM   15  C   UNK N   1      36.645  12.167  10.795  0.00  0.00     0.106 A 
HETATM   16  C   UNK N   1      35.537  12.781  10.211  0.00  0.00     0.069 A 
BRANCH  13  17
HETATM   17  O   UNK N   1      36.232  13.336  14.261  0.00  0.00    -0.353 OA
HETATM   18  C   UNK N   1      36.782  14.482  14.791  0.00  0.00     0.210 C 
ENDBRANCH  13  17
BRANCH  14  19
HETATM   19  O   UNK N   1      37.964  11.688  12.695  0.00  0.00    -0.351 OA
HETATM   20  C   UNK N   1      37.929  10.487  13.363  0.00  0.00     0.210 C 
ENDBRANCH  14  19
BRANCH  15  21
HETATM   21  O   UNK N   1      37.474  11.386  10.059  0.00  0.00    -0.353 OA
HETATM   22  C   UNK N   1      38.412  11.891   9.184  0.00  0.00     0.210 C 
ENDBRANCH  15  21
ENDBRANCH   1  11
BRANCH   7  23
HETATM   23  N   UNK N   1      30.989  17.699   8.235  0.00  0.00    -0.337 N 
HETATM   24  C   UNK N   1      30.378  18.741   9.026  0.00  0.00     0.158 C 
BRANCH  23  25
HETATM   25  C   UNK N   1      30.379  17.288   6.998  0.00  0.00     0.037 A 
HETATM   26  C   UNK N   1      31.095  17.420   5.784  0.00  0.00     0.061 A 
HETATM   27  C   UNK N   1      30.490  17.045   4.607  0.00  0.00     0.062 A 
HETATM   28  C   UNK N   1      29.227  16.552   4.568  0.00  0.00     0.016 A 
HETATM   29  N   UNK N   1      31.009  17.094   3.368  0.00  0.00    -0.300 N 
HETATM   30  C   UNK N   1      28.460  16.408   5.726  0.00  0.00     0.018 A 
HETATM   31  C   UNK N   1      28.991  16.289   3.241  0.00  0.00     0.034 A 
HETATM   32  C   UNK N   1      29.044  16.796   6.954  0.00  0.00     0.031 A 
HETATM   33  C   UNK N   1      27.752  15.724   2.644  0.00  0.00     0.070 C 
HETATM   34  N   UNK N   1      30.090  16.629   2.528  0.00  0.00    -0.304 N 
ATOM     35  HN  UNK N   1      30.196  16.543   1.517  1.00  0.00     0.186 HD
HETATM   36  H   UNK N   1      31.908  17.414   3.127  0.00  0.00     0.187 HD
ENDBRANCH  23  25
ENDBRANCH   7  23
TORSDOF 6
ENDMDL
