REMARK  5 active torsions:
REMARK  status: ('A' for Active; 'I' for Inactive)
REMARK    1  A    between atoms: C_3  and  N_21 
REMARK    2  A    between atoms: C_7  and  O_24 
REMARK    3  A    between atoms: C_11  and  C_14 
REMARK    4  A    between atoms: C_16  and  N_18 
REMARK       I    between atoms: N_18  and  C_19 
REMARK       I    between atoms: C_19  and  N_21 
REMARK    5  A    between atoms: C_22  and  O_24 
ROOT
HETATM    1  N   UNK N   1       3.236  -1.787   0.124  0.00  0.00    -0.309 N 
HETATM    2  C   UNK N   1       2.889  -3.023   0.578  0.00  0.00     0.325 C 
HETATM    3  O   UNK N   1       3.741  -3.773   1.039  0.00  0.00    -0.247 OA
HETATM    4  N   UNK N   1       1.587  -3.429   0.583  0.00  0.00    -0.309 N 
HETATM    5  H   UNK N   1       2.500  -1.203  -0.172  0.00  0.00     0.170 HD
HETATM    6  H   UNK N   1       1.395  -4.338   0.907  0.00  0.00     0.170 HD
ENDROOT
BRANCH   4   7
HETATM    7  C   UNK N   1       0.482  -2.632   0.153  0.00  0.00     0.036 A 
HETATM    8  C   UNK N   1      -0.827  -3.068   0.402  0.00  0.00     0.032 A 
HETATM    9  C   UNK N   1      -1.913  -2.216   0.141  0.00  0.00     0.039 A 
HETATM   10  C   UNK N   1      -1.690  -0.924  -0.356  0.00  0.00     0.076 A 
HETATM   11  C   UNK N   1      -0.384  -0.537  -0.671  0.00  0.00     0.039 A 
HETATM   12  C   UNK N   1       0.680  -1.377  -0.424  0.00  0.00     0.032 A 
BRANCH  10  13
HETATM   13  O   UNK N   1      -2.717  -0.033  -0.384  0.00  0.00    -0.311 OA
BRANCH  13  14
HETATM   14  C   UNK N   1      -2.559   1.323  -0.375  0.00  0.00     0.078 A 
HETATM   15  C   UNK N   1      -3.429   2.090   0.400  0.00  0.00     0.054 A 
HETATM   16  C   UNK N   1      -3.213   3.465   0.527  0.00  0.00     0.090 A 
HETATM   17  N   UNK N   1      -2.167   4.057  -0.110  0.00  0.00    -0.375 N 
HETATM   18  C   UNK N   1      -1.321   3.341  -0.897  0.00  0.00     0.090 A 
ATOM     19  HN  UNK N   1      -2.014   5.059   0.006  1.00  0.00     0.164 HD
HETATM   20  C   UNK N   1      -1.500   1.966  -1.040  0.00  0.00     0.054 A 
ENDBRANCH  13  14
ENDBRANCH  10  13
ENDBRANCH   4   7
BRANCH   1  21
HETATM   21  C   UNK N   1       4.546  -1.251   0.033  0.00  0.00     0.037 A 
HETATM   22  C   UNK N   1       5.679  -2.075   0.051  0.00  0.00     0.045 A 
HETATM   23  C   UNK N   1       6.961  -1.519   0.015  0.00  0.00     0.050 A 
HETATM   24  C   UNK N   1       7.109  -0.126  -0.036  0.00  0.00     0.016 A 
HETATM   25  C   UNK N   1       5.982   0.699  -0.087  0.00  0.00     0.003 A 
HETATM   26  C   UNK N   1       4.705   0.135  -0.057  0.00  0.00     0.029 A 
BRANCH  23  27
HETATM   27  C   UNK N   1       8.171  -2.402   0.054  0.00  0.00     0.417 C 
HETATM   28  F   UNK N   1       8.845  -2.197   1.244  0.00  0.00    -0.166 F 
HETATM   29  F   UNK N   1       9.008  -2.095  -1.003  0.00  0.00    -0.166 F 
HETATM   30  F   UNK N   1       7.815  -3.737  -0.034  0.00  0.00    -0.166 F 
ENDBRANCH  23  27
ENDBRANCH   1  21
TORSDOF 5
