MODEL 1
REMARK VINA RESULT:      -7.9      0.000      0.000
REMARK  5 active torsions:
REMARK  status: ('A' for Active; 'I' for Inactive)
REMARK    1  A    between atoms: C_3  and  N_21 
REMARK    2  A    between atoms: C_7  and  O_24 
REMARK    3  A    between atoms: C_11  and  C_14 
REMARK    4  A    between atoms: C_16  and  N_18 
REMARK       I    between atoms: N_18  and  C_19 
REMARK       I    between atoms: C_19  and  N_21 
REMARK    5  A    between atoms: C_22  and  O_24 
ROOT
HETATM    1  N   UNK N   1      35.412  14.098  11.776  0.00  0.00    -0.309 N 
HETATM    2  C   UNK N   1      36.349  14.086  10.788  0.00  0.00     0.325 C 
HETATM    3  O   UNK N   1      37.396  13.468  10.938  0.00  0.00    -0.247 OA
HETATM    4  N   UNK N   1      36.121  14.709   9.597  0.00  0.00    -0.309 N 
HETATM    5  H   UNK N   1      34.562  14.554  11.573  0.00  0.00     0.170 HD
HETATM    6  H   UNK N   1      36.839  14.683   8.925  0.00  0.00     0.170 HD
ENDROOT
BRANCH   4   7
HETATM    7  C   UNK N   1      34.917  15.397   9.253  0.00  0.00     0.036 A 
HETATM    8  C   UNK N   1      34.870  16.796   9.330  0.00  0.00     0.032 A 
HETATM    9  C   UNK N   1      33.756  17.491   8.832  0.00  0.00     0.039 A 
HETATM   10  C   UNK N   1      32.694  16.789   8.244  0.00  0.00     0.076 A 
HETATM   11  C   UNK N   1      32.724  15.391   8.248  0.00  0.00     0.039 A 
HETATM   12  C   UNK N   1      33.814  14.710   8.746  0.00  0.00     0.032 A 
BRANCH  10  13
HETATM   13  O   UNK N   1      31.738  17.473   7.561  0.00  0.00    -0.311 OA
BRANCH  13  14
HETATM   14  C   UNK N   1      30.417  17.500   7.906  0.00  0.00     0.078 A 
HETATM   15  C   UNK N   1      30.052  18.126   9.098  0.00  0.00     0.054 A 
HETATM   16  C   UNK N   1      28.699  18.278   9.414  0.00  0.00     0.090 A 
HETATM   17  N   UNK N   1      27.741  17.809   8.570  0.00  0.00    -0.375 N 
HETATM   18  C   UNK N   1      28.066  17.167   7.417  0.00  0.00     0.090 A 
ATOM     19  HN  UNK N   1      26.758  17.943   8.808  1.00  0.00     0.164 HD
HETATM   20  C   UNK N   1      29.405  17.004   7.065  0.00  0.00     0.054 A 
ENDBRANCH  13  14
ENDBRANCH  10  13
ENDBRANCH   4   7
BRANCH   1  21
HETATM   21  C   UNK N   1      35.529  13.522  13.067  0.00  0.00     0.037 A 
HETATM   22  C   UNK N   1      34.869  12.331  13.402  0.00  0.00     0.045 A 
HETATM   23  C   UNK N   1      34.957  11.813  14.697  0.00  0.00     0.050 A 
HETATM   24  C   UNK N   1      35.708  12.493  15.665  0.00  0.00     0.016 A 
HETATM   25  C   UNK N   1      36.394  13.663  15.328  0.00  0.00     0.003 A 
HETATM   26  C   UNK N   1      36.306  14.171  14.030  0.00  0.00     0.029 A 
BRANCH  23  27
HETATM   27  C   UNK N   1      34.235  10.550  15.057  0.00  0.00     0.417 C 
HETATM   28  F   UNK N   1      34.797   9.492  14.367  0.00  0.00    -0.166 F 
HETATM   29  F   UNK N   1      32.900  10.660  14.714  0.00  0.00    -0.166 F 
HETATM   30  F   UNK N   1      34.325  10.296  16.415  0.00  0.00    -0.166 F 
ENDBRANCH  23  27
ENDBRANCH   1  21
TORSDOF 5
ENDMDL
MODEL 2
REMARK VINA RESULT:      -7.6      1.852      2.311
REMARK  5 active torsions:
REMARK  status: ('A' for Active; 'I' for Inactive)
REMARK    1  A    between atoms: C_3  and  N_21 
REMARK    2  A    between atoms: C_7  and  O_24 
REMARK    3  A    between atoms: C_11  and  C_14 
REMARK    4  A    between atoms: C_16  and  N_18 
REMARK       I    between atoms: N_18  and  C_19 
REMARK       I    between atoms: C_19  and  N_21 
REMARK    5  A    between atoms: C_22  and  O_24 
ROOT
HETATM    1  N   UNK N   1      35.509  14.048  11.817  0.00  0.00    -0.309 N 
HETATM    2  C   UNK N   1      36.497  14.066  10.881  0.00  0.00     0.325 C 
HETATM    3  O   UNK N   1      37.559  13.494  11.093  0.00  0.00    -0.247 OA
HETATM    4  N   UNK N   1      36.308  14.669   9.672  0.00  0.00    -0.309 N 
HETATM    5  H   UNK N   1      34.654  14.466  11.564  0.00  0.00     0.170 HD
HETATM    6  H   UNK N   1      37.062  14.666   9.039  0.00  0.00     0.170 HD
ENDROOT
BRANCH   4   7
HETATM    7  C   UNK N   1      35.097  15.302   9.257  0.00  0.00     0.036 A 
HETATM    8  C   UNK N   1      34.941  16.685   9.431  0.00  0.00     0.032 A 
HETATM    9  C   UNK N   1      33.834  17.343   8.872  0.00  0.00     0.039 A 
HETATM   10  C   UNK N   1      32.889  16.623   8.128  0.00  0.00     0.076 A 
HETATM   11  C   UNK N   1      33.020  15.234   8.032  0.00  0.00     0.039 A 
HETATM   12  C   UNK N   1      34.102  14.587   8.589  0.00  0.00     0.032 A 
BRANCH  10  13
HETATM   13  O   UNK N   1      31.957  17.296   7.401  0.00  0.00    -0.311 OA
BRANCH  13  14
HETATM   14  C   UNK N   1      31.812  17.188   6.048  0.00  0.00     0.078 A 
HETATM   15  C   UNK N   1      30.548  16.898   5.534  0.00  0.00     0.054 A 
HETATM   16  C   UNK N   1      30.344  16.905   4.152  0.00  0.00     0.090 A 
HETATM   17  N   UNK N   1      31.375  17.183   3.308  0.00  0.00    -0.375 N 
HETATM   18  C   UNK N   1      32.624  17.439   3.778  0.00  0.00     0.090 A 
ATOM     19  HN  UNK N   1      31.205  17.200   2.302  1.00  0.00     0.164 HD
HETATM   20  C   UNK N   1      32.863  17.449   5.151  0.00  0.00     0.054 A 
ENDBRANCH  13  14
ENDBRANCH  10  13
ENDBRANCH   4   7
BRANCH   1  21
HETATM   21  C   UNK N   1      35.580  13.489  13.119  0.00  0.00     0.037 A 
HETATM   22  C   UNK N   1      34.920  12.296  13.443  0.00  0.00     0.045 A 
HETATM   23  C   UNK N   1      34.961  11.795  14.747  0.00  0.00     0.050 A 
HETATM   24  C   UNK N   1      35.666  12.496  15.735  0.00  0.00     0.016 A 
HETATM   25  C   UNK N   1      36.353  13.668  15.410  0.00  0.00     0.003 A 
HETATM   26  C   UNK N   1      36.312  14.159  14.104  0.00  0.00     0.029 A 
BRANCH  23  27
HETATM   27  C   UNK N   1      34.238  10.529  15.094  0.00  0.00     0.417 C 
HETATM   28  F   UNK N   1      34.802   9.477  14.396  0.00  0.00    -0.166 F 
HETATM   29  F   UNK N   1      32.904  10.643  14.749  0.00  0.00    -0.166 F 
HETATM   30  F   UNK N   1      34.325  10.263  16.450  0.00  0.00    -0.166 F 
ENDBRANCH  23  27
ENDBRANCH   1  21
TORSDOF 5
ENDMDL
MODEL 3
REMARK VINA RESULT:      -7.5      2.203      2.924
REMARK  5 active torsions:
REMARK  status: ('A' for Active; 'I' for Inactive)
REMARK    1  A    between atoms: C_3  and  N_21 
REMARK    2  A    between atoms: C_7  and  O_24 
REMARK    3  A    between atoms: C_11  and  C_14 
REMARK    4  A    between atoms: C_16  and  N_18 
REMARK       I    between atoms: N_18  and  C_19 
REMARK       I    between atoms: C_19  and  N_21 
REMARK    5  A    between atoms: C_22  and  O_24 
ROOT
HETATM    1  N   UNK N   1      35.423  13.252  11.790  0.00  0.00    -0.309 N 
HETATM    2  C   UNK N   1      36.684  13.302  11.278  0.00  0.00     0.325 C 
HETATM    3  O   UNK N   1      37.570  12.599  11.749  0.00  0.00    -0.247 OA
HETATM    4  N   UNK N   1      36.974  14.088  10.202  0.00  0.00    -0.309 N 
HETATM    5  H   UNK N   1      34.738  13.788  11.328  0.00  0.00     0.170 HD
HETATM    6  H   UNK N   1      37.905  14.098   9.884  0.00  0.00     0.170 HD
ENDROOT
BRANCH   4   7
HETATM    7  C   UNK N   1      36.026  14.896   9.502  0.00  0.00     0.036 A 
HETATM    8  C   UNK N   1      35.539  16.068  10.098  0.00  0.00     0.032 A 
HETATM    9  C   UNK N   1      34.745  16.956   9.354  0.00  0.00     0.039 A 
HETATM   10  C   UNK N   1      34.449  16.680   8.012  0.00  0.00     0.076 A 
HETATM   11  C   UNK N   1      34.878  15.469   7.460  0.00  0.00     0.039 A 
HETATM   12  C   UNK N   1      35.649  14.594   8.193  0.00  0.00     0.032 A 
BRANCH  10  13
HETATM   13  O   UNK N   1      33.883  17.647   7.240  0.00  0.00    -0.311 OA
BRANCH  13  14
HETATM   14  C   UNK N   1      32.892  17.422   6.329  0.00  0.00     0.078 A 
HETATM   15  C   UNK N   1      31.613  17.120   6.797  0.00  0.00     0.054 A 
HETATM   16  C   UNK N   1      30.553  17.009   5.892  0.00  0.00     0.090 A 
HETATM   17  N   UNK N   1      30.768  17.182   4.560  0.00  0.00    -0.375 N 
HETATM   18  C   UNK N   1      32.008  17.446   4.072  0.00  0.00     0.090 A 
ATOM     19  HN  UNK N   1      29.981  17.113   3.915  1.00  0.00     0.164 HD
HETATM   20  C   UNK N   1      33.087  17.573   4.945  0.00  0.00     0.054 A 
ENDBRANCH  13  14
ENDBRANCH  10  13
ENDBRANCH   4   7
BRANCH   1  21
HETATM   21  C   UNK N   1      34.991  12.508  12.917  0.00  0.00     0.037 A 
HETATM   22  C   UNK N   1      35.162  12.988  14.223  0.00  0.00     0.045 A 
HETATM   23  C   UNK N   1      34.778  12.212  15.320  0.00  0.00     0.050 A 
HETATM   24  C   UNK N   1      34.221  10.943  15.108  0.00  0.00     0.016 A 
HETATM   25  C   UNK N   1      34.019  10.473  13.807  0.00  0.00     0.003 A 
HETATM   26  C   UNK N   1      34.400  11.257  12.717  0.00  0.00     0.029 A 
BRANCH  23  27
HETATM   27  C   UNK N   1      34.979  12.720  16.715  0.00  0.00     0.417 C 
HETATM   28  F   UNK N   1      33.995  13.646  17.008  0.00  0.00    -0.166 F 
HETATM   29  F   UNK N   1      36.219  13.325  16.818  0.00  0.00    -0.166 F 
HETATM   30  F   UNK N   1      34.910  11.688  17.635  0.00  0.00    -0.166 F 
ENDBRANCH  23  27
ENDBRANCH   1  21
TORSDOF 5
ENDMDL
MODEL 4
REMARK VINA RESULT:      -7.4     10.835     13.853
REMARK  5 active torsions:
REMARK  status: ('A' for Active; 'I' for Inactive)
REMARK    1  A    between atoms: C_3  and  N_21 
REMARK    2  A    between atoms: C_7  and  O_24 
REMARK    3  A    between atoms: C_11  and  C_14 
REMARK    4  A    between atoms: C_16  and  N_18 
REMARK       I    between atoms: N_18  and  C_19 
REMARK       I    between atoms: C_19  and  N_21 
REMARK    5  A    between atoms: C_22  and  O_24 
ROOT
HETATM    1  N   UNK N   1      23.025  17.023   5.417  0.00  0.00    -0.309 N 
HETATM    2  C   UNK N   1      21.860  17.712   5.266  0.00  0.00     0.325 C 
HETATM    3  O   UNK N   1      21.798  18.656   4.487  0.00  0.00    -0.247 OA
HETATM    4  N   UNK N   1      20.730  17.335   5.930  0.00  0.00    -0.309 N 
HETATM    5  H   UNK N   1      22.997  16.233   6.005  0.00  0.00     0.170 HD
HETATM    6  H   UNK N   1      19.921  17.879   5.797  0.00  0.00     0.170 HD
ENDROOT
BRANCH   4   7
HETATM    7  C   UNK N   1      20.635  16.209   6.805  0.00  0.00     0.036 A 
HETATM    8  C   UNK N   1      20.621  14.914   6.270  0.00  0.00     0.032 A 
HETATM    9  C   UNK N   1      20.703  13.800   7.123  0.00  0.00     0.039 A 
HETATM   10  C   UNK N   1      20.813  13.982   8.509  0.00  0.00     0.076 A 
HETATM   11  C   UNK N   1      20.746  15.279   9.028  0.00  0.00     0.039 A 
HETATM   12  C   UNK N   1      20.655  16.370   8.191  0.00  0.00     0.032 A 
BRANCH  10  13
HETATM   13  O   UNK N   1      21.124  12.921   9.299  0.00  0.00    -0.311 OA
BRANCH  13  14
HETATM   14  C   UNK N   1      22.312  12.773   9.956  0.00  0.00     0.078 A 
HETATM   15  C   UNK N   1      22.302  12.212  11.233  0.00  0.00     0.054 A 
HETATM   16  C   UNK N   1      23.511  11.934  11.877  0.00  0.00     0.090 A 
HETATM   17  N   UNK N   1      24.693  12.219  11.268  0.00  0.00    -0.375 N 
HETATM   18  C   UNK N   1      24.735  12.795  10.037  0.00  0.00     0.090 A 
ATOM     19  HN  UNK N   1      25.567  11.996  11.744  1.00  0.00     0.164 HD
HETATM   20  C   UNK N   1      23.549  13.078   9.361  0.00  0.00     0.054 A 
ENDBRANCH  13  14
ENDBRANCH  10  13
ENDBRANCH   4   7
BRANCH   1  21
HETATM   21  C   UNK N   1      24.274  17.322   4.815  0.00  0.00     0.037 A 
HETATM   22  C   UNK N   1      24.822  18.610   4.863  0.00  0.00     0.045 A 
HETATM   23  C   UNK N   1      26.029  18.893   4.216  0.00  0.00     0.050 A 
HETATM   24  C   UNK N   1      26.690  17.876   3.513  0.00  0.00     0.016 A 
HETATM   25  C   UNK N   1      26.164  16.582   3.489  0.00  0.00     0.003 A 
HETATM   26  C   UNK N   1      24.961  16.307   4.143  0.00  0.00     0.029 A 
BRANCH  23  27
HETATM   27  C   UNK N   1      26.602  20.276   4.253  0.00  0.00     0.417 C 
HETATM   28  F   UNK N   1      26.350  20.905   3.048  0.00  0.00    -0.166 F 
HETATM   29  F   UNK N   1      27.969  20.211   4.456  0.00  0.00    -0.166 F 
HETATM   30  F   UNK N   1      26.037  21.022   5.274  0.00  0.00    -0.166 F 
ENDBRANCH  23  27
ENDBRANCH   1  21
TORSDOF 5
ENDMDL
MODEL 5
REMARK VINA RESULT:      -7.3      4.271      8.908
REMARK  5 active torsions:
REMARK  status: ('A' for Active; 'I' for Inactive)
REMARK    1  A    between atoms: C_3  and  N_21 
REMARK    2  A    between atoms: C_7  and  O_24 
REMARK    3  A    between atoms: C_11  and  C_14 
REMARK    4  A    between atoms: C_16  and  N_18 
REMARK       I    between atoms: N_18  and  C_19 
REMARK       I    between atoms: C_19  and  N_21 
REMARK    5  A    between atoms: C_22  and  O_24 
ROOT
HETATM    1  N   UNK N   1      33.144  16.642   8.896  0.00  0.00    -0.309 N 
HETATM    2  C   UNK N   1      34.242  17.432   9.047  0.00  0.00     0.325 C 
HETATM    3  O   UNK N   1      34.265  18.556   8.561  0.00  0.00    -0.247 OA
HETATM    4  N   UNK N   1      35.310  17.016   9.786  0.00  0.00    -0.309 N 
HETATM    5  H   UNK N   1      33.156  15.775   9.365  0.00  0.00     0.170 HD
HETATM    6  H   UNK N   1      36.084  17.620   9.849  0.00  0.00     0.170 HD
ENDROOT
BRANCH   4   7
HETATM    7  C   UNK N   1      35.389  15.767  10.475  0.00  0.00     0.036 A 
HETATM    8  C   UNK N   1      35.612  14.587   9.751  0.00  0.00     0.032 A 
HETATM    9  C   UNK N   1      35.863  13.383  10.430  0.00  0.00     0.039 A 
HETATM   10  C   UNK N   1      35.904  13.361  11.831  0.00  0.00     0.076 A 
HETATM   11  C   UNK N   1      35.602  14.530  12.535  0.00  0.00     0.039 A 
HETATM   12  C   UNK N   1      35.346  15.709  11.869  0.00  0.00     0.032 A 
BRANCH  10  13
HETATM   13  O   UNK N   1      36.374  12.254  12.468  0.00  0.00    -0.311 OA
BRANCH  13  14
HETATM   14  C   UNK N   1      35.738  11.636  13.506  0.00  0.00     0.078 A 
HETATM   15  C   UNK N   1      36.394  11.555  14.735  0.00  0.00     0.054 A 
HETATM   16  C   UNK N   1      35.719  11.041  15.846  0.00  0.00     0.090 A 
HETATM   17  N   UNK N   1      34.434  10.611  15.730  0.00  0.00    -0.375 N 
HETATM   18  C   UNK N   1      33.780  10.649  14.539  0.00  0.00     0.090 A 
ATOM     19  HN  UNK N   1      33.951  10.253  16.554  1.00  0.00     0.164 HD
HETATM   20  C   UNK N   1      34.418  11.164  13.411  0.00  0.00     0.054 A 
ENDBRANCH  13  14
ENDBRANCH  10  13
ENDBRANCH   4   7
BRANCH   1  21
HETATM   21  C   UNK N   1      31.984  16.934   8.134  0.00  0.00     0.037 A 
HETATM   22  C   UNK N   1      30.837  17.481   8.724  0.00  0.00     0.045 A 
HETATM   23  C   UNK N   1      29.687  17.710   7.962  0.00  0.00     0.050 A 
HETATM   24  C   UNK N   1      29.686  17.384   6.599  0.00  0.00     0.016 A 
HETATM   25  C   UNK N   1      30.838  16.868   5.998  0.00  0.00     0.003 A 
HETATM   26  C   UNK N   1      31.984  16.649   6.765  0.00  0.00     0.029 A 
BRANCH  23  27
HETATM   27  C   UNK N   1      28.456  18.277   8.600  0.00  0.00     0.417 C 
HETATM   28  F   UNK N   1      28.800  18.877   9.798  0.00  0.00    -0.166 F 
HETATM   29  F   UNK N   1      27.546  17.264   8.843  0.00  0.00    -0.166 F 
HETATM   30  F   UNK N   1      27.862  19.221   7.781  0.00  0.00    -0.166 F 
ENDBRANCH  23  27
ENDBRANCH   1  21
TORSDOF 5
ENDMDL
MODEL 6
REMARK VINA RESULT:      -7.3      4.450      9.036
REMARK  5 active torsions:
REMARK  status: ('A' for Active; 'I' for Inactive)
REMARK    1  A    between atoms: C_3  and  N_21 
REMARK    2  A    between atoms: C_7  and  O_24 
REMARK    3  A    between atoms: C_11  and  C_14 
REMARK    4  A    between atoms: C_16  and  N_18 
REMARK       I    between atoms: N_18  and  C_19 
REMARK       I    between atoms: C_19  and  N_21 
REMARK    5  A    between atoms: C_22  and  O_24 
ROOT
HETATM    1  N   UNK N   1      32.504  17.017   8.700  0.00  0.00    -0.309 N 
HETATM    2  C   UNK N   1      33.648  17.438   8.093  0.00  0.00     0.325 C 
HETATM    3  O   UNK N   1      33.600  18.267   7.192  0.00  0.00    -0.247 OA
HETATM    4  N   UNK N   1      34.868  16.995   8.511  0.00  0.00    -0.309 N 
HETATM    5  H   UNK N   1      32.609  16.402   9.463  0.00  0.00     0.170 HD
HETATM    6  H   UNK N   1      35.660  17.319   8.026  0.00  0.00     0.170 HD
ENDROOT
BRANCH   4   7
HETATM    7  C   UNK N   1      35.080  16.094   9.599  0.00  0.00     0.036 A 
HETATM    8  C   UNK N   1      35.138  14.714   9.357  0.00  0.00     0.032 A 
HETATM    9  C   UNK N   1      35.517  13.835  10.385  0.00  0.00     0.039 A 
HETATM   10  C   UNK N   1      35.852  14.337  11.651  0.00  0.00     0.076 A 
HETATM   11  C   UNK N   1      35.713  15.706  11.894  0.00  0.00     0.039 A 
HETATM   12  C   UNK N   1      35.331  16.567  10.888  0.00  0.00     0.032 A 
BRANCH  10  13
HETATM   13  O   UNK N   1      36.437  13.514  12.562  0.00  0.00    -0.311 OA
BRANCH  13  14
HETATM   14  C   UNK N   1      35.905  13.217  13.784  0.00  0.00     0.078 A 
HETATM   15  C   UNK N   1      34.884  12.268  13.853  0.00  0.00     0.054 A 
HETATM   16  C   UNK N   1      34.409  11.854  15.100  0.00  0.00     0.090 A 
HETATM   17  N   UNK N   1      34.929  12.379  16.242  0.00  0.00    -0.375 N 
HETATM   18  C   UNK N   1      35.902  13.328  16.205  0.00  0.00     0.090 A 
ATOM     19  HN  UNK N   1      34.581  12.054  17.145  1.00  0.00     0.164 HD
HETATM   20  C   UNK N   1      36.407  13.759  14.980  0.00  0.00     0.054 A 
ENDBRANCH  13  14
ENDBRANCH  10  13
ENDBRANCH   4   7
BRANCH   1  21
HETATM   21  C   UNK N   1      31.176  17.371   8.350  0.00  0.00     0.037 A 
HETATM   22  C   UNK N   1      30.498  16.733   7.303  0.00  0.00     0.045 A 
HETATM   23  C   UNK N   1      29.209  17.136   6.943  0.00  0.00     0.050 A 
HETATM   24  C   UNK N   1      28.596  18.190   7.634  0.00  0.00     0.016 A 
HETATM   25  C   UNK N   1      29.255  18.809   8.700  0.00  0.00     0.003 A 
HETATM   26  C   UNK N   1      30.540  18.395   9.058  0.00  0.00     0.029 A 
BRANCH  23  27
HETATM   27  C   UNK N   1      28.494  16.465   5.810  0.00  0.00     0.417 C 
HETATM   28  F   UNK N   1      27.383  15.804   6.301  0.00  0.00    -0.166 F 
HETATM   29  F   UNK N   1      29.336  15.552   5.202  0.00  0.00    -0.166 F 
HETATM   30  F   UNK N   1      28.083  17.389   4.864  0.00  0.00    -0.166 F 
ENDBRANCH  23  27
ENDBRANCH   1  21
TORSDOF 5
ENDMDL
MODEL 7
REMARK VINA RESULT:      -7.0      6.858      9.997
REMARK  5 active torsions:
REMARK  status: ('A' for Active; 'I' for Inactive)
REMARK    1  A    between atoms: C_3  and  N_21 
REMARK    2  A    between atoms: C_7  and  O_24 
REMARK    3  A    between atoms: C_11  and  C_14 
REMARK    4  A    between atoms: C_16  and  N_18 
REMARK       I    between atoms: N_18  and  C_19 
REMARK       I    between atoms: C_19  and  N_21 
REMARK    5  A    between atoms: C_22  and  O_24 
ROOT
HETATM    1  N   UNK N   1      27.178  16.989   6.728  0.00  0.00    -0.309 N 
HETATM    2  C   UNK N   1      26.678  17.603   5.620  0.00  0.00     0.325 C 
HETATM    3  O   UNK N   1      27.243  18.584   5.151  0.00  0.00    -0.247 OA
HETATM    4  N   UNK N   1      25.580  17.111   4.980  0.00  0.00    -0.309 N 
HETATM    5  H   UNK N   1      26.721  16.166   7.020  0.00  0.00     0.170 HD
HETATM    6  H   UNK N   1      25.252  17.605   4.194  0.00  0.00     0.170 HD
ENDROOT
BRANCH   4   7
HETATM    7  C   UNK N   1      24.869  15.933   5.365  0.00  0.00     0.036 A 
HETATM    8  C   UNK N   1      25.448  14.674   5.154  0.00  0.00     0.032 A 
HETATM    9  C   UNK N   1      24.840  13.523   5.684  0.00  0.00     0.039 A 
HETATM   10  C   UNK N   1      23.661  13.633   6.435  0.00  0.00     0.076 A 
HETATM   11  C   UNK N   1      23.059  14.888   6.568  0.00  0.00     0.039 A 
HETATM   12  C   UNK N   1      23.651  16.015   6.040  0.00  0.00     0.032 A 
BRANCH  10  13
HETATM   13  O   UNK N   1      23.212  12.557   7.134  0.00  0.00    -0.311 OA
BRANCH  13  14
HETATM   14  C   UNK N   1      23.212  12.470   8.497  0.00  0.00     0.078 A 
HETATM   15  C   UNK N   1      24.433  12.331   9.156  0.00  0.00     0.054 A 
HETATM   16  C   UNK N   1      24.473  12.366  10.553  0.00  0.00     0.090 A 
HETATM   17  N   UNK N   1      23.327  12.523  11.268  0.00  0.00    -0.375 N 
HETATM   18  C   UNK N   1      22.119  12.630  10.655  0.00  0.00     0.090 A 
ATOM     19  HN  UNK N   1      23.376  12.562  12.287  1.00  0.00     0.164 HD
HETATM   20  C   UNK N   1      22.041  12.608   9.263  0.00  0.00     0.054 A 
ENDBRANCH  13  14
ENDBRANCH  10  13
ENDBRANCH   4   7
BRANCH   1  21
HETATM   21  C   UNK N   1      28.287  17.407   7.506  0.00  0.00     0.037 A 
HETATM   22  C   UNK N   1      29.594  17.008   7.196  0.00  0.00     0.045 A 
HETATM   23  C   UNK N   1      30.664  17.390   8.010  0.00  0.00     0.050 A 
HETATM   24  C   UNK N   1      30.423  18.175   9.146  0.00  0.00     0.016 A 
HETATM   25  C   UNK N   1      29.126  18.603   9.442  0.00  0.00     0.003 A 
HETATM   26  C   UNK N   1      28.063  18.222   8.620  0.00  0.00     0.029 A 
BRANCH  23  27
HETATM   27  C   UNK N   1      32.058  16.945   7.686  0.00  0.00     0.417 C 
HETATM   28  F   UNK N   1      32.695  16.561   8.853  0.00  0.00    -0.166 F 
HETATM   29  F   UNK N   1      32.758  17.986   7.106  0.00  0.00    -0.166 F 
HETATM   30  F   UNK N   1      32.047  15.874   6.810  0.00  0.00    -0.166 F 
ENDBRANCH  23  27
ENDBRANCH   1  21
TORSDOF 5
ENDMDL
MODEL 8
REMARK VINA RESULT:      -6.9      5.445      8.775
REMARK  5 active torsions:
REMARK  status: ('A' for Active; 'I' for Inactive)
REMARK    1  A    between atoms: C_3  and  N_21 
REMARK    2  A    between atoms: C_7  and  O_24 
REMARK    3  A    between atoms: C_11  and  C_14 
REMARK    4  A    between atoms: C_16  and  N_18 
REMARK       I    between atoms: N_18  and  C_19 
REMARK       I    between atoms: C_19  and  N_21 
REMARK    5  A    between atoms: C_22  and  O_24 
ROOT
HETATM    1  N   UNK N   1      34.210   9.581  18.782  0.00  0.00    -0.309 N 
HETATM    2  C   UNK N   1      35.538   9.354  18.587  0.00  0.00     0.325 C 
HETATM    3  O   UNK N   1      36.162   8.638  19.360  0.00  0.00    -0.247 OA
HETATM    4  N   UNK N   1      36.186   9.870  17.503  0.00  0.00    -0.309 N 
HETATM    5  H   UNK N   1      33.746  10.108  18.092  0.00  0.00     0.170 HD
HETATM    6  H   UNK N   1      37.150   9.688  17.420  0.00  0.00     0.170 HD
ENDROOT
BRANCH   4   7
HETATM    7  C   UNK N   1      35.569  10.653  16.480  0.00  0.00     0.036 A 
HETATM    8  C   UNK N   1      35.702  12.048  16.498  0.00  0.00     0.032 A 
HETATM    9  C   UNK N   1      35.250  12.812  15.409  0.00  0.00     0.039 A 
HETATM   10  C   UNK N   1      34.678  12.179  14.296  0.00  0.00     0.076 A 
HETATM   11  C   UNK N   1      34.484  10.795  14.330  0.00  0.00     0.039 A 
HETATM   12  C   UNK N   1      34.918  10.048  15.404  0.00  0.00     0.032 A 
BRANCH  10  13
HETATM   13  O   UNK N   1      34.461  12.895  13.160  0.00  0.00    -0.311 OA
BRANCH  13  14
HETATM   14  C   UNK N   1      35.449  13.457  12.404  0.00  0.00     0.078 A 
HETATM   15  C   UNK N   1      36.555  12.676  12.067  0.00  0.00     0.054 A 
HETATM   16  C   UNK N   1      37.519  13.184  11.191  0.00  0.00     0.090 A 
HETATM   17  N   UNK N   1      37.388  14.437  10.678  0.00  0.00    -0.375 N 
HETATM   18  C   UNK N   1      36.338  15.232  11.013  0.00  0.00     0.090 A 
ATOM     19  HN  UNK N   1      38.093  14.786  10.028  1.00  0.00     0.164 HD
HETATM   20  C   UNK N   1      35.352  14.756  11.876  0.00  0.00     0.054 A 
ENDBRANCH  13  14
ENDBRANCH  10  13
ENDBRANCH   4   7
BRANCH   1  21
HETATM   21  C   UNK N   1      33.422   9.135  19.875  0.00  0.00     0.037 A 
HETATM   22  C   UNK N   1      33.449   9.790  21.113  0.00  0.00     0.045 A 
HETATM   23  C   UNK N   1      32.705   9.299  22.191  0.00  0.00     0.050 A 
HETATM   24  C   UNK N   1      31.932   8.142  22.027  0.00  0.00     0.016 A 
HETATM   25  C   UNK N   1      31.877   7.504  20.784  0.00  0.00     0.003 A 
HETATM   26  C   UNK N   1      32.617   8.004  19.712  0.00  0.00     0.029 A 
BRANCH  23  27
HETATM   27  C   UNK N   1      32.751   9.991  23.519  0.00  0.00     0.417 C 
HETATM   28  F   UNK N   1      33.863   9.558  24.219  0.00  0.00    -0.166 F 
HETATM   29  F   UNK N   1      31.611   9.689  24.242  0.00  0.00    -0.166 F 
HETATM   30  F   UNK N   1      32.827  11.364  23.363  0.00  0.00    -0.166 F 
ENDBRANCH  23  27
ENDBRANCH   1  21
TORSDOF 5
ENDMDL
MODEL 9
REMARK VINA RESULT:      -6.8      3.200      4.556
REMARK  5 active torsions:
REMARK  status: ('A' for Active; 'I' for Inactive)
REMARK    1  A    between atoms: C_3  and  N_21 
REMARK    2  A    between atoms: C_7  and  O_24 
REMARK    3  A    between atoms: C_11  and  C_14 
REMARK    4  A    between atoms: C_16  and  N_18 
REMARK       I    between atoms: N_18  and  C_19 
REMARK       I    between atoms: C_19  and  N_21 
REMARK    5  A    between atoms: C_22  and  O_24 
ROOT
HETATM    1  N   UNK N   1      36.253  11.859  14.508  0.00  0.00    -0.309 N 
HETATM    2  C   UNK N   1      37.448  11.561  13.926  0.00  0.00     0.325 C 
HETATM    3  O   UNK N   1      38.138  10.649  14.366  0.00  0.00    -0.247 OA
HETATM    4  N   UNK N   1      37.873  12.228  12.816  0.00  0.00    -0.309 N 
HETATM    5  H   UNK N   1      35.711  12.556  14.071  0.00  0.00     0.170 HD
HETATM    6  H   UNK N   1      38.752  11.983  12.447  0.00  0.00     0.170 HD
ENDROOT
BRANCH   4   7
HETATM    7  C   UNK N   1      37.138  13.256  12.149  0.00  0.00     0.036 A 
HETATM    8  C   UNK N   1      36.389  14.173  12.900  0.00  0.00     0.032 A 
HETATM    9  C   UNK N   1      35.806  15.286  12.272  0.00  0.00     0.039 A 
HETATM   10  C   UNK N   1      35.982  15.489  10.895  0.00  0.00     0.076 A 
HETATM   11  C   UNK N   1      36.665  14.522  10.151  0.00  0.00     0.039 A 
HETATM   12  C   UNK N   1      37.229  13.426  10.767  0.00  0.00     0.032 A 
BRANCH  10  13
HETATM   13  O   UNK N   1      35.617  16.677  10.344  0.00  0.00    -0.311 OA
BRANCH  13  14
HETATM   14  C   UNK N   1      34.633  16.821   9.409  0.00  0.00     0.078 A 
HETATM   15  C   UNK N   1      33.594  15.890   9.387  0.00  0.00     0.054 A 
HETATM   16  C   UNK N   1      32.510  16.084   8.525  0.00  0.00     0.090 A 
HETATM   17  N   UNK N   1      32.472  17.166   7.703  0.00  0.00    -0.375 N 
HETATM   18  C   UNK N   1      33.484  18.073   7.680  0.00  0.00     0.090 A 
ATOM     19  HN  UNK N   1      31.666  17.301   7.092  1.00  0.00     0.164 HD
HETATM   20  C   UNK N   1      34.577  17.918   8.531  0.00  0.00     0.054 A 
ENDBRANCH  13  14
ENDBRANCH  10  13
ENDBRANCH   4   7
BRANCH   1  21
HETATM   21  C   UNK N   1      35.705  11.270  15.676  0.00  0.00     0.037 A 
HETATM   22  C   UNK N   1      35.795  11.899  16.925  0.00  0.00     0.045 A 
HETATM   23  C   UNK N   1      35.296  11.273  18.072  0.00  0.00     0.050 A 
HETATM   24  C   UNK N   1      34.705  10.006  17.966  0.00  0.00     0.016 A 
HETATM   25  C   UNK N   1      34.584   9.389  16.718  0.00  0.00     0.003 A 
HETATM   26  C   UNK N   1      35.080  10.024  15.577  0.00  0.00     0.029 A 
BRANCH  23  27
HETATM   27  C   UNK N   1      35.410  11.939  19.409  0.00  0.00     0.417 C 
HETATM   28  F   UNK N   1      36.553  11.490  20.044  0.00  0.00    -0.166 F 
HETATM   29  F   UNK N   1      34.306  11.629  20.182  0.00  0.00    -0.166 F 
HETATM   30  F   UNK N   1      35.485  13.315  19.274  0.00  0.00    -0.166 F 
ENDBRANCH  23  27
ENDBRANCH   1  21
TORSDOF 5
ENDMDL
