REMARK  4 active torsions:
REMARK  status: ('A' for Active; 'I' for Inactive)
REMARK    1  A    between atoms: C_1  and  C_2 
REMARK       I    between atoms: C_2  and  N_21 
REMARK    2  A    between atoms: C_4  and  C_28 
REMARK    3  A    between atoms: C_7  and  C_16 
REMARK    4  A    between atoms: C_17  and  N_18 
ROOT
HETATM    1  C   UNK N   1      -0.791   1.948  -0.520  0.00  0.00     0.008 C 
HETATM    2  C   UNK N   1       0.408   2.519  -0.321  0.00  0.00    -0.013 C 
HETATM    3  C   UNK N   1       1.649   1.677  -0.569  0.00  0.00     0.039 C 
HETATM    4  C   UNK N   1       1.401   0.276   0.062  0.00  0.00     0.048 C 
HETATM    5  C   UNK N   1       0.188  -0.404  -0.645  0.00  0.00     0.087 C 
HETATM    6  C   UNK N   1      -0.843   0.587  -1.152  0.00  0.00     0.069 C 
ENDROOT
BRANCH   1   7
HETATM    7  C   UNK N   1      -2.090   2.601  -0.214  0.00  0.00     0.249 C 
HETATM    8  N   UNK N   1      -3.115   1.848   0.295  0.00  0.00    -0.340 N 
HETATM    9  C   UNK N   1      -2.828   0.528   0.841  0.00  0.00     0.147 C 
HETATM   10  C   UNK N   1      -4.478   2.358   0.388  0.00  0.00     0.204 C 
HETATM   11  C   UNK N   1      -3.656  -0.520   0.134  0.00  0.00     0.152 C 
HETATM   12  N   UNK N   1      -5.035  -0.076   0.145  0.00  0.00    -0.314 N 
HETATM   13  C   UNK N   1      -6.167  -0.795   0.116  0.00  0.00     0.209 A 
HETATM   14  C   UNK N   1      -5.442   1.200   0.246  0.00  0.00     0.118 A 
HETATM   15  N   UNK N   1      -7.241   0.021   0.182  0.00  0.00    -0.280 N 
HETATM   16  N   UNK N   1      -6.786   1.270   0.264  0.00  0.00    -0.286 N 
ATOM     17  HN  UNK N   1      -8.220  -0.267   0.170  1.00  0.00     0.188 HD
ATOM     18  HN  UNK N   1      -7.349   2.118   0.330  1.00  0.00     0.188 HD
HETATM   19  O   UNK N   1      -2.245   3.793  -0.439  0.00  0.00    -0.268 OA
BRANCH  13  20
HETATM   20  C   UNK N   1      -6.245  -2.299   0.065  0.00  0.00     0.450 C 
HETATM   21  F   UNK N   1      -6.966  -2.690  -1.045  0.00  0.00    -0.163 F 
HETATM   22  F   UNK N   1      -6.878  -2.757   1.205  0.00  0.00    -0.163 F 
HETATM   23  F   UNK N   1      -4.989  -2.877   0.001  0.00  0.00    -0.163 F 
ENDBRANCH  13  20
ENDBRANCH   1   7
BRANCH   5  24
HETATM   24  N   UNK N   1       0.614  -1.166  -1.810  0.00  0.00    -0.425 N 
HETATM   25  H   UNK N   1       0.301  -1.691  -2.627  0.00  0.00     0.150 HD
HETATM   26  H   UNK N   1       1.634  -1.180  -1.810  0.00  0.00     0.150 HD
ENDBRANCH   5  24
BRANCH   4  27
HETATM   27  C   UNK N   1       2.601  -0.657   0.039  0.00  0.00    -0.010 A 
HETATM   28  C   UNK N   1       3.785  -0.272  -0.607  0.00  0.00     0.056 A 
HETATM   29  C   UNK N   1       4.861  -1.156  -0.703  0.00  0.00     0.155 A 
HETATM   30  C   UNK N   1       4.764  -2.440  -0.159  0.00  0.00     0.157 A 
HETATM   31  F   UNK N   1       5.993  -0.769  -1.338  0.00  0.00    -0.203 F 
HETATM   32  C   UNK N   1       3.598  -2.831   0.500  0.00  0.00     0.088 A 
HETATM   33  F   UNK N   1       5.796  -3.310  -0.271  0.00  0.00    -0.203 F 
HETATM   34  C   UNK N   1       2.520  -1.949   0.608  0.00  0.00     0.126 A 
HETATM   35  F   UNK N   1       1.394  -2.368   1.237  0.00  0.00    -0.205 F 
ENDBRANCH   4  27
TORSDOF 4
