MODEL 1
REMARK VINA RESULT:      -8.5      0.000      0.000
REMARK  4 active torsions:
REMARK  status: ('A' for Active; 'I' for Inactive)
REMARK    1  A    between atoms: C_1  and  C_2 
REMARK       I    between atoms: C_2  and  N_21 
REMARK    2  A    between atoms: C_4  and  C_28 
REMARK    3  A    between atoms: C_7  and  C_16 
REMARK    4  A    between atoms: C_17  and  N_18 
ROOT
HETATM    1  C   UNK N   1      20.272  15.763   5.591  0.00  0.00     0.008 C 
HETATM    2  C   UNK N   1      20.378  14.435   5.422  0.00  0.00    -0.013 C 
HETATM    3  C   UNK N   1      20.620  13.577   6.654  0.00  0.00     0.039 C 
HETATM    4  C   UNK N   1      21.704  14.286   7.516  0.00  0.00     0.048 C 
HETATM    5  C   UNK N   1      21.172  15.679   7.976  0.00  0.00     0.087 C 
HETATM    6  C   UNK N   1      20.207  16.308   6.988  0.00  0.00     0.069 C 
ENDROOT
BRANCH   1   7
HETATM    7  C   UNK N   1      20.150  16.741   4.478  0.00  0.00     0.249 C 
HETATM    8  N   UNK N   1      21.283  17.302   3.951  0.00  0.00    -0.340 N 
HETATM    9  C   UNK N   1      22.578  16.699   4.239  0.00  0.00     0.147 C 
HETATM   10  C   UNK N   1      21.232  18.437   3.038  0.00  0.00     0.204 C 
HETATM   11  C   UNK N   1      23.497  17.716   4.874  0.00  0.00     0.152 C 
HETATM   12  N   UNK N   1      23.481  18.905   4.046  0.00  0.00    -0.314 N 
HETATM   13  C   UNK N   1      24.425  19.842   3.873  0.00  0.00     0.209 A 
HETATM   14  C   UNK N   1      22.484  19.267   3.222  0.00  0.00     0.118 A 
HETATM   15  N   UNK N   1      24.011  20.763   2.977  0.00  0.00    -0.280 N 
HETATM   16  N   UNK N   1      22.796  20.402   2.569  0.00  0.00    -0.286 N 
ATOM     17  HN  UNK N   1      24.533  21.585   2.670  1.00  0.00     0.188 HD
ATOM     18  HN  UNK N   1      22.213  20.892   1.890  1.00  0.00     0.188 HD
HETATM   19  O   UNK N   1      19.045  17.055   4.058  0.00  0.00    -0.268 OA
BRANCH  13  20
HETATM   20  C   UNK N   1      25.777  19.853   4.540  0.00  0.00     0.450 C 
HETATM   21  F   UNK N   1      25.628  20.103   5.889  0.00  0.00    -0.163 F 
HETATM   22  F   UNK N   1      26.551  20.848   3.974  0.00  0.00    -0.163 F 
HETATM   23  F   UNK N   1      26.436  18.646   4.385  0.00  0.00    -0.163 F 
ENDBRANCH  13  20
ENDBRANCH   1   7
BRANCH   5  24
HETATM   24  N   UNK N   1      20.446  15.579   9.234  0.00  0.00    -0.425 N 
HETATM   25  H   UNK N   1      19.758  16.026   9.841  0.00  0.00     0.150 HD
HETATM   26  H   UNK N   1      20.743  14.717   9.691  0.00  0.00     0.150 HD
ENDBRANCH   5  24
BRANCH   4  27
HETATM   27  C   UNK N   1      22.181  13.493   8.722  0.00  0.00    -0.010 A 
HETATM   28  C   UNK N   1      21.255  12.968   9.636  0.00  0.00     0.056 A 
HETATM   29  C   UNK N   1      21.690  12.311  10.788  0.00  0.00     0.155 A 
HETATM   30  C   UNK N   1      23.057  12.174  11.044  0.00  0.00     0.157 A 
HETATM   31  F   UNK N   1      20.781  11.818  11.663  0.00  0.00    -0.203 F 
HETATM   32  C   UNK N   1      23.989  12.678  10.136  0.00  0.00     0.088 A 
HETATM   33  F   UNK N   1      23.484  11.559  12.172  0.00  0.00    -0.203 F 
HETATM   34  C   UNK N   1      23.563  13.329   8.976  0.00  0.00     0.126 A 
HETATM   35  F   UNK N   1      24.495  13.824   8.124  0.00  0.00    -0.205 F 
ENDBRANCH   4  27
TORSDOF 4
ENDMDL
MODEL 2
REMARK VINA RESULT:      -8.3     12.648     14.638
REMARK  4 active torsions:
REMARK  status: ('A' for Active; 'I' for Inactive)
REMARK    1  A    between atoms: C_1  and  C_2 
REMARK       I    between atoms: C_2  and  N_21 
REMARK    2  A    between atoms: C_4  and  C_28 
REMARK    3  A    between atoms: C_7  and  C_16 
REMARK    4  A    between atoms: C_17  and  N_18 
ROOT
HETATM    1  C   UNK N   1      36.006  12.604  11.531  0.00  0.00     0.008 C 
HETATM    2  C   UNK N   1      34.947  13.228  12.074  0.00  0.00    -0.013 C 
HETATM    3  C   UNK N   1      34.919  13.403  13.583  0.00  0.00     0.039 C 
HETATM    4  C   UNK N   1      35.373  12.059  14.222  0.00  0.00     0.048 C 
HETATM    5  C   UNK N   1      36.837  11.744  13.784  0.00  0.00     0.087 C 
HETATM    6  C   UNK N   1      37.181  12.287  12.410  0.00  0.00     0.069 C 
ENDROOT
BRANCH   1   7
HETATM    7  C   UNK N   1      36.125  12.258  10.091  0.00  0.00     0.249 C 
HETATM    8  N   UNK N   1      36.112  13.260   9.158  0.00  0.00    -0.340 N 
HETATM    9  C   UNK N   1      36.323  14.637   9.585  0.00  0.00     0.147 C 
HETATM   10  C   UNK N   1      35.978  12.988   7.731  0.00  0.00     0.204 C 
HETATM   11  C   UNK N   1      35.158  15.500   9.159  0.00  0.00     0.152 C 
HETATM   12  N   UNK N   1      34.926  15.265   7.749  0.00  0.00    -0.314 N 
HETATM   13  C   UNK N   1      34.397  16.076   6.821  0.00  0.00     0.209 A 
HETATM   14  C   UNK N   1      35.267  14.153   7.077  0.00  0.00     0.118 A 
HETATM   15  N   UNK N   1      34.401  15.471   5.614  0.00  0.00    -0.280 N 
HETATM   16  N   UNK N   1      34.947  14.266   5.775  0.00  0.00    -0.286 N 
ATOM     17  HN  UNK N   1      34.049  15.863   4.740  1.00  0.00     0.188 HD
ATOM     18  HN  UNK N   1      35.095  13.565   5.050  1.00  0.00     0.188 HD
HETATM   19  O   UNK N   1      36.210  11.087   9.747  0.00  0.00    -0.268 OA
BRANCH  13  20
HETATM   20  C   UNK N   1      33.909  17.481   7.065  0.00  0.00     0.450 C 
HETATM   21  F   UNK N   1      32.812  17.453   7.901  0.00  0.00    -0.163 F 
HETATM   22  F   UNK N   1      33.548  18.049   5.858  0.00  0.00    -0.163 F 
HETATM   23  F   UNK N   1      34.886  18.271   7.645  0.00  0.00    -0.163 F 
ENDBRANCH  13  20
ENDBRANCH   1   7
BRANCH   5  24
HETATM   24  N   UNK N   1      37.802  12.335  14.699  0.00  0.00    -0.425 N 
HETATM   25  H   UNK N   1      38.558  13.014  14.795  0.00  0.00     0.150 HD
HETATM   26  H   UNK N   1      37.667  11.897  15.611  0.00  0.00     0.150 HD
ENDBRANCH   5  24
BRANCH   4  27
HETATM   27  C   UNK N   1      35.265  12.002  15.737  0.00  0.00    -0.010 A 
HETATM   28  C   UNK N   1      35.167  13.185  16.485  0.00  0.00     0.056 A 
HETATM   29  C   UNK N   1      35.151  13.143  17.880  0.00  0.00     0.155 A 
HETATM   30  C   UNK N   1      35.238  11.917  18.546  0.00  0.00     0.157 A 
HETATM   31  F   UNK N   1      35.065  14.297  18.585  0.00  0.00    -0.203 F 
HETATM   32  C   UNK N   1      35.319  10.732  17.815  0.00  0.00     0.088 A 
HETATM   33  F   UNK N   1      35.247  11.874  19.900  0.00  0.00    -0.203 F 
HETATM   34  C   UNK N   1      35.328  10.764  16.418  0.00  0.00     0.126 A 
HETATM   35  F   UNK N   1      35.428   9.595  15.739  0.00  0.00    -0.205 F 
ENDBRANCH   4  27
TORSDOF 4
ENDMDL
MODEL 3
REMARK VINA RESULT:      -8.2      4.419      7.033
REMARK  4 active torsions:
REMARK  status: ('A' for Active; 'I' for Inactive)
REMARK    1  A    between atoms: C_1  and  C_2 
REMARK       I    between atoms: C_2  and  N_21 
REMARK    2  A    between atoms: C_4  and  C_28 
REMARK    3  A    between atoms: C_7  and  C_16 
REMARK    4  A    between atoms: C_17  and  N_18 
ROOT
HETATM    1  C   UNK N   1      25.665  19.656   3.491  0.00  0.00     0.008 C 
HETATM    2  C   UNK N   1      26.693  20.421   3.893  0.00  0.00    -0.013 C 
HETATM    3  C   UNK N   1      27.854  19.742   4.600  0.00  0.00     0.039 C 
HETATM    4  C   UNK N   1      27.257  18.736   5.626  0.00  0.00     0.048 C 
HETATM    5  C   UNK N   1      26.431  17.650   4.868  0.00  0.00     0.087 C 
HETATM    6  C   UNK N   1      25.800  18.164   3.588  0.00  0.00     0.069 C 
ENDROOT
BRANCH   1   7
HETATM    7  C   UNK N   1      24.413  20.184   2.890  0.00  0.00     0.249 C 
HETATM    8  N   UNK N   1      23.205  19.760   3.378  0.00  0.00    -0.340 N 
HETATM    9  C   UNK N   1      23.154  19.083   4.667  0.00  0.00     0.147 C 
HETATM   10  C   UNK N   1      21.951  20.040   2.688  0.00  0.00     0.204 C 
HETATM   11  C   UNK N   1      22.513  17.723   4.516  0.00  0.00     0.152 C 
HETATM   12  N   UNK N   1      21.265  17.899   3.801  0.00  0.00    -0.314 N 
HETATM   13  C   UNK N   1      20.143  17.165   3.843  0.00  0.00     0.209 A 
HETATM   14  C   UNK N   1      20.980  18.913   2.969  0.00  0.00     0.118 A 
HETATM   15  N   UNK N   1      19.199  17.707   3.044  0.00  0.00    -0.280 N 
HETATM   16  N   UNK N   1      19.724  18.803   2.497  0.00  0.00    -0.286 N 
ATOM     17  HN  UNK N   1      18.258  17.344   2.887  1.00  0.00     0.188 HD
ATOM     18  HN  UNK N   1      19.262  19.438   1.847  1.00  0.00     0.188 HD
HETATM   19  O   UNK N   1      24.466  20.971   1.955  0.00  0.00    -0.268 OA
BRANCH  13  20
HETATM   20  C   UNK N   1      19.934  15.936   4.690  0.00  0.00     0.450 C 
HETATM   21  F   UNK N   1      20.808  14.944   4.294  0.00  0.00    -0.163 F 
HETATM   22  F   UNK N   1      18.635  15.492   4.529  0.00  0.00    -0.163 F 
HETATM   23  F   UNK N   1      20.142  16.197   6.034  0.00  0.00    -0.163 F 
ENDBRANCH  13  20
ENDBRANCH   1   7
BRANCH   5  24
HETATM   24  N   UNK N   1      27.270  16.527   4.475  0.00  0.00    -0.425 N 
HETATM   25  H   UNK N   1      28.219  16.231   4.246  0.00  0.00     0.150 HD
HETATM   26  H   UNK N   1      26.667  15.707   4.401  0.00  0.00     0.150 HD
ENDBRANCH   5  24
BRANCH   4  27
HETATM   27  C   UNK N   1      28.276  18.067   6.535  0.00  0.00    -0.010 A 
HETATM   28  C   UNK N   1      27.970  17.819   7.881  0.00  0.00     0.056 A 
HETATM   29  C   UNK N   1      28.930  17.281   8.740  0.00  0.00     0.155 A 
HETATM   30  C   UNK N   1      30.212  16.992   8.264  0.00  0.00     0.157 A 
HETATM   31  F   UNK N   1      28.618  17.056  10.038  0.00  0.00    -0.203 F 
HETATM   32  C   UNK N   1      30.526  17.219   6.924  0.00  0.00     0.088 A 
HETATM   33  F   UNK N   1      31.155  16.493   9.099  0.00  0.00    -0.203 F 
HETATM   34  C   UNK N   1      29.568  17.749   6.056  0.00  0.00     0.126 A 
HETATM   35  F   UNK N   1      29.912  17.977   4.764  0.00  0.00    -0.205 F 
ENDBRANCH   4  27
TORSDOF 4
ENDMDL
MODEL 4
REMARK VINA RESULT:      -8.2     11.292     14.918
REMARK  4 active torsions:
REMARK  status: ('A' for Active; 'I' for Inactive)
REMARK    1  A    between atoms: C_1  and  C_2 
REMARK       I    between atoms: C_2  and  N_21 
REMARK    2  A    between atoms: C_4  and  C_28 
REMARK    3  A    between atoms: C_7  and  C_16 
REMARK    4  A    between atoms: C_17  and  N_18 
ROOT
HETATM    1  C   UNK N   1      34.588  15.122   9.975  0.00  0.00     0.008 C 
HETATM    2  C   UNK N   1      33.260  14.928  10.013  0.00  0.00    -0.013 C 
HETATM    3  C   UNK N   1      32.524  14.767   8.693  0.00  0.00     0.039 C 
HETATM    4  C   UNK N   1      33.070  15.848   7.715  0.00  0.00     0.048 C 
HETATM    5  C   UNK N   1      34.591  15.605   7.470  0.00  0.00     0.087 C 
HETATM    6  C   UNK N   1      35.298  14.980   8.659  0.00  0.00     0.069 C 
ENDROOT
BRANCH   1   7
HETATM    7  C   UNK N   1      35.427  15.407  11.167  0.00  0.00     0.249 C 
HETATM    8  N   UNK N   1      35.729  14.390  12.034  0.00  0.00    -0.340 N 
HETATM    9  C   UNK N   1      35.524  13.010  11.613  0.00  0.00     0.147 C 
HETATM   10  C   UNK N   1      36.332  14.637  13.338  0.00  0.00     0.204 C 
HETATM   11  C   UNK N   1      34.601  12.303  12.579  0.00  0.00     0.152 C 
HETATM   12  N   UNK N   1      35.106  12.527  13.918  0.00  0.00    -0.314 N 
HETATM   13  C   UNK N   1      34.983  11.769  15.018  0.00  0.00     0.209 A 
HETATM   14  C   UNK N   1      35.872  13.562  14.299  0.00  0.00     0.118 A 
HETATM   15  N   UNK N   1      35.644  12.334  16.051  0.00  0.00    -0.280 N 
HETATM   16  N   UNK N   1      36.201  13.456  15.600  0.00  0.00    -0.286 N 
ATOM     17  HN  UNK N   1      35.705  11.968  17.002  1.00  0.00     0.188 HD
ATOM     18  HN  UNK N   1      36.771  14.110  16.137  1.00  0.00     0.188 HD
HETATM   19  O   UNK N   1      35.822  16.545  11.381  0.00  0.00    -0.268 OA
BRANCH  13  20
HETATM   20  C   UNK N   1      34.255  10.452  15.094  0.00  0.00     0.450 C 
HETATM   21  F   UNK N   1      32.939  10.625  14.714  0.00  0.00    -0.163 F 
HETATM   22  F   UNK N   1      34.297   9.987  16.395  0.00  0.00    -0.163 F 
HETATM   23  F   UNK N   1      34.829   9.499  14.271  0.00  0.00    -0.163 F 
ENDBRANCH  13  20
ENDBRANCH   1   7
BRANCH   5  24
HETATM   24  N   UNK N   1      34.809  14.695   6.355  0.00  0.00    -0.425 N 
HETATM   25  H   UNK N   1      34.776  14.592   5.340  0.00  0.00     0.150 HD
HETATM   26  H   UNK N   1      35.121  13.805   6.743  0.00  0.00     0.150 HD
ENDBRANCH   5  24
BRANCH   4  27
HETATM   27  C   UNK N   1      32.340  15.932   6.384  0.00  0.00    -0.010 A 
HETATM   28  C   UNK N   1      31.459  14.913   5.994  0.00  0.00     0.056 A 
HETATM   29  C   UNK N   1      30.850  14.944   4.738  0.00  0.00     0.155 A 
HETATM   30  C   UNK N   1      31.120  15.992   3.854  0.00  0.00     0.157 A 
HETATM   31  F   UNK N   1      30.009  13.947   4.376  0.00  0.00    -0.203 F 
HETATM   32  C   UNK N   1      31.982  17.021   4.235  0.00  0.00     0.088 A 
HETATM   33  F   UNK N   1      30.550  16.014   2.625  0.00  0.00    -0.203 F 
HETATM   34  C   UNK N   1      32.589  17.002   5.493  0.00  0.00     0.126 A 
HETATM   35  F   UNK N   1      33.437  18.006   5.824  0.00  0.00    -0.205 F 
ENDBRANCH   4  27
TORSDOF 4
ENDMDL
MODEL 5
REMARK VINA RESULT:      -8.2     12.142     15.478
REMARK  4 active torsions:
REMARK  status: ('A' for Active; 'I' for Inactive)
REMARK    1  A    between atoms: C_1  and  C_2 
REMARK       I    between atoms: C_2  and  N_21 
REMARK    2  A    between atoms: C_4  and  C_28 
REMARK    3  A    between atoms: C_7  and  C_16 
REMARK    4  A    between atoms: C_17  and  N_18 
ROOT
HETATM    1  C   UNK N   1      36.715  14.247   9.478  0.00  0.00     0.008 C 
HETATM    2  C   UNK N   1      36.412  14.069   8.182  0.00  0.00    -0.013 C 
HETATM    3  C   UNK N   1      35.337  14.955   7.573  0.00  0.00     0.039 C 
HETATM    4  C   UNK N   1      34.159  15.031   8.587  0.00  0.00     0.048 C 
HETATM    5  C   UNK N   1      34.656  15.689   9.911  0.00  0.00     0.087 C 
HETATM    6  C   UNK N   1      36.121  15.422  10.200  0.00  0.00     0.069 C 
ENDROOT
BRANCH   1   7
HETATM    7  C   UNK N   1      37.657  13.389  10.242  0.00  0.00     0.249 C 
HETATM    8  N   UNK N   1      37.158  12.430  11.083  0.00  0.00    -0.340 N 
HETATM    9  C   UNK N   1      35.761  12.035  10.966  0.00  0.00     0.147 C 
HETATM   10  C   UNK N   1      38.003  11.724  12.040  0.00  0.00     0.204 C 
HETATM   11  C   UNK N   1      35.052  12.229  12.286  0.00  0.00     0.152 C 
HETATM   12  N   UNK N   1      35.846  11.585  13.313  0.00  0.00    -0.314 N 
HETATM   13  C   UNK N   1      35.464  11.051  14.483  0.00  0.00     0.209 A 
HETATM   14  C   UNK N   1      37.167  11.352  13.245  0.00  0.00     0.118 A 
HETATM   15  N   UNK N   1      36.527  10.517  15.122  0.00  0.00    -0.280 N 
HETATM   16  N   UNK N   1      37.593  10.705  14.346  0.00  0.00    -0.286 N 
ATOM     17  HN  UNK N   1      36.515  10.055  16.032  1.00  0.00     0.188 HD
ATOM     18  HN  UNK N   1      38.549  10.413  14.547  1.00  0.00     0.188 HD
HETATM   19  O   UNK N   1      38.863  13.559  10.136  0.00  0.00    -0.268 OA
BRANCH  13  20
HETATM   20  C   UNK N   1      34.050  11.003  15.000  0.00  0.00     0.450 C 
HETATM   21  F   UNK N   1      33.641  12.273  15.354  0.00  0.00    -0.163 F 
HETATM   22  F   UNK N   1      34.003  10.182  16.111  0.00  0.00    -0.163 F 
HETATM   23  F   UNK N   1      33.172  10.505  14.053  0.00  0.00    -0.163 F 
ENDBRANCH  13  20
ENDBRANCH   1   7
BRANCH   5  24
HETATM   24  N   UNK N   1      34.517  17.138   9.866  0.00  0.00    -0.425 N 
HETATM   25  H   UNK N   1      34.524  17.997  10.416  0.00  0.00     0.150 HD
HETATM   26  H   UNK N   1      34.345  17.398   8.895  0.00  0.00     0.150 HD
ENDBRANCH   5  24
BRANCH   4  27
HETATM   27  C   UNK N   1      32.924  15.759   8.080  0.00  0.00    -0.010 A 
HETATM   28  C   UNK N   1      32.955  16.434   6.852  0.00  0.00     0.056 A 
HETATM   29  C   UNK N   1      31.853  17.173   6.420  0.00  0.00     0.155 A 
HETATM   30  C   UNK N   1      30.706  17.251   7.216  0.00  0.00     0.157 A 
HETATM   31  F   UNK N   1      31.904  17.825   5.234  0.00  0.00    -0.203 F 
HETATM   32  C   UNK N   1      30.656  16.572   8.433  0.00  0.00     0.088 A 
HETATM   33  F   UNK N   1      29.643  17.987   6.813  0.00  0.00    -0.203 F 
HETATM   34  C   UNK N   1      31.752  15.823   8.868  0.00  0.00     0.126 A 
HETATM   35  F   UNK N   1      31.677  15.191  10.066  0.00  0.00    -0.205 F 
ENDBRANCH   4  27
TORSDOF 4
ENDMDL
MODEL 6
REMARK VINA RESULT:      -8.1     10.476     12.261
REMARK  4 active torsions:
REMARK  status: ('A' for Active; 'I' for Inactive)
REMARK    1  A    between atoms: C_1  and  C_2 
REMARK       I    between atoms: C_2  and  N_21 
REMARK    2  A    between atoms: C_4  and  C_28 
REMARK    3  A    between atoms: C_7  and  C_16 
REMARK    4  A    between atoms: C_17  and  N_18 
ROOT
HETATM    1  C   UNK N   1      34.574  15.358   8.455  0.00  0.00     0.008 C 
HETATM    2  C   UNK N   1      33.819  14.305   8.807  0.00  0.00    -0.013 C 
HETATM    3  C   UNK N   1      34.017  13.718  10.195  0.00  0.00     0.039 C 
HETATM    4  C   UNK N   1      35.549  13.630  10.455  0.00  0.00     0.048 C 
HETATM    5  C   UNK N   1      36.163  15.064  10.428  0.00  0.00     0.087 C 
HETATM    6  C   UNK N   1      35.426  16.014   9.502  0.00  0.00     0.069 C 
ENDROOT
BRANCH   1   7
HETATM    7  C   UNK N   1      34.578  15.969   7.100  0.00  0.00     0.249 C 
HETATM    8  N   UNK N   1      33.534  16.773   6.725  0.00  0.00    -0.340 N 
HETATM    9  C   UNK N   1      32.628  17.288   7.742  0.00  0.00     0.147 C 
HETATM   10  C   UNK N   1      33.347  17.204   5.344  0.00  0.00     0.204 C 
HETATM   11  C   UNK N   1      31.206  16.884   7.427  0.00  0.00     0.152 C 
HETATM   12  N   UNK N   1      30.940  17.244   6.049  0.00  0.00    -0.314 N 
HETATM   13  C   UNK N   1      29.779  17.557   5.454  0.00  0.00     0.209 A 
HETATM   14  C   UNK N   1      31.867  17.386   5.087  0.00  0.00     0.118 A 
HETATM   15  N   UNK N   1      29.987  17.869   4.157  0.00  0.00    -0.280 N 
HETATM   16  N   UNK N   1      31.295  17.762   3.928  0.00  0.00    -0.286 N 
ATOM     17  HN  UNK N   1      29.274  18.135   3.477  1.00  0.00     0.188 HD
ATOM     18  HN  UNK N   1      31.773  17.934   3.043  1.00  0.00     0.188 HD
HETATM   19  O   UNK N   1      35.494  15.734   6.324  0.00  0.00    -0.268 OA
BRANCH  13  20
HETATM   20  C   UNK N   1      28.435  17.606   6.134  0.00  0.00     0.450 C 
HETATM   21  F   UNK N   1      28.121  16.358   6.633  0.00  0.00    -0.163 F 
HETATM   22  F   UNK N   1      27.476  17.983   5.212  0.00  0.00    -0.163 F 
HETATM   23  F   UNK N   1      28.419  18.515   7.177  0.00  0.00    -0.163 F 
ENDBRANCH  13  20
ENDBRANCH   1   7
BRANCH   5  24
HETATM   24  N   UNK N   1      36.122  15.682  11.746  0.00  0.00    -0.425 N 
HETATM   25  H   UNK N   1      35.626  15.722  12.637  0.00  0.00     0.150 HD
HETATM   26  H   UNK N   1      36.903  16.336  11.801  0.00  0.00     0.150 HD
ENDBRANCH   5  24
BRANCH   4  27
HETATM   27  C   UNK N   1      35.939  12.926  11.745  0.00  0.00    -0.010 A 
HETATM   28  C   UNK N   1      35.032  12.850  12.812  0.00  0.00     0.056 A 
HETATM   29  C   UNK N   1      35.413  12.278  14.027  0.00  0.00     0.155 A 
HETATM   30  C   UNK N   1      36.708  11.781  14.193  0.00  0.00     0.157 A 
HETATM   31  F   UNK N   1      34.526  12.221  15.049  0.00  0.00    -0.203 F 
HETATM   32  C   UNK N   1      37.616  11.836  13.134  0.00  0.00     0.088 A 
HETATM   33  F   UNK N   1      37.090  11.247  15.378  0.00  0.00    -0.203 F 
HETATM   34  C   UNK N   1      37.240  12.399  11.912  0.00  0.00     0.126 A 
HETATM   35  F   UNK N   1      38.153  12.455  10.911  0.00  0.00    -0.205 F 
ENDBRANCH   4  27
TORSDOF 4
ENDMDL
MODEL 7
REMARK VINA RESULT:      -8.0      5.239      7.558
REMARK  4 active torsions:
REMARK  status: ('A' for Active; 'I' for Inactive)
REMARK    1  A    between atoms: C_1  and  C_2 
REMARK       I    between atoms: C_2  and  N_21 
REMARK    2  A    between atoms: C_4  and  C_28 
REMARK    3  A    between atoms: C_7  and  C_16 
REMARK    4  A    between atoms: C_17  and  N_18 
ROOT
HETATM    1  C   UNK N   1      27.155  16.382   3.286  0.00  0.00     0.008 C 
HETATM    2  C   UNK N   1      26.464  15.389   2.703  0.00  0.00    -0.013 C 
HETATM    3  C   UNK N   1      24.951  15.514   2.641  0.00  0.00     0.039 C 
HETATM    4  C   UNK N   1      24.463  16.016   4.031  0.00  0.00     0.048 C 
HETATM    5  C   UNK N   1      25.068  17.425   4.315  0.00  0.00     0.087 C 
HETATM    6  C   UNK N   1      26.425  17.636   3.671  0.00  0.00     0.069 C 
ENDROOT
BRANCH   1   7
HETATM    7  C   UNK N   1      28.622  16.354   3.523  0.00  0.00     0.249 C 
HETATM    8  N   UNK N   1      29.091  16.264   4.807  0.00  0.00    -0.340 N 
HETATM    9  C   UNK N   1      28.182  15.860   5.873  0.00  0.00     0.147 C 
HETATM   10  C   UNK N   1      30.496  16.477   5.135  0.00  0.00     0.204 C 
HETATM   11  C   UNK N   1      28.146  16.914   6.955  0.00  0.00     0.152 C 
HETATM   12  N   UNK N   1      29.515  17.219   7.321  0.00  0.00    -0.314 N 
HETATM   13  C   UNK N   1      30.011  17.665   8.485  0.00  0.00     0.209 A 
HETATM   14  C   UNK N   1      30.589  17.048   6.533  0.00  0.00     0.118 A 
HETATM   15  N   UNK N   1      31.354  17.779   8.407  0.00  0.00    -0.280 N 
HETATM   16  N   UNK N   1      31.715  17.392   7.185  0.00  0.00    -0.286 N 
ATOM     17  HN  UNK N   1      31.977  18.103   9.148  1.00  0.00     0.188 HD
ATOM     18  HN  UNK N   1      32.665  17.360   6.814  1.00  0.00     0.188 HD
HETATM   19  O   UNK N   1      29.397  16.435   2.581  0.00  0.00    -0.268 OA
BRANCH  13  20
HETATM   20  C   UNK N   1      29.205  17.956   9.724  0.00  0.00     0.450 C 
HETATM   21  F   UNK N   1      29.792  18.986  10.430  0.00  0.00    -0.163 F 
HETATM   22  F   UNK N   1      29.168  16.823  10.515  0.00  0.00    -0.163 F 
HETATM   23  F   UNK N   1      27.904  18.317   9.418  0.00  0.00    -0.163 F 
ENDBRANCH  13  20
ENDBRANCH   1   7
BRANCH   5  24
HETATM   24  N   UNK N   1      24.212  18.482   3.796  0.00  0.00    -0.425 N 
HETATM   25  H   UNK N   1      23.389  19.058   3.977  0.00  0.00     0.150 HD
HETATM   26  H   UNK N   1      24.585  18.760   2.888  0.00  0.00     0.150 HD
ENDBRANCH   5  24
BRANCH   4  27
HETATM   27  C   UNK N   1      22.953  16.059   4.201  0.00  0.00    -0.010 A 
HETATM   28  C   UNK N   1      22.114  16.087   3.077  0.00  0.00     0.056 A 
HETATM   29  C   UNK N   1      20.731  16.209   3.226  0.00  0.00     0.155 A 
HETATM   30  C   UNK N   1      20.170  16.312   4.502  0.00  0.00     0.157 A 
HETATM   31  F   UNK N   1      19.939  16.243   2.128  0.00  0.00    -0.203 F 
HETATM   32  C   UNK N   1      20.991  16.270   5.629  0.00  0.00     0.088 A 
HETATM   33  F   UNK N   1      18.832  16.456   4.651  0.00  0.00    -0.203 F 
HETATM   34  C   UNK N   1      22.375  16.138   5.489  0.00  0.00     0.126 A 
HETATM   35  F   UNK N   1      23.145  16.121   6.605  0.00  0.00    -0.205 F 
ENDBRANCH   4  27
TORSDOF 4
ENDMDL
MODEL 8
REMARK VINA RESULT:      -7.9     10.598     12.352
REMARK  4 active torsions:
REMARK  status: ('A' for Active; 'I' for Inactive)
REMARK    1  A    between atoms: C_1  and  C_2 
REMARK       I    between atoms: C_2  and  N_21 
REMARK    2  A    between atoms: C_4  and  C_28 
REMARK    3  A    between atoms: C_7  and  C_16 
REMARK    4  A    between atoms: C_17  and  N_18 
ROOT
HETATM    1  C   UNK N   1      34.528  14.203   7.365  0.00  0.00     0.008 C 
HETATM    2  C   UNK N   1      35.863  14.260   7.499  0.00  0.00    -0.013 C 
HETATM    3  C   UNK N   1      36.487  13.593   8.714  0.00  0.00     0.039 C 
HETATM    4  C   UNK N   1      35.619  13.963   9.952  0.00  0.00     0.048 C 
HETATM    5  C   UNK N   1      34.176  13.401   9.761  0.00  0.00     0.087 C 
HETATM    6  C   UNK N   1      33.748  13.332   8.307  0.00  0.00     0.069 C 
ENDROOT
BRANCH   1   7
HETATM    7  C   UNK N   1      33.763  14.899   6.298  0.00  0.00     0.249 C 
HETATM    8  N   UNK N   1      32.935  15.937   6.635  0.00  0.00    -0.340 N 
HETATM    9  C   UNK N   1      33.067  16.558   7.946  0.00  0.00     0.147 C 
HETATM   10  C   UNK N   1      31.977  16.501   5.691  0.00  0.00     0.204 C 
HETATM   11  C   UNK N   1      31.751  16.499   8.687  0.00  0.00     0.152 C 
HETATM   12  N   UNK N   1      30.723  17.011   7.803  0.00  0.00    -0.314 N 
HETATM   13  C   UNK N   1      29.562  17.613   8.099  0.00  0.00     0.209 A 
HETATM   14  C   UNK N   1      30.782  17.020   6.462  0.00  0.00     0.118 A 
HETATM   15  N   UNK N   1      28.918  17.969   6.966  0.00  0.00    -0.280 N 
HETATM   16  N   UNK N   1      29.683  17.597   5.941  0.00  0.00    -0.286 N 
ATOM     17  HN  UNK N   1      28.012  18.435   6.907  1.00  0.00     0.188 HD
ATOM     18  HN  UNK N   1      29.477  17.727   4.951  1.00  0.00     0.188 HD
HETATM   19  O   UNK N   1      33.857  14.529   5.136  0.00  0.00    -0.268 OA
BRANCH  13  20
HETATM   20  C   UNK N   1      29.057  17.902   9.489  0.00  0.00     0.450 C 
HETATM   21  F   UNK N   1      27.743  18.320   9.429  0.00  0.00    -0.163 F 
HETATM   22  F   UNK N   1      29.828  18.901  10.051  0.00  0.00    -0.163 F 
HETATM   23  F   UNK N   1      29.128  16.785  10.304  0.00  0.00    -0.163 F 
ENDBRANCH  13  20
ENDBRANCH   1   7
BRANCH   5  24
HETATM   24  N   UNK N   1      34.066  12.043  10.273  0.00  0.00    -0.425 N 
HETATM   25  H   UNK N   1      34.437  11.094  10.215  0.00  0.00     0.150 HD
HETATM   26  H   UNK N   1      33.320  12.038  10.969  0.00  0.00     0.150 HD
ENDBRANCH   5  24
BRANCH   4  27
HETATM   27  C   UNK N   1      36.180  13.502  11.287  0.00  0.00    -0.010 A 
HETATM   28  C   UNK N   1      36.921  12.314  11.371  0.00  0.00     0.056 A 
HETATM   29  C   UNK N   1      37.368  11.842  12.607  0.00  0.00     0.155 A 
HETATM   30  C   UNK N   1      37.074  12.550  13.775  0.00  0.00     0.157 A 
HETATM   31  F   UNK N   1      38.075  10.689  12.669  0.00  0.00    -0.203 F 
HETATM   32  C   UNK N   1      36.351  13.741  13.705  0.00  0.00     0.088 A 
HETATM   33  F   UNK N   1      37.484  12.084  14.979  0.00  0.00    -0.203 F 
HETATM   34  C   UNK N   1      35.908  14.225  12.471  0.00  0.00     0.126 A 
HETATM   35  F   UNK N   1      35.190  15.375  12.441  0.00  0.00    -0.205 F 
ENDBRANCH   4  27
TORSDOF 4
ENDMDL
MODEL 9
REMARK VINA RESULT:      -7.9     13.631     16.961
REMARK  4 active torsions:
REMARK  status: ('A' for Active; 'I' for Inactive)
REMARK    1  A    between atoms: C_1  and  C_2 
REMARK       I    between atoms: C_2  and  N_21 
REMARK    2  A    between atoms: C_4  and  C_28 
REMARK    3  A    between atoms: C_7  and  C_16 
REMARK    4  A    between atoms: C_17  and  N_18 
ROOT
HETATM    1  C   UNK N   1      36.814  11.370  11.013  0.00  0.00     0.008 C 
HETATM    2  C   UNK N   1      36.079  11.172   9.907  0.00  0.00    -0.013 C 
HETATM    3  C   UNK N   1      35.828  12.362   8.996  0.00  0.00     0.039 C 
HETATM    4  C   UNK N   1      35.465  13.578   9.898  0.00  0.00     0.048 C 
HETATM    5  C   UNK N   1      36.671  13.910  10.830  0.00  0.00     0.087 C 
HETATM    6  C   UNK N   1      37.501  12.693  11.193  0.00  0.00     0.069 C 
ENDROOT
BRANCH   1   7
HETATM    7  C   UNK N   1      37.051  10.338  12.056  0.00  0.00     0.249 C 
HETATM    8  N   UNK N   1      36.406  10.441  13.260  0.00  0.00    -0.340 N 
HETATM    9  C   UNK N   1      35.264  11.337  13.383  0.00  0.00     0.147 C 
HETATM   10  C   UNK N   1      36.770   9.616  14.406  0.00  0.00     0.204 C 
HETATM   11  C   UNK N   1      35.505  12.340  14.488  0.00  0.00     0.152 C 
HETATM   12  N   UNK N   1      35.912  11.606  15.670  0.00  0.00    -0.314 N 
HETATM   13  C   UNK N   1      35.765  11.920  16.965  0.00  0.00     0.209 A 
HETATM   14  C   UNK N   1      36.489  10.394  15.674  0.00  0.00     0.118 A 
HETATM   15  N   UNK N   1      36.255  10.931  17.744  0.00  0.00    -0.280 N 
HETATM   16  N   UNK N   1      36.707   9.976  16.934  0.00  0.00    -0.286 N 
ATOM     17  HN  UNK N   1      36.275  10.920  18.764  1.00  0.00     0.188 HD
ATOM     18  HN  UNK N   1      37.135   9.094  17.216  1.00  0.00     0.188 HD
HETATM   19  O   UNK N   1      37.834   9.422  11.845  0.00  0.00    -0.268 OA
BRANCH  13  20
HETATM   20  C   UNK N   1      35.109  13.170  17.492  0.00  0.00     0.450 C 
HETATM   21  F   UNK N   1      34.813  13.011  18.831  0.00  0.00    -0.163 F 
HETATM   22  F   UNK N   1      33.940  13.397  16.790  0.00  0.00    -0.163 F 
HETATM   23  F   UNK N   1      35.926  14.278  17.350  0.00  0.00    -0.163 F 
ENDBRANCH  13  20
ENDBRANCH   1   7
BRANCH   5  24
HETATM   24  N   UNK N   1      37.590  14.843  10.194  0.00  0.00    -0.425 N 
HETATM   25  H   UNK N   1      38.382  14.935   9.558  0.00  0.00     0.150 HD
HETATM   26  H   UNK N   1      37.342  15.780  10.512  0.00  0.00     0.150 HD
ENDBRANCH   5  24
BRANCH   4  27
HETATM   27  C   UNK N   1      35.035  14.827   9.146  0.00  0.00    -0.010 A 
HETATM   28  C   UNK N   1      35.077  14.859   7.744  0.00  0.00     0.056 A 
HETATM   29  C   UNK N   1      34.763  16.029   7.051  0.00  0.00     0.155 A 
HETATM   30  C   UNK N   1      34.408  17.185   7.752  0.00  0.00     0.157 A 
HETATM   31  F   UNK N   1      34.817  16.043   5.698  0.00  0.00    -0.203 F 
HETATM   32  C   UNK N   1      34.347  17.163   9.146  0.00  0.00     0.088 A 
HETATM   33  F   UNK N   1      34.126  18.330   7.085  0.00  0.00    -0.203 F 
HETATM   34  C   UNK N   1      34.652  15.994   9.846  0.00  0.00     0.126 A 
HETATM   35  F   UNK N   1      34.603  16.013  11.201  0.00  0.00    -0.205 F 
ENDBRANCH   4  27
TORSDOF 4
ENDMDL
