REMARK  9 active torsions:
REMARK  status: ('A' for Active; 'I' for Inactive)
REMARK    1  A    between atoms: C_1  and  O_8 
REMARK    2  A    between atoms: C_4  and  O_7 
REMARK    3  A    between atoms: C_5  and  C_10 
REMARK    4  A    between atoms: C_11  and  C_16 
REMARK    5  A    between atoms: C_21  and  O_22 
REMARK    6  A    between atoms: O_22  and  C_23 
REMARK    7  A    between atoms: C_23  and  C_24 
REMARK    8  A    between atoms: C_24  and  C_25 
REMARK    9  A    between atoms: C_25  and  N_26 
ROOT
HETATM    1  C   UNK N   1      -2.790  -1.474  -0.103  0.00  0.00     0.073 A 
HETATM    2  C   UNK N   1      -1.533  -2.078  -0.101  0.00  0.00     0.020 A 
HETATM    3  N   UNK N   1      -3.108  -3.621   0.035  0.00  0.00    -0.310 N 
ATOM      4  HN  UNK N   1      -3.574  -4.526   0.090  1.00  0.00     0.186 HD
HETATM    5  C   UNK N   1      -1.771  -3.432   0.018  0.00  0.00     0.121 A 
HETATM    6  N   UNK N   1      -3.718  -2.450  -0.031  0.00  0.00    -0.299 N 
HETATM    7  H   UNK N   1      -4.692  -2.313  -0.028  0.00  0.00     0.187 HD
ENDROOT
BRANCH   2   8
HETATM    8  C   UNK N   1      -0.196  -1.454  -0.115  0.00  0.00    -0.022 A 
HETATM    9  C   UNK N   1       0.090  -0.355  -0.940  0.00  0.00     0.015 A 
HETATM   10  C   UNK N   1       1.312   0.308  -0.841  0.00  0.00     0.037 A 
HETATM   11  C   UNK N   1       2.258  -0.119   0.101  0.00  0.00     0.068 A 
HETATM   12  C   UNK N   1       1.994  -1.244   0.886  0.00  0.00     0.037 A 
HETATM   13  C   UNK N   1       0.781  -1.920   0.768  0.00  0.00     0.015 A 
BRANCH  11  14
HETATM   14  O   UNK N   1       3.429   0.522   0.275  0.00  0.00    -0.351 OA
BRANCH  14  15
HETATM   15  C   UNK N   1       3.906   1.507  -0.558  0.00  0.00     0.177 C 
BRANCH  15  16
HETATM   16  C   UNK N   1       5.407   1.609  -0.352  0.00  0.00     0.046 C 
BRANCH  16  17
HETATM   17  C   UNK N   1       6.039   0.231  -0.485  0.00  0.00     0.113 C 
BRANCH  17  18
HETATM   18  N   UNK N   1       7.380   0.250   0.065  0.00  0.00    -0.430 N 
HETATM   19  H   UNK N   1       7.864  -0.561   0.451  0.00  0.00     0.149 HD
HETATM   20  H   UNK N   1       7.878   1.140   0.065  0.00  0.00     0.149 HD
ENDBRANCH  17  18
ENDBRANCH  16  17
ENDBRANCH  15  16
ENDBRANCH  14  15
ENDBRANCH  11  14
ENDBRANCH   2   8
BRANCH   1  21
HETATM   21  C   UNK N   1      -3.128  -0.017  -0.034  0.00  0.00     0.028 A 
HETATM   22  C   UNK N   1      -4.464   0.445  -0.004  0.00  0.00     0.081 A 
HETATM   23  C   UNK N   1      -4.730   1.817   0.106  0.00  0.00     0.075 A 
HETATM   24  C   UNK N   1      -3.684   2.740   0.193  0.00  0.00     0.090 A 
HETATM   25  C   UNK N   1      -2.363   2.291   0.175  0.00  0.00     0.068 A 
HETATM   26  C   UNK N   1      -2.105   0.931   0.071  0.00  0.00     0.043 A 
HETATM   27 Cl   UNK N   1      -1.014   3.410   0.280  0.00  0.00    -0.081 Cl
BRANCH  22  28
HETATM   28  O   UNK N   1      -5.496  -0.414  -0.071  0.00  0.00    -0.360 OA
HETATM   29  H   UNK N   1      -6.374  -0.091  -0.117  0.00  0.00     0.217 HD
ENDBRANCH  22  28
BRANCH  24  30
HETATM   30  O   UNK N   1      -3.954   4.052   0.296  0.00  0.00    -0.359 OA
HETATM   31  H   UNK N   1      -3.256   4.673   0.368  0.00  0.00     0.217 HD
ENDBRANCH  24  30
ENDBRANCH   1  21
TORSDOF 9
