MODEL 1
REMARK VINA RESULT:      -6.5      0.000      0.000
REMARK  9 active torsions:
REMARK  status: ('A' for Active; 'I' for Inactive)
REMARK    1  A    between atoms: C_1  and  O_8 
REMARK    2  A    between atoms: C_4  and  O_7 
REMARK    3  A    between atoms: C_5  and  C_10 
REMARK    4  A    between atoms: C_11  and  C_16 
REMARK    5  A    between atoms: C_21  and  O_22 
REMARK    6  A    between atoms: O_22  and  C_23 
REMARK    7  A    between atoms: C_23  and  C_24 
REMARK    8  A    between atoms: C_24  and  C_25 
REMARK    9  A    between atoms: C_25  and  N_26 
ROOT
HETATM    1  C   UNK N   1      26.890  24.364  -5.786  0.00  0.00     0.073 A 
HETATM    2  C   UNK N   1      26.320  25.585  -6.146  0.00  0.00     0.020 A 
HETATM    3  N   UNK N   1      25.713  24.020  -7.582  0.00  0.00    -0.310 N 
ATOM      4  HN  UNK N   1      25.266  23.548  -8.367  1.00  0.00     0.186 HD
HETATM    5  C   UNK N   1      25.608  25.337  -7.301  0.00  0.00     0.121 A 
HETATM    6  N   UNK N   1      26.485  23.439  -6.679  0.00  0.00    -0.299 N 
HETATM    7  H   UNK N   1      26.724  22.485  -6.663  0.00  0.00     0.187 HD
ENDROOT
BRANCH   2   8
HETATM    8  C   UNK N   1      26.488  26.914  -5.526  0.00  0.00    -0.022 A 
HETATM    9  C   UNK N   1      25.965  27.200  -4.256  0.00  0.00     0.015 A 
HETATM   10  C   UNK N   1      26.249  28.412  -3.628  0.00  0.00     0.037 A 
HETATM   11  C   UNK N   1      27.077  29.346  -4.265  0.00  0.00     0.068 A 
HETATM   12  C   UNK N   1      27.555  29.082  -5.551  0.00  0.00     0.037 A 
HETATM   13  C   UNK N   1      27.250  27.881  -6.187  0.00  0.00     0.015 A 
BRANCH  11  14
HETATM   14  O   UNK N   1      27.427  30.505  -3.677  0.00  0.00    -0.351 OA
BRANCH  14  15
HETATM   15  C   UNK N   1      27.613  30.663  -2.324  0.00  0.00     0.177 C 
BRANCH  15  16
HETATM   16  C   UNK N   1      29.094  30.493  -2.031  0.00  0.00     0.046 C 
BRANCH  16  17
HETATM   17  C   UNK N   1      29.283  30.016  -0.598  0.00  0.00     0.113 C 
BRANCH  17  18
HETATM   18  N   UNK N   1      27.995  29.709  -0.008  0.00  0.00    -0.430 N 
HETATM   19  H   UNK N   1      27.577  28.779   0.029  0.00  0.00     0.149 HD
HETATM   20  H   UNK N   1      27.467  30.479   0.402  0.00  0.00     0.149 HD
ENDBRANCH  17  18
ENDBRANCH  16  17
ENDBRANCH  15  16
ENDBRANCH  14  15
ENDBRANCH  11  14
ENDBRANCH   2   8
BRANCH   1  21
HETATM   21  C   UNK N   1      27.901  24.082  -4.718  0.00  0.00     0.028 A 
HETATM   22  C   UNK N   1      27.530  23.850  -3.373  0.00  0.00     0.081 A 
HETATM   23  C   UNK N   1      28.509  23.546  -2.417  0.00  0.00     0.075 A 
HETATM   24  C   UNK N   1      29.856  23.463  -2.780  0.00  0.00     0.090 A 
HETATM   25  C   UNK N   1      30.229  23.680  -4.107  0.00  0.00     0.068 A 
HETATM   26  C   UNK N   1      29.255  23.976  -5.051  0.00  0.00     0.043 A 
HETATM   27 Cl   UNK N   1      31.908  23.589  -4.613  0.00  0.00    -0.081 Cl
BRANCH  22  28
HETATM   28  O   UNK N   1      26.243  23.907  -2.990  0.00  0.00    -0.360 OA
HETATM   29  H   UNK N   1      25.874  24.718  -2.701  0.00  0.00     0.217 HD
ENDBRANCH  22  28
BRANCH  24  30
HETATM   30  O   UNK N   1      30.784  23.172  -1.853  0.00  0.00    -0.359 OA
HETATM   31  H   UNK N   1      31.687  23.104  -2.094  0.00  0.00     0.217 HD
ENDBRANCH  24  30
ENDBRANCH   1  21
TORSDOF 9
ENDMDL
MODEL 2
REMARK VINA RESULT:      -6.5     13.494     16.557
REMARK  9 active torsions:
REMARK  status: ('A' for Active; 'I' for Inactive)
REMARK    1  A    between atoms: C_1  and  O_8 
REMARK    2  A    between atoms: C_4  and  O_7 
REMARK    3  A    between atoms: C_5  and  C_10 
REMARK    4  A    between atoms: C_11  and  C_16 
REMARK    5  A    between atoms: C_21  and  O_22 
REMARK    6  A    between atoms: O_22  and  C_23 
REMARK    7  A    between atoms: C_23  and  C_24 
REMARK    8  A    between atoms: C_24  and  C_25 
REMARK    9  A    between atoms: C_25  and  N_26 
ROOT
HETATM    1  C   UNK N   1      30.978  16.587   5.130  0.00  0.00     0.073 A 
HETATM    2  C   UNK N   1      32.317  16.245   5.321  0.00  0.00     0.020 A 
HETATM    3  N   UNK N   1      31.590  15.399   3.414  0.00  0.00    -0.310 N 
ATOM      4  HN  UNK N   1      31.563  14.911   2.519  1.00  0.00     0.186 HD
HETATM    5  C   UNK N   1      32.661  15.469   4.233  0.00  0.00     0.121 A 
HETATM    6  N   UNK N   1      30.581  16.062   3.953  0.00  0.00    -0.299 N 
HETATM    7  H   UNK N   1      29.685  16.157   3.558  0.00  0.00     0.187 HD
ENDROOT
BRANCH   2   8
HETATM    8  C   UNK N   1      33.200  16.531   6.467  0.00  0.00    -0.022 A 
HETATM    9  C   UNK N   1      33.658  17.831   6.732  0.00  0.00     0.015 A 
HETATM   10  C   UNK N   1      34.377  18.108   7.894  0.00  0.00     0.037 A 
HETATM   11  C   UNK N   1      34.632  17.081   8.812  0.00  0.00     0.068 A 
HETATM   12  C   UNK N   1      34.221  15.777   8.524  0.00  0.00     0.037 A 
HETATM   13  C   UNK N   1      33.524  15.498   7.350  0.00  0.00     0.015 A 
BRANCH  11  14
HETATM   14  O   UNK N   1      35.272  17.308   9.975  0.00  0.00    -0.351 OA
BRANCH  14  15
HETATM   15  C   UNK N   1      35.211  16.477  11.069  0.00  0.00     0.177 C 
BRANCH  15  16
HETATM   16  C   UNK N   1      36.477  15.640  11.093  0.00  0.00     0.046 C 
BRANCH  16  17
HETATM   17  C   UNK N   1      36.213  14.329  11.821  0.00  0.00     0.113 C 
BRANCH  17  18
HETATM   18  N   UNK N   1      36.691  14.420  13.186  0.00  0.00    -0.430 N 
HETATM   19  H   UNK N   1      37.463  13.876  13.572  0.00  0.00     0.149 HD
HETATM   20  H   UNK N   1      36.223  15.079  13.809  0.00  0.00     0.149 HD
ENDBRANCH  17  18
ENDBRANCH  16  17
ENDBRANCH  15  16
ENDBRANCH  14  15
ENDBRANCH  11  14
ENDBRANCH   2   8
BRANCH   1  21
HETATM   21  C   UNK N   1      30.042  17.268   6.079  0.00  0.00     0.028 A 
HETATM   22  C   UNK N   1      29.053  18.178   5.638  0.00  0.00     0.081 A 
HETATM   23  C   UNK N   1      28.171  18.757   6.560  0.00  0.00     0.075 A 
HETATM   24  C   UNK N   1      28.253  18.440   7.919  0.00  0.00     0.090 A 
HETATM   25  C   UNK N   1      29.219  17.536   8.361  0.00  0.00     0.068 A 
HETATM   26  C   UNK N   1      30.087  16.961   7.443  0.00  0.00     0.043 A 
HETATM   27 Cl   UNK N   1      29.364  17.106  10.057  0.00  0.00    -0.081 Cl
BRANCH  22  28
HETATM   28  O   UNK N   1      28.935  18.495   4.337  0.00  0.00    -0.360 OA
HETATM   29  H   UNK N   1      29.669  18.839   3.868  0.00  0.00     0.217 HD
ENDBRANCH  22  28
BRANCH  24  30
HETATM   30  O   UNK N   1      27.401  19.005   8.792  0.00  0.00    -0.359 OA
HETATM   31  H   UNK N   1      27.431  18.770   9.699  0.00  0.00     0.217 HD
ENDBRANCH  24  30
ENDBRANCH   1  21
TORSDOF 9
ENDMDL
MODEL 3
REMARK VINA RESULT:      -6.3     11.433     13.315
REMARK  9 active torsions:
REMARK  status: ('A' for Active; 'I' for Inactive)
REMARK    1  A    between atoms: C_1  and  O_8 
REMARK    2  A    between atoms: C_4  and  O_7 
REMARK    3  A    between atoms: C_5  and  C_10 
REMARK    4  A    between atoms: C_11  and  C_16 
REMARK    5  A    between atoms: C_21  and  O_22 
REMARK    6  A    between atoms: O_22  and  C_23 
REMARK    7  A    between atoms: C_23  and  C_24 
REMARK    8  A    between atoms: C_24  and  C_25 
REMARK    9  A    between atoms: C_25  and  N_26 
ROOT
HETATM    1  C   UNK N   1      19.945  17.950   2.849  0.00  0.00     0.073 A 
HETATM    2  C   UNK N   1      20.791  19.028   3.105  0.00  0.00     0.020 A 
HETATM    3  N   UNK N   1      18.836  19.762   2.384  0.00  0.00    -0.310 N 
ATOM      4  HN  UNK N   1      18.080  20.386   2.105  1.00  0.00     0.186 HD
HETATM    5  C   UNK N   1      20.069  20.155   2.771  0.00  0.00     0.121 A 
HETATM    6  N   UNK N   1      18.763  18.443   2.424  0.00  0.00    -0.299 N 
HETATM    7  H   UNK N   1      17.974  17.907   2.183  0.00  0.00     0.187 HD
ENDROOT
BRANCH   2   8
HETATM    8  C   UNK N   1      22.201  19.027   3.539  0.00  0.00    -0.022 A 
HETATM    9  C   UNK N   1      23.129  19.940   3.014  0.00  0.00     0.015 A 
HETATM   10  C   UNK N   1      24.421  20.017   3.534  0.00  0.00     0.037 A 
HETATM   11  C   UNK N   1      24.790  19.184   4.599  0.00  0.00     0.068 A 
HETATM   12  C   UNK N   1      23.883  18.241   5.087  0.00  0.00     0.037 A 
HETATM   13  C   UNK N   1      22.601  18.149   4.549  0.00  0.00     0.015 A 
BRANCH  11  14
HETATM   14  O   UNK N   1      26.006  19.260   5.173  0.00  0.00    -0.351 OA
BRANCH  14  15
HETATM   15  C   UNK N   1      26.974  20.172   4.823  0.00  0.00     0.177 C 
BRANCH  15  16
HETATM   16  C   UNK N   1      27.538  20.769   6.100  0.00  0.00     0.046 C 
BRANCH  16  17
HETATM   17  C   UNK N   1      26.480  21.626   6.779  0.00  0.00     0.113 C 
BRANCH  17  18
HETATM   18  N   UNK N   1      25.961  20.936   7.943  0.00  0.00    -0.430 N 
HETATM   19  H   UNK N   1      26.382  20.109   8.367  0.00  0.00     0.149 HD
HETATM   20  H   UNK N   1      25.112  21.305   8.372  0.00  0.00     0.149 HD
ENDBRANCH  17  18
ENDBRANCH  16  17
ENDBRANCH  15  16
ENDBRANCH  14  15
ENDBRANCH  11  14
ENDBRANCH   2   8
BRANCH   1  21
HETATM   21  C   UNK N   1      20.262  16.487   2.864  0.00  0.00     0.028 A 
HETATM   22  C   UNK N   1      19.613  15.584   3.737  0.00  0.00     0.081 A 
HETATM   23  C   UNK N   1      19.913  14.216   3.682  0.00  0.00     0.075 A 
HETATM   24  C   UNK N   1      20.848  13.728   2.765  0.00  0.00     0.090 A 
HETATM   25  C   UNK N   1      21.485  14.611   1.893  0.00  0.00     0.068 A 
HETATM   26  C   UNK N   1      21.181  15.964   1.947  0.00  0.00     0.043 A 
HETATM   27 Cl   UNK N   1      22.668  14.048   0.723  0.00  0.00    -0.081 Cl
BRANCH  22  28
HETATM   28  O   UNK N   1      18.697  16.014   4.622  0.00  0.00    -0.360 OA
HETATM   29  H   UNK N   1      18.803  16.846   5.041  0.00  0.00     0.217 HD
ENDBRANCH  22  28
BRANCH  24  30
HETATM   30  O   UNK N   1      21.126  12.414   2.726  0.00  0.00    -0.359 OA
HETATM   31  H   UNK N   1      21.895  12.082   3.146  0.00  0.00     0.217 HD
ENDBRANCH  24  30
ENDBRANCH   1  21
TORSDOF 9
ENDMDL
MODEL 4
REMARK VINA RESULT:      -6.2     13.596     16.648
REMARK  9 active torsions:
REMARK  status: ('A' for Active; 'I' for Inactive)
REMARK    1  A    between atoms: C_1  and  O_8 
REMARK    2  A    between atoms: C_4  and  O_7 
REMARK    3  A    between atoms: C_5  and  C_10 
REMARK    4  A    between atoms: C_11  and  C_16 
REMARK    5  A    between atoms: C_21  and  O_22 
REMARK    6  A    between atoms: O_22  and  C_23 
REMARK    7  A    between atoms: C_23  and  C_24 
REMARK    8  A    between atoms: C_24  and  C_25 
REMARK    9  A    between atoms: C_25  and  N_26 
ROOT
HETATM    1  C   UNK N   1      28.876  17.444   7.496  0.00  0.00     0.073 A 
HETATM    2  C   UNK N   1      29.837  17.648   8.486  0.00  0.00     0.020 A 
HETATM    3  N   UNK N   1      27.950  18.644   9.055  0.00  0.00    -0.310 N 
ATOM      4  HN  UNK N   1      27.255  19.173   9.582  1.00  0.00     0.186 HD
HETATM    5  C   UNK N   1      29.227  18.435   9.441  0.00  0.00     0.121 A 
HETATM    6  N   UNK N   1      27.741  18.057   7.890  0.00  0.00    -0.299 N 
HETATM    7  H   UNK N   1      26.894  18.067   7.390  0.00  0.00     0.187 HD
ENDROOT
BRANCH   2   8
HETATM    8  C   UNK N   1      31.251  17.227   8.516  0.00  0.00    -0.022 A 
HETATM    9  C   UNK N   1      32.290  18.131   8.246  0.00  0.00     0.015 A 
HETATM   10  C   UNK N   1      33.621  17.754   8.413  0.00  0.00     0.037 A 
HETATM   11  C   UNK N   1      33.924  16.464   8.869  0.00  0.00     0.068 A 
HETATM   12  C   UNK N   1      32.893  15.548   9.089  0.00  0.00     0.037 A 
HETATM   13  C   UNK N   1      31.563  15.920   8.898  0.00  0.00     0.015 A 
BRANCH  11  14
HETATM   14  O   UNK N   1      35.190  16.070   9.101  0.00  0.00    -0.351 OA
BRANCH  14  15
HETATM   15  C   UNK N   1      35.543  15.058   9.963  0.00  0.00     0.177 C 
BRANCH  15  16
HETATM   16  C   UNK N   1      35.972  15.688  11.276  0.00  0.00     0.046 C 
BRANCH  16  17
HETATM   17  C   UNK N   1      35.792  14.689  12.410  0.00  0.00     0.113 C 
BRANCH  17  18
HETATM   18  N   UNK N   1      36.984  13.873  12.540  0.00  0.00    -0.430 N 
HETATM   19  H   UNK N   1      37.931  14.237  12.644  0.00  0.00     0.149 HD
HETATM   20  H   UNK N   1      36.866  12.860  12.528  0.00  0.00     0.149 HD
ENDBRANCH  17  18
ENDBRANCH  16  17
ENDBRANCH  15  16
ENDBRANCH  14  15
ENDBRANCH  11  14
ENDBRANCH   2   8
BRANCH   1  21
HETATM   21  C   UNK N   1      29.040  16.813   6.148  0.00  0.00     0.028 A 
HETATM   22  C   UNK N   1      28.089  15.909   5.620  0.00  0.00     0.081 A 
HETATM   23  C   UNK N   1      28.264  15.378   4.335  0.00  0.00     0.075 A 
HETATM   24  C   UNK N   1      29.371  15.738   3.561  0.00  0.00     0.090 A 
HETATM   25  C   UNK N   1      30.308  16.638   4.071  0.00  0.00     0.068 A 
HETATM   26  C   UNK N   1      30.127  17.164   5.342  0.00  0.00     0.043 A 
HETATM   27 Cl   UNK N   1      31.716  17.120   3.139  0.00  0.00    -0.081 Cl
BRANCH  22  28
HETATM   28  O   UNK N   1      27.005  15.551   6.329  0.00  0.00    -0.360 OA
HETATM   29  H   UNK N   1      26.688  14.670   6.291  0.00  0.00     0.217 HD
ENDBRANCH  22  28
BRANCH  24  30
HETATM   30  O   UNK N   1      29.527  15.220   2.331  0.00  0.00    -0.359 OA
HETATM   31  H   UNK N   1      30.160  14.546   2.180  0.00  0.00     0.217 HD
ENDBRANCH  24  30
ENDBRANCH   1  21
TORSDOF 9
ENDMDL
MODEL 5
REMARK VINA RESULT:      -6.1      3.250      6.589
REMARK  9 active torsions:
REMARK  status: ('A' for Active; 'I' for Inactive)
REMARK    1  A    between atoms: C_1  and  O_8 
REMARK    2  A    between atoms: C_4  and  O_7 
REMARK    3  A    between atoms: C_5  and  C_10 
REMARK    4  A    between atoms: C_11  and  C_16 
REMARK    5  A    between atoms: C_21  and  O_22 
REMARK    6  A    between atoms: O_22  and  C_23 
REMARK    7  A    between atoms: C_23  and  C_24 
REMARK    8  A    between atoms: C_24  and  C_25 
REMARK    9  A    between atoms: C_25  and  N_26 
ROOT
HETATM    1  C   UNK N   1      25.965  26.125  -5.149  0.00  0.00     0.073 A 
HETATM    2  C   UNK N   1      26.743  26.061  -3.993  0.00  0.00     0.020 A 
HETATM    3  N   UNK N   1      25.417  27.826  -3.909  0.00  0.00    -0.310 N 
ATOM      4  HN  UNK N   1      24.948  28.670  -3.581  1.00  0.00     0.186 HD
HETATM    5  C   UNK N   1      26.393  27.168  -3.247  0.00  0.00     0.121 A 
HETATM    6  N   UNK N   1      25.165  27.207  -5.050  0.00  0.00    -0.299 N 
HETATM    7  H   UNK N   1      24.501  27.489  -5.718  0.00  0.00     0.187 HD
ENDROOT
BRANCH   2   8
HETATM    8  C   UNK N   1      27.805  25.102  -3.633  0.00  0.00    -0.022 A 
HETATM    9  C   UNK N   1      29.140  25.311  -4.014  0.00  0.00     0.015 A 
HETATM   10  C   UNK N   1      30.150  24.470  -3.549  0.00  0.00     0.037 A 
HETATM   11  C   UNK N   1      29.831  23.415  -2.684  0.00  0.00     0.068 A 
HETATM   12  C   UNK N   1      28.496  23.177  -2.346  0.00  0.00     0.037 A 
HETATM   13  C   UNK N   1      27.485  24.004  -2.831  0.00  0.00     0.015 A 
BRANCH  11  14
HETATM   14  O   UNK N   1      30.776  22.611  -2.163  0.00  0.00    -0.351 OA
BRANCH  14  15
HETATM   15  C   UNK N   1      31.681  21.893  -2.909  0.00  0.00     0.177 C 
BRANCH  15  16
HETATM   16  C   UNK N   1      30.906  20.903  -3.760  0.00  0.00     0.046 C 
BRANCH  16  17
HETATM   17  C   UNK N   1      31.286  21.075  -5.224  0.00  0.00     0.113 C 
BRANCH  17  18
HETATM   18  N   UNK N   1      30.215  20.589  -6.070  0.00  0.00    -0.430 N 
HETATM   19  H   UNK N   1      29.242  20.892  -6.013  0.00  0.00     0.149 HD
HETATM   20  H   UNK N   1      30.451  19.893  -6.778  0.00  0.00     0.149 HD
ENDBRANCH  17  18
ENDBRANCH  16  17
ENDBRANCH  15  16
ENDBRANCH  14  15
ENDBRANCH  11  14
ENDBRANCH   2   8
BRANCH   1  21
HETATM   21  C   UNK N   1      26.053  25.283  -6.384  0.00  0.00     0.028 A 
HETATM   22  C   UNK N   1      26.620  25.767  -7.585  0.00  0.00     0.081 A 
HETATM   23  C   UNK N   1      26.720  24.925  -8.702  0.00  0.00     0.075 A 
HETATM   24  C   UNK N   1      26.270  23.604  -8.641  0.00  0.00     0.090 A 
HETATM   25  C   UNK N   1      25.719  23.116  -7.455  0.00  0.00     0.068 A 
HETATM   26  C   UNK N   1      25.627  23.951  -6.350  0.00  0.00     0.043 A 
HETATM   27 Cl   UNK N   1      25.138  21.464  -7.327  0.00  0.00    -0.081 Cl
BRANCH  22  28
HETATM   28  O   UNK N   1      27.077  27.028  -7.678  0.00  0.00    -0.360 OA
HETATM   29  H   UNK N   1      27.861  27.209  -8.156  0.00  0.00     0.217 HD
ENDBRANCH  22  28
BRANCH  24  30
HETATM   30  O   UNK N   1      26.371  22.810  -9.720  0.00  0.00    -0.359 OA
HETATM   31  H   UNK N   1      26.027  21.938  -9.698  0.00  0.00     0.217 HD
ENDBRANCH  24  30
ENDBRANCH   1  21
TORSDOF 9
ENDMDL
MODEL 6
REMARK VINA RESULT:      -6.1     11.082     14.094
REMARK  9 active torsions:
REMARK  status: ('A' for Active; 'I' for Inactive)
REMARK    1  A    between atoms: C_1  and  O_8 
REMARK    2  A    between atoms: C_4  and  O_7 
REMARK    3  A    between atoms: C_5  and  C_10 
REMARK    4  A    between atoms: C_11  and  C_16 
REMARK    5  A    between atoms: C_21  and  O_22 
REMARK    6  A    between atoms: O_22  and  C_23 
REMARK    7  A    between atoms: C_23  and  C_24 
REMARK    8  A    between atoms: C_24  and  C_25 
REMARK    9  A    between atoms: C_25  and  N_26 
ROOT
HETATM    1  C   UNK N   1      30.285  17.485   8.144  0.00  0.00     0.073 A 
HETATM    2  C   UNK N   1      28.991  18.002   8.093  0.00  0.00     0.020 A 
HETATM    3  N   UNK N   1      29.517  17.500  10.178  0.00  0.00    -0.310 N 
ATOM      4  HN  UNK N   1      29.464  17.391  11.191  1.00  0.00     0.186 HD
HETATM    5  C   UNK N   1      28.526  17.969   9.391  0.00  0.00     0.121 A 
HETATM    6  N   UNK N   1      30.568  17.204   9.432  0.00  0.00    -0.299 N 
HETATM    7  H   UNK N   1      31.419  16.839   9.764  0.00  0.00     0.187 HD
ENDROOT
BRANCH   2   8
HETATM    8  C   UNK N   1      28.195  18.417   6.921  0.00  0.00    -0.022 A 
HETATM    9  C   UNK N   1      27.459  17.487   6.171  0.00  0.00     0.015 A 
HETATM   10  C   UNK N   1      26.605  17.912   5.155  0.00  0.00     0.037 A 
HETATM   11  C   UNK N   1      26.471  19.281   4.889  0.00  0.00     0.068 A 
HETATM   12  C   UNK N   1      27.243  20.203   5.601  0.00  0.00     0.037 A 
HETATM   13  C   UNK N   1      28.114  19.774   6.600  0.00  0.00     0.015 A 
BRANCH  11  14
HETATM   14  O   UNK N   1      25.618  19.746   3.957  0.00  0.00    -0.351 OA
BRANCH  14  15
HETATM   15  C   UNK N   1      24.266  19.491   3.946  0.00  0.00     0.177 C 
BRANCH  15  16
HETATM   16  C   UNK N   1      23.608  20.496   3.017  0.00  0.00     0.046 C 
BRANCH  16  17
HETATM   17  C   UNK N   1      22.164  20.088   2.759  0.00  0.00     0.113 C 
BRANCH  17  18
HETATM   18  N   UNK N   1      21.329  21.269   2.667  0.00  0.00    -0.430 N 
HETATM   19  H   UNK N   1      20.595  21.412   1.974  0.00  0.00     0.149 HD
HETATM   20  H   UNK N   1      21.485  22.012   3.348  0.00  0.00     0.149 HD
ENDBRANCH  17  18
ENDBRANCH  16  17
ENDBRANCH  15  16
ENDBRANCH  14  15
ENDBRANCH  11  14
ENDBRANCH   2   8
BRANCH   1  21
HETATM   21  C   UNK N   1      31.195  17.127   7.010  0.00  0.00     0.028 A 
HETATM   22  C   UNK N   1      32.542  17.554   6.963  0.00  0.00     0.081 A 
HETATM   23  C   UNK N   1      33.368  17.156   5.902  0.00  0.00     0.075 A 
HETATM   24  C   UNK N   1      32.874  16.332   4.886  0.00  0.00     0.090 A 
HETATM   25  C   UNK N   1      31.549  15.898   4.931  0.00  0.00     0.068 A 
HETATM   26  C   UNK N   1      30.737  16.291   5.987  0.00  0.00     0.043 A 
HETATM   27 Cl   UNK N   1      30.881  14.864   3.680  0.00  0.00    -0.081 Cl
BRANCH  22  28
HETATM   28  O   UNK N   1      33.056  18.335   7.929  0.00  0.00    -0.360 OA
HETATM   29  H   UNK N   1      32.505  18.661   8.612  0.00  0.00     0.217 HD
ENDBRANCH  22  28
BRANCH  24  30
HETATM   30  O   UNK N   1      33.677  15.960   3.875  0.00  0.00    -0.359 OA
HETATM   31  H   UNK N   1      33.561  15.126   3.463  0.00  0.00     0.217 HD
ENDBRANCH  24  30
ENDBRANCH   1  21
TORSDOF 9
ENDMDL
MODEL 7
REMARK VINA RESULT:      -6.1     23.300     26.441
REMARK  9 active torsions:
REMARK  status: ('A' for Active; 'I' for Inactive)
REMARK    1  A    between atoms: C_1  and  O_8 
REMARK    2  A    between atoms: C_4  and  O_7 
REMARK    3  A    between atoms: C_5  and  C_10 
REMARK    4  A    between atoms: C_11  and  C_16 
REMARK    5  A    between atoms: C_21  and  O_22 
REMARK    6  A    between atoms: O_22  and  C_23 
REMARK    7  A    between atoms: C_23  and  C_24 
REMARK    8  A    between atoms: C_24  and  C_25 
REMARK    9  A    between atoms: C_25  and  N_26 
ROOT
HETATM    1  C   UNK N   1      35.472  11.652  18.696  0.00  0.00     0.073 A 
HETATM    2  C   UNK N   1      35.335  12.819  17.944  0.00  0.00     0.020 A 
HETATM    3  N   UNK N   1      35.038  13.267  20.087  0.00  0.00    -0.310 N 
ATOM      4  HN  UNK N   1      34.871  13.773  20.955  1.00  0.00     0.186 HD
HETATM    5  C   UNK N   1      35.032  13.813  18.852  0.00  0.00     0.121 A 
HETATM    6  N   UNK N   1      35.295  11.973  19.994  0.00  0.00    -0.299 N 
HETATM    7  H   UNK N   1      35.349  11.346  20.749  0.00  0.00     0.187 HD
ENDROOT
BRANCH   2   8
HETATM    8  C   UNK N   1      35.388  13.000  16.480  0.00  0.00    -0.022 A 
HETATM    9  C   UNK N   1      36.417  13.735  15.871  0.00  0.00     0.015 A 
HETATM   10  C   UNK N   1      36.530  13.780  14.482  0.00  0.00     0.037 A 
HETATM   11  C   UNK N   1      35.616  13.074  13.689  0.00  0.00     0.068 A 
HETATM   12  C   UNK N   1      34.562  12.385  14.294  0.00  0.00     0.037 A 
HETATM   13  C   UNK N   1      34.437  12.361  15.682  0.00  0.00     0.015 A 
BRANCH  11  14
HETATM   14  O   UNK N   1      35.715  13.040  12.347  0.00  0.00    -0.351 OA
BRANCH  14  15
HETATM   15  C   UNK N   1      35.968  14.138  11.559  0.00  0.00     0.177 C 
BRANCH  15  16
HETATM   16  C   UNK N   1      34.655  14.868  11.337  0.00  0.00     0.046 C 
BRANCH  16  17
HETATM   17  C   UNK N   1      34.796  15.838  10.173  0.00  0.00     0.113 C 
BRANCH  17  18
HETATM   18  N   UNK N   1      35.109  17.162  10.672  0.00  0.00    -0.430 N 
HETATM   19  H   UNK N   1      34.797  18.035  10.247  0.00  0.00     0.149 HD
HETATM   20  H   UNK N   1      35.684  17.227  11.512  0.00  0.00     0.149 HD
ENDBRANCH  17  18
ENDBRANCH  16  17
ENDBRANCH  15  16
ENDBRANCH  14  15
ENDBRANCH  11  14
ENDBRANCH   2   8
BRANCH   1  21
HETATM   21  C   UNK N   1      35.626  10.242  18.215  0.00  0.00     0.028 A 
HETATM   22  C   UNK N   1      34.732   9.215  18.596  0.00  0.00     0.081 A 
HETATM   23  C   UNK N   1      34.892   7.920  18.084  0.00  0.00     0.075 A 
HETATM   24  C   UNK N   1      35.928   7.630  17.192  0.00  0.00     0.090 A 
HETATM   25  C   UNK N   1      36.808   8.641  16.803  0.00  0.00     0.068 A 
HETATM   26  C   UNK N   1      36.642   9.923  17.309  0.00  0.00     0.043 A 
HETATM   27 Cl   UNK N   1      38.126   8.328  15.686  0.00  0.00    -0.081 Cl
BRANCH  22  28
HETATM   28  O   UNK N   1      33.715   9.460  19.441  0.00  0.00    -0.360 OA
HETATM   29  H   UNK N   1      33.769   9.181  20.333  0.00  0.00     0.217 HD
ENDBRANCH  22  28
BRANCH  24  30
HETATM   30  O   UNK N   1      36.070   6.384  16.711  0.00  0.00    -0.359 OA
HETATM   31  H   UNK N   1      35.659   5.662  17.144  0.00  0.00     0.217 HD
ENDBRANCH  24  30
ENDBRANCH   1  21
TORSDOF 9
ENDMDL
MODEL 8
REMARK VINA RESULT:      -6.0      2.826      6.169
REMARK  9 active torsions:
REMARK  status: ('A' for Active; 'I' for Inactive)
REMARK    1  A    between atoms: C_1  and  O_8 
REMARK    2  A    between atoms: C_4  and  O_7 
REMARK    3  A    between atoms: C_5  and  C_10 
REMARK    4  A    between atoms: C_11  and  C_16 
REMARK    5  A    between atoms: C_21  and  O_22 
REMARK    6  A    between atoms: O_22  and  C_23 
REMARK    7  A    between atoms: C_23  and  C_24 
REMARK    8  A    between atoms: C_24  and  C_25 
REMARK    9  A    between atoms: C_25  and  N_26 
ROOT
HETATM    1  C   UNK N   1      26.992  26.663  -3.950  0.00  0.00     0.073 A 
HETATM    2  C   UNK N   1      26.091  26.730  -5.012  0.00  0.00     0.020 A 
HETATM    3  N   UNK N   1      25.512  28.174  -3.444  0.00  0.00    -0.310 N 
ATOM      4  HN  UNK N   1      25.014  28.907  -2.939  1.00  0.00     0.186 HD
HETATM    5  C   UNK N   1      25.152  27.672  -4.645  0.00  0.00     0.121 A 
HETATM    6  N   UNK N   1      26.608  27.567  -3.024  0.00  0.00    -0.299 N 
HETATM    7  H   UNK N   1      27.070  27.745  -2.174  0.00  0.00     0.187 HD
ENDROOT
BRANCH   2   8
HETATM    8  C   UNK N   1      26.037  25.920  -6.244  0.00  0.00    -0.022 A 
HETATM    9  C   UNK N   1      25.839  24.531  -6.199  0.00  0.00     0.015 A 
HETATM   10  C   UNK N   1      25.653  23.802  -7.372  0.00  0.00     0.037 A 
HETATM   11  C   UNK N   1      25.650  24.465  -8.607  0.00  0.00     0.068 A 
HETATM   12  C   UNK N   1      25.898  25.839  -8.656  0.00  0.00     0.037 A 
HETATM   13  C   UNK N   1      26.108  26.562  -7.483  0.00  0.00     0.015 A 
BRANCH  11  14
HETATM   14  O   UNK N   1      25.418  23.816  -9.763  0.00  0.00    -0.351 OA
BRANCH  14  15
HETATM   15  C   UNK N   1      26.324  23.718 -10.794  0.00  0.00     0.177 C 
BRANCH  15  16
HETATM   16  C   UNK N   1      26.240  22.312 -11.360  0.00  0.00     0.046 C 
BRANCH  16  17
HETATM   17  C   UNK N   1      26.613  21.302 -10.284  0.00  0.00     0.113 C 
BRANCH  17  18
HETATM   18  N   UNK N   1      25.422  20.882  -9.571  0.00  0.00    -0.430 N 
HETATM   19  H   UNK N   1      24.952  19.985  -9.698  0.00  0.00     0.149 HD
HETATM   20  H   UNK N   1      25.026  21.530  -8.891  0.00  0.00     0.149 HD
ENDBRANCH  17  18
ENDBRANCH  16  17
ENDBRANCH  15  16
ENDBRANCH  14  15
ENDBRANCH  11  14
ENDBRANCH   2   8
BRANCH   1  21
HETATM   21  C   UNK N   1      28.108  25.690  -3.729  0.00  0.00     0.028 A 
HETATM   22  C   UNK N   1      27.887  24.403  -3.186  0.00  0.00     0.081 A 
HETATM   23  C   UNK N   1      28.958  23.510  -3.040  0.00  0.00     0.075 A 
HETATM   24  C   UNK N   1      30.249  23.876  -3.432  0.00  0.00     0.090 A 
HETATM   25  C   UNK N   1      30.473  25.140  -3.978  0.00  0.00     0.068 A 
HETATM   26  C   UNK N   1      29.408  26.019  -4.125  0.00  0.00     0.043 A 
HETATM   27 Cl   UNK N   1      32.075  25.648  -4.484  0.00  0.00    -0.081 Cl
BRANCH  22  28
HETATM   28  O   UNK N   1      26.657  24.010  -2.812  0.00  0.00    -0.360 OA
HETATM   29  H   UNK N   1      26.457  23.098  -2.738  0.00  0.00     0.217 HD
ENDBRANCH  22  28
BRANCH  24  30
HETATM   30  O   UNK N   1      31.265  23.010  -3.284  0.00  0.00    -0.359 OA
HETATM   31  H   UNK N   1      31.232  22.168  -3.694  0.00  0.00     0.217 HD
ENDBRANCH  24  30
ENDBRANCH   1  21
TORSDOF 9
ENDMDL
MODEL 9
REMARK VINA RESULT:      -6.0     12.266     14.908
REMARK  9 active torsions:
REMARK  status: ('A' for Active; 'I' for Inactive)
REMARK    1  A    between atoms: C_1  and  O_8 
REMARK    2  A    between atoms: C_4  and  O_7 
REMARK    3  A    between atoms: C_5  and  C_10 
REMARK    4  A    between atoms: C_11  and  C_16 
REMARK    5  A    between atoms: C_21  and  O_22 
REMARK    6  A    between atoms: O_22  and  C_23 
REMARK    7  A    between atoms: C_23  and  C_24 
REMARK    8  A    between atoms: C_24  and  C_25 
REMARK    9  A    between atoms: C_25  and  N_26 
ROOT
HETATM    1  C   UNK N   1      30.500  17.591   8.096  0.00  0.00     0.073 A 
HETATM    2  C   UNK N   1      29.174  17.994   7.939  0.00  0.00     0.020 A 
HETATM    3  N   UNK N   1      29.848  18.412  10.001  0.00  0.00    -0.310 N 
ATOM      4  HN  UNK N   1      29.858  18.727  10.970  1.00  0.00     0.186 HD
HETATM    5  C   UNK N   1      28.785  18.480   9.170  0.00  0.00     0.121 A 
HETATM    6  N   UNK N   1      30.872  17.875   9.361  0.00  0.00    -0.299 N 
HETATM    7  H   UNK N   1      31.762  17.708   9.746  0.00  0.00     0.187 HD
ENDROOT
BRANCH   2   8
HETATM    8  C   UNK N   1      28.290  17.862   6.765  0.00  0.00    -0.022 A 
HETATM    9  C   UNK N   1      28.187  18.883   5.807  0.00  0.00     0.015 A 
HETATM   10  C   UNK N   1      27.456  18.687   4.637  0.00  0.00     0.037 A 
HETATM   11  C   UNK N   1      26.828  17.454   4.410  0.00  0.00     0.068 A 
HETATM   12  C   UNK N   1      26.887  16.457   5.386  0.00  0.00     0.037 A 
HETATM   13  C   UNK N   1      27.599  16.664   6.566  0.00  0.00     0.015 A 
BRANCH  11  14
HETATM   14  O   UNK N   1      26.158  17.196   3.271  0.00  0.00    -0.351 OA
BRANCH  14  15
HETATM   15  C   UNK N   1      25.536  16.002   2.991  0.00  0.00     0.177 C 
BRANCH  15  16
HETATM   16  C   UNK N   1      26.164  15.430   1.732  0.00  0.00     0.046 C 
BRANCH  16  17
HETATM   17  C   UNK N   1      27.295  14.484   2.106  0.00  0.00     0.113 C 
BRANCH  17  18
HETATM   18  N   UNK N   1      28.533  15.225   2.238  0.00  0.00    -0.430 N 
HETATM   19  H   UNK N   1      28.819  15.741   3.071  0.00  0.00     0.149 HD
HETATM   20  H   UNK N   1      29.168  15.231   1.440  0.00  0.00     0.149 HD
ENDBRANCH  17  18
ENDBRANCH  16  17
ENDBRANCH  15  16
ENDBRANCH  14  15
ENDBRANCH  11  14
ENDBRANCH   2   8
BRANCH   1  21
HETATM   21  C   UNK N   1      31.366  16.832   7.139  0.00  0.00     0.028 A 
HETATM   22  C   UNK N   1      32.032  15.641   7.509  0.00  0.00     0.081 A 
HETATM   23  C   UNK N   1      32.797  14.942   6.565  0.00  0.00     0.075 A 
HETATM   24  C   UNK N   1      32.905  15.407   5.251  0.00  0.00     0.090 A 
HETATM   25  C   UNK N   1      32.242  16.576   4.876  0.00  0.00     0.068 A 
HETATM   26  C   UNK N   1      31.482  17.262   5.813  0.00  0.00     0.043 A 
HETATM   27 Cl   UNK N   1      32.348  17.203   3.239  0.00  0.00    -0.081 Cl
BRANCH  22  28
HETATM   28  O   UNK N   1      31.940  15.155   8.759  0.00  0.00    -0.360 OA
HETATM   29  H   UNK N   1      31.232  14.587   8.991  0.00  0.00     0.217 HD
ENDBRANCH  22  28
BRANCH  24  30
HETATM   30  O   UNK N   1      33.643  14.728   4.358  0.00  0.00    -0.359 OA
HETATM   31  H   UNK N   1      33.227  14.179   3.722  0.00  0.00     0.217 HD
ENDBRANCH  24  30
ENDBRANCH   1  21
TORSDOF 9
ENDMDL
