MODEL 1
REMARK VINA RESULT:      -7.7      0.000      0.000
REMARK  4 active torsions:
REMARK  status: ('A' for Active; 'I' for Inactive)
REMARK    1  A    between atoms: S_2  and  N_4 
REMARK    2  A    between atoms: S_2  and  C_5 
REMARK    3  A    between atoms: C_12  and  C_11 
REMARK    4  A    between atoms: C_12  and  O_13 
ROOT
HETATM    1  C   UNK N   1      30.822  23.442  -3.902  0.00  0.00     0.101 A 
HETATM    2  C   UNK N   1      29.451  23.422  -3.715  0.00  0.00     0.039 A 
HETATM    3  C   UNK N   1      31.432  24.602  -4.408  0.00  0.00     0.057 A 
HETATM    4 Cl   UNK N   1      33.152  24.649  -4.762  0.00  0.00    -0.083 Cl
HETATM    5  C   UNK N   1      30.648  25.739  -4.663  0.00  0.00     0.026 A 
HETATM    6  C   UNK N   1      29.260  25.707  -4.457  0.00  0.00     0.014 A 
HETATM    7  C   UNK N   1      28.647  24.532  -3.998  0.00  0.00     0.003 A 
ENDROOT
BRANCH   7   8
HETATM    8  C   UNK N   1      27.136  24.384  -3.990  0.00  0.00     0.193 A 
HETATM    9  C   UNK N   1      26.439  25.721  -4.141  0.00  0.00     0.017 A 
HETATM   10  C   UNK N   1      26.563  26.854  -3.330  0.00  0.00     0.013 A 
HETATM   11  C   UNK N   1      25.645  25.729  -5.251  0.00  0.00     0.043 A 
HETATM   12  C   UNK N   1      25.862  28.014  -3.691  0.00  0.00     0.001 A 
HETATM   13  C   UNK N   1      25.045  28.017  -4.839  0.00  0.00     0.001 A 
HETATM   14  C   UNK N   1      24.925  26.860  -5.631  0.00  0.00     0.018 A 
HETATM   15  C   UNK N   1      25.758  24.427  -5.841  0.00  0.00     0.255 A 
HETATM   16  O   UNK N   1      25.160  24.045  -6.838  0.00  0.00    -0.268 OA
HETATM   17  N   UNK N   1      26.615  23.651  -5.145  0.00  0.00    -0.317 N 
HETATM   18  H   UNK N   1      26.855  22.725  -5.379  0.00  0.00     0.166 HD
BRANCH   8  19
HETATM   19  O   UNK N   1      26.721  23.774  -2.804  0.00  0.00    -0.363 OA
HETATM   20  H   UNK N   1      26.397  22.999  -2.319  0.00  0.00     0.213 HD
ENDBRANCH   8  19
ENDBRANCH   7   8
BRANCH   1  21
HETATM   21  S   UNK N   1      31.714  21.930  -3.545  0.00  0.00     0.258 S 
HETATM   22  O   UNK N   1      32.950  21.717  -4.429  0.00  0.00    -0.201 OA
HETATM   23  O   UNK N   1      32.276  21.845  -2.118  0.00  0.00    -0.201 OA
BRANCH  21  24
HETATM   24  N   UNK N   1      30.774  20.448  -3.743  0.00  0.00    -0.324 N 
HETATM   25  H   UNK N   1      31.203  19.542  -3.550  0.00  0.00     0.169 HD
HETATM   26  H   UNK N   1      29.803  20.498  -4.051  0.00  0.00     0.169 HD
ENDBRANCH  21  24
ENDBRANCH   1  21
TORSDOF 4
ENDMDL
MODEL 2
REMARK VINA RESULT:      -7.4     11.277     12.596
REMARK  4 active torsions:
REMARK  status: ('A' for Active; 'I' for Inactive)
REMARK    1  A    between atoms: S_2  and  N_4 
REMARK    2  A    between atoms: S_2  and  C_5 
REMARK    3  A    between atoms: C_12  and  C_11 
REMARK    4  A    between atoms: C_12  and  O_13 
ROOT
HETATM    1  C   UNK N   1      31.674  17.143   6.731  0.00  0.00     0.101 A 
HETATM    2  C   UNK N   1      30.383  16.979   6.260  0.00  0.00     0.039 A 
HETATM    3  C   UNK N   1      31.880  17.449   8.086  0.00  0.00     0.057 A 
HETATM    4 Cl   UNK N   1      33.488  17.769   8.716  0.00  0.00    -0.083 Cl
HETATM    5  C   UNK N   1      30.777  17.528   8.952  0.00  0.00     0.026 A 
HETATM    6  C   UNK N   1      29.474  17.347   8.462  0.00  0.00     0.014 A 
HETATM    7  C   UNK N   1      29.268  17.090   7.099  0.00  0.00     0.003 A 
ENDROOT
BRANCH   7   8
HETATM    8  C   UNK N   1      27.876  17.125   6.492  0.00  0.00     0.193 A 
HETATM    9  C   UNK N   1      27.546  18.489   5.921  0.00  0.00     0.017 A 
HETATM   10  C   UNK N   1      27.538  19.721   6.583  0.00  0.00     0.013 A 
HETATM   11  C   UNK N   1      27.270  18.401   4.587  0.00  0.00     0.043 A 
HETATM   12  C   UNK N   1      27.256  20.877   5.840  0.00  0.00     0.001 A 
HETATM   13  C   UNK N   1      26.973  20.780   4.463  0.00  0.00     0.001 A 
HETATM   14  C   UNK N   1      26.972  19.527   3.823  0.00  0.00     0.018 A 
HETATM   15  C   UNK N   1      27.374  17.012   4.242  0.00  0.00     0.255 A 
HETATM   16  O   UNK N   1      27.161  16.539   3.134  0.00  0.00    -0.268 OA
HETATM   17  N   UNK N   1      27.733  16.272   5.311  0.00  0.00    -0.317 N 
HETATM   18  H   UNK N   1      27.877  15.298   5.300  0.00  0.00     0.166 HD
BRANCH   8  19
HETATM   19  O   UNK N   1      26.926  16.780   7.455  0.00  0.00    -0.363 OA
HETATM   20  H   UNK N   1      26.137  16.285   7.727  0.00  0.00     0.213 HD
ENDBRANCH   8  19
ENDBRANCH   7   8
BRANCH   1  21
HETATM   21  S   UNK N   1      32.999  17.022   5.531  0.00  0.00     0.258 S 
HETATM   22  O   UNK N   1      34.197  17.932   5.838  0.00  0.00    -0.201 OA
HETATM   23  O   UNK N   1      33.629  15.626   5.418  0.00  0.00    -0.201 OA
BRANCH  21  24
HETATM   24  N   UNK N   1      32.544  17.442   3.877  0.00  0.00    -0.324 N 
HETATM   25  H   UNK N   1      32.771  16.809   3.109  0.00  0.00     0.169 HD
HETATM   26  H   UNK N   1      32.055  18.317   3.689  0.00  0.00     0.169 HD
ENDBRANCH  21  24
ENDBRANCH   1  21
TORSDOF 4
ENDMDL
MODEL 3
REMARK VINA RESULT:      -7.3     17.113     19.946
REMARK  4 active torsions:
REMARK  status: ('A' for Active; 'I' for Inactive)
REMARK    1  A    between atoms: S_2  and  N_4 
REMARK    2  A    between atoms: S_2  and  C_5 
REMARK    3  A    between atoms: C_12  and  C_11 
REMARK    4  A    between atoms: C_12  and  O_13 
ROOT
HETATM    1  C   UNK N   1      34.060  16.101   8.582  0.00  0.00     0.101 A 
HETATM    2  C   UNK N   1      35.194  15.838   9.330  0.00  0.00     0.039 A 
HETATM    3  C   UNK N   1      33.143  15.067   8.334  0.00  0.00     0.057 A 
HETATM    4 Cl   UNK N   1      31.740  15.317   7.306  0.00  0.00    -0.083 Cl
HETATM    5  C   UNK N   1      33.364  13.798   8.895  0.00  0.00     0.026 A 
HETATM    6  C   UNK N   1      34.513  13.550   9.661  0.00  0.00     0.014 A 
HETATM    7  C   UNK N   1      35.452  14.572   9.866  0.00  0.00     0.003 A 
ENDROOT
BRANCH   7   8
HETATM    8  C   UNK N   1      36.809  14.282  10.482  0.00  0.00     0.193 A 
HETATM    9  C   UNK N   1      36.685  13.790  11.910  0.00  0.00     0.017 A 
HETATM   10  C   UNK N   1      36.074  14.433  12.993  0.00  0.00     0.013 A 
HETATM   11  C   UNK N   1      37.236  12.549  12.044  0.00  0.00     0.043 A 
HETATM   12  C   UNK N   1      36.024  13.764  14.224  0.00  0.00     0.001 A 
HETATM   13  C   UNK N   1      36.593  12.481  14.356  0.00  0.00     0.001 A 
HETATM   14  C   UNK N   1      37.214  11.862  13.256  0.00  0.00     0.018 A 
HETATM   15  C   UNK N   1      37.757  12.195  10.755  0.00  0.00     0.255 A 
HETATM   16  O   UNK N   1      38.357  11.162  10.492  0.00  0.00    -0.268 OA
HETATM   17  N   UNK N   1      37.511  13.164   9.850  0.00  0.00    -0.317 N 
HETATM   18  H   UNK N   1      37.766  13.125   8.899  0.00  0.00     0.166 HD
BRANCH   8  19
HETATM   19  O   UNK N   1      37.604  15.429  10.452  0.00  0.00    -0.363 OA
HETATM   20  H   UNK N   1      38.453  15.876  10.598  0.00  0.00     0.213 HD
ENDBRANCH   8  19
ENDBRANCH   7   8
BRANCH   1  21
HETATM   21  S   UNK N   1      33.889  17.756   7.917  0.00  0.00     0.258 S 
HETATM   22  O   UNK N   1      34.118  17.841   6.401  0.00  0.00    -0.201 OA
HETATM   23  O   UNK N   1      32.497  18.376   8.104  0.00  0.00    -0.201 OA
BRANCH  21  24
HETATM   24  N   UNK N   1      35.003  18.947   8.594  0.00  0.00    -0.324 N 
HETATM   25  H   UNK N   1      35.932  18.660   8.902  0.00  0.00     0.169 HD
HETATM   26  H   UNK N   1      34.718  19.923   8.677  0.00  0.00     0.169 HD
ENDBRANCH  21  24
ENDBRANCH   1  21
TORSDOF 4
ENDMDL
MODEL 4
REMARK VINA RESULT:      -7.2     12.866     15.467
REMARK  4 active torsions:
REMARK  status: ('A' for Active; 'I' for Inactive)
REMARK    1  A    between atoms: S_2  and  N_4 
REMARK    2  A    between atoms: S_2  and  C_5 
REMARK    3  A    between atoms: C_12  and  C_11 
REMARK    4  A    between atoms: C_12  and  O_13 
ROOT
HETATM    1  C   UNK N   1      29.680  17.009   5.354  0.00  0.00     0.101 A 
HETATM    2  C   UNK N   1      30.244  17.207   6.602  0.00  0.00     0.039 A 
HETATM    3  C   UNK N   1      30.500  16.626   4.279  0.00  0.00     0.057 A 
HETATM    4 Cl   UNK N   1      29.856  16.461   2.653  0.00  0.00    -0.083 Cl
HETATM    5  C   UNK N   1      31.867  16.397   4.501  0.00  0.00     0.026 A 
HETATM    6  C   UNK N   1      32.423  16.591   5.775  0.00  0.00     0.014 A 
HETATM    7  C   UNK N   1      31.612  17.020   6.835  0.00  0.00     0.003 A 
ENDROOT
BRANCH   7   8
HETATM    8  C   UNK N   1      32.213  17.465   8.157  0.00  0.00     0.193 A 
HETATM    9  C   UNK N   1      33.086  16.388   8.768  0.00  0.00     0.017 A 
HETATM   10  C   UNK N   1      32.729  15.079   9.108  0.00  0.00     0.013 A 
HETATM   11  C   UNK N   1      34.364  16.839   8.936  0.00  0.00     0.043 A 
HETATM   12  C   UNK N   1      33.721  14.226   9.613  0.00  0.00     0.001 A 
HETATM   13  C   UNK N   1      35.039  14.697   9.782  0.00  0.00     0.001 A 
HETATM   14  C   UNK N   1      35.370  16.023   9.447  0.00  0.00     0.018 A 
HETATM   15  C   UNK N   1      34.376  18.201   8.484  0.00  0.00     0.255 A 
HETATM   16  O   UNK N   1      35.344  18.948   8.513  0.00  0.00    -0.268 OA
HETATM   17  N   UNK N   1      33.163  18.570   8.023  0.00  0.00    -0.317 N 
HETATM   18  H   UNK N   1      32.948  19.456   7.651  0.00  0.00     0.166 HD
BRANCH   8  19
HETATM   19  O   UNK N   1      31.198  17.807   9.053  0.00  0.00    -0.363 OA
HETATM   20  H   UNK N   1      30.529  18.431   9.378  0.00  0.00     0.213 HD
ENDBRANCH   8  19
ENDBRANCH   7   8
BRANCH   1  21
HETATM   21  S   UNK N   1      27.926  17.336   5.193  0.00  0.00     0.258 S 
HETATM   22  O   UNK N   1      27.601  18.554   4.317  0.00  0.00    -0.201 OA
HETATM   23  O   UNK N   1      27.124  16.201   4.539  0.00  0.00    -0.201 OA
BRANCH  21  24
HETATM   24  N   UNK N   1      27.088  17.656   6.714  0.00  0.00    -0.324 N 
HETATM   25  H   UNK N   1      26.320  18.328   6.742  0.00  0.00     0.169 HD
HETATM   26  H   UNK N   1      27.371  17.170   7.564  0.00  0.00     0.169 HD
ENDBRANCH  21  24
ENDBRANCH   1  21
TORSDOF 4
ENDMDL
MODEL 5
REMARK VINA RESULT:      -7.1      2.635      3.257
REMARK  4 active torsions:
REMARK  status: ('A' for Active; 'I' for Inactive)
REMARK    1  A    between atoms: S_2  and  N_4 
REMARK    2  A    between atoms: S_2  and  C_5 
REMARK    3  A    between atoms: C_12  and  C_11 
REMARK    4  A    between atoms: C_12  and  O_13 
ROOT
HETATM    1  C   UNK N   1      30.334  24.744  -3.710  0.00  0.00     0.101 A 
HETATM    2  C   UNK N   1      29.407  25.770  -3.732  0.00  0.00     0.039 A 
HETATM    3  C   UNK N   1      31.536  24.884  -4.425  0.00  0.00     0.057 A 
HETATM    4 Cl   UNK N   1      32.702  23.574  -4.518  0.00  0.00    -0.083 Cl
HETATM    5  C   UNK N   1      31.798  26.085  -5.105  0.00  0.00     0.026 A 
HETATM    6  C   UNK N   1      30.853  27.122  -5.108  0.00  0.00     0.014 A 
HETATM    7  C   UNK N   1      29.634  26.960  -4.433  0.00  0.00     0.003 A 
ENDROOT
BRANCH   7   8
HETATM    8  C   UNK N   1      28.498  27.953  -4.609  0.00  0.00     0.193 A 
HETATM    9  C   UNK N   1      27.483  27.471  -5.626  0.00  0.00     0.017 A 
HETATM   10  C   UNK N   1      27.700  27.131  -6.965  0.00  0.00     0.013 A 
HETATM   11  C   UNK N   1      26.247  27.357  -5.058  0.00  0.00     0.043 A 
HETATM   12  C   UNK N   1      26.617  26.650  -7.716  0.00  0.00     0.001 A 
HETATM   13  C   UNK N   1      25.343  26.533  -7.124  0.00  0.00     0.001 A 
HETATM   14  C   UNK N   1      25.148  26.895  -5.778  0.00  0.00     0.018 A 
HETATM   15  C   UNK N   1      26.387  27.775  -3.693  0.00  0.00     0.255 A 
HETATM   16  O   UNK N   1      25.479  27.842  -2.875  0.00  0.00    -0.268 OA
HETATM   17  N   UNK N   1      27.665  28.105  -3.415  0.00  0.00    -0.317 N 
HETATM   18  H   UNK N   1      27.992  28.404  -2.536  0.00  0.00     0.166 HD
BRANCH   8  19
HETATM   19  O   UNK N   1      29.003  29.192  -5.006  0.00  0.00    -0.363 OA
HETATM   20  H   UNK N   1      28.973  30.163  -4.995  0.00  0.00     0.213 HD
ENDBRANCH   8  19
ENDBRANCH   7   8
BRANCH   1  21
HETATM   21  S   UNK N   1      29.885  23.260  -2.813  0.00  0.00     0.258 S 
HETATM   22  O   UNK N   1      29.964  21.979  -3.655  0.00  0.00    -0.201 OA
HETATM   23  O   UNK N   1      30.783  22.950  -1.606  0.00  0.00    -0.201 OA
BRANCH  21  24
HETATM   24  N   UNK N   1      28.244  23.254  -2.161  0.00  0.00    -0.324 N 
HETATM   25  H   UNK N   1      28.095  23.323  -1.153  0.00  0.00     0.169 HD
HETATM   26  H   UNK N   1      27.445  23.183  -2.791  0.00  0.00     0.169 HD
ENDBRANCH  21  24
ENDBRANCH   1  21
TORSDOF 4
ENDMDL
MODEL 6
REMARK VINA RESULT:      -7.0      2.950      4.391
REMARK  4 active torsions:
REMARK  status: ('A' for Active; 'I' for Inactive)
REMARK    1  A    between atoms: S_2  and  N_4 
REMARK    2  A    between atoms: S_2  and  C_5 
REMARK    3  A    between atoms: C_12  and  C_11 
REMARK    4  A    between atoms: C_12  and  O_13 
ROOT
HETATM    1  C   UNK N   1      30.703  20.885  -5.702  0.00  0.00     0.101 A 
HETATM    2  C   UNK N   1      30.038  21.679  -4.784  0.00  0.00     0.039 A 
HETATM    3  C   UNK N   1      31.991  20.411  -5.399  0.00  0.00     0.057 A 
HETATM    4 Cl   UNK N   1      32.922  19.488  -6.567  0.00  0.00    -0.083 Cl
HETATM    5  C   UNK N   1      32.558  20.704  -4.148  0.00  0.00     0.026 A 
HETATM    6  C   UNK N   1      31.866  21.500  -3.223  0.00  0.00     0.014 A 
HETATM    7  C   UNK N   1      30.601  22.013  -3.547  0.00  0.00     0.003 A 
ENDROOT
BRANCH   7   8
HETATM    8  C   UNK N   1      29.930  23.062  -2.679  0.00  0.00     0.193 A 
HETATM    9  C   UNK N   1      29.952  24.429  -3.331  0.00  0.00     0.017 A 
HETATM   10  C   UNK N   1      31.064  25.163  -3.758  0.00  0.00     0.013 A 
HETATM   11  C   UNK N   1      28.683  24.900  -3.510  0.00  0.00     0.043 A 
HETATM   12  C   UNK N   1      30.848  26.394  -4.395  0.00  0.00     0.001 A 
HETATM   13  C   UNK N   1      29.536  26.874  -4.579  0.00  0.00     0.001 A 
HETATM   14  C   UNK N   1      28.434  26.124  -4.127  0.00  0.00     0.018 A 
HETATM   15  C   UNK N   1      27.801  23.905  -2.971  0.00  0.00     0.255 A 
HETATM   16  O   UNK N   1      26.582  23.991  -2.921  0.00  0.00    -0.268 OA
HETATM   17  N   UNK N   1      28.493  22.845  -2.506  0.00  0.00    -0.317 N 
HETATM   18  H   UNK N   1      28.089  22.040  -2.108  0.00  0.00     0.166 HD
BRANCH   8  19
HETATM   19  O   UNK N   1      30.560  23.129  -1.435  0.00  0.00    -0.363 OA
HETATM   20  H   UNK N   1      30.529  23.088  -0.466  0.00  0.00     0.213 HD
ENDBRANCH   8  19
ENDBRANCH   7   8
BRANCH   1  21
HETATM   21  S   UNK N   1      29.880  20.583  -7.265  0.00  0.00     0.258 S 
HETATM   22  O   UNK N   1      28.516  21.274  -7.389  0.00  0.00    -0.201 OA
HETATM   23  O   UNK N   1      30.649  21.084  -8.496  0.00  0.00    -0.201 OA
BRANCH  21  24
HETATM   24  N   UNK N   1      29.543  18.885  -7.610  0.00  0.00    -0.324 N 
HETATM   25  H   UNK N   1      30.089  18.153  -7.153  0.00  0.00     0.169 HD
HETATM   26  H   UNK N   1      28.803  18.634  -8.265  0.00  0.00     0.169 HD
ENDBRANCH  21  24
ENDBRANCH   1  21
TORSDOF 4
ENDMDL
MODEL 7
REMARK VINA RESULT:      -7.0      2.119      2.521
REMARK  4 active torsions:
REMARK  status: ('A' for Active; 'I' for Inactive)
REMARK    1  A    between atoms: S_2  and  N_4 
REMARK    2  A    between atoms: S_2  and  C_5 
REMARK    3  A    between atoms: C_12  and  C_11 
REMARK    4  A    between atoms: C_12  and  O_13 
ROOT
HETATM    1  C   UNK N   1      29.667  22.906  -4.507  0.00  0.00     0.101 A 
HETATM    2  C   UNK N   1      28.886  23.961  -4.070  0.00  0.00     0.039 A 
HETATM    3  C   UNK N   1      29.338  22.254  -5.707  0.00  0.00     0.057 A 
HETATM    4 Cl   UNK N   1      30.232  20.845  -6.257  0.00  0.00    -0.083 Cl
HETATM    5  C   UNK N   1      28.256  22.720  -6.471  0.00  0.00     0.026 A 
HETATM    6  C   UNK N   1      27.480  23.799  -6.021  0.00  0.00     0.014 A 
HETATM    7  C   UNK N   1      27.781  24.416  -4.799  0.00  0.00     0.003 A 
ENDROOT
BRANCH   7   8
HETATM    8  C   UNK N   1      26.832  25.421  -4.169  0.00  0.00     0.193 A 
HETATM    9  C   UNK N   1      27.370  26.835  -4.259  0.00  0.00     0.017 A 
HETATM   10  C   UNK N   1      28.584  27.328  -3.769  0.00  0.00     0.013 A 
HETATM   11  C   UNK N   1      26.507  27.637  -4.949  0.00  0.00     0.043 A 
HETATM   12  C   UNK N   1      28.909  28.669  -4.017  0.00  0.00     0.001 A 
HETATM   13  C   UNK N   1      28.015  29.493  -4.731  0.00  0.00     0.001 A 
HETATM   14  C   UNK N   1      26.793  28.977  -5.201  0.00  0.00     0.018 A 
HETATM   15  C   UNK N   1      25.386  26.817  -5.304  0.00  0.00     0.255 A 
HETATM   16  O   UNK N   1      24.389  27.199  -5.902  0.00  0.00    -0.268 OA
HETATM   17  N   UNK N   1      25.559  25.548  -4.881  0.00  0.00    -0.317 N 
HETATM   18  H   UNK N   1      24.922  24.812  -5.029  0.00  0.00     0.166 HD
BRANCH   8  19
HETATM   19  O   UNK N   1      26.606  25.093  -2.831  0.00  0.00    -0.363 OA
HETATM   20  H   UNK N   1      26.104  25.194  -2.007  0.00  0.00     0.213 HD
ENDBRANCH   8  19
ENDBRANCH   7   8
BRANCH   1  21
HETATM   21  S   UNK N   1      31.019  22.401  -3.445  0.00  0.00     0.258 S 
HETATM   22  O   UNK N   1      32.393  22.899  -3.913  0.00  0.00    -0.201 OA
HETATM   23  O   UNK N   1      30.923  22.918  -2.002  0.00  0.00    -0.201 OA
BRANCH  21  24
HETATM   24  N   UNK N   1      31.221  20.654  -3.280  0.00  0.00    -0.324 N 
HETATM   25  H   UNK N   1      30.922  20.032  -4.033  0.00  0.00     0.169 HD
HETATM   26  H   UNK N   1      31.636  20.266  -2.433  0.00  0.00     0.169 HD
ENDBRANCH  21  24
ENDBRANCH   1  21
TORSDOF 4
ENDMDL
MODEL 8
REMARK VINA RESULT:      -6.9     11.819     13.060
REMARK  4 active torsions:
REMARK  status: ('A' for Active; 'I' for Inactive)
REMARK    1  A    between atoms: S_2  and  N_4 
REMARK    2  A    between atoms: S_2  and  C_5 
REMARK    3  A    between atoms: C_12  and  C_11 
REMARK    4  A    between atoms: C_12  and  O_13 
ROOT
HETATM    1  C   UNK N   1      31.739  16.517   7.311  0.00  0.00     0.101 A 
HETATM    2  C   UNK N   1      30.390  16.758   7.507  0.00  0.00     0.039 A 
HETATM    3  C   UNK N   1      32.309  16.772   6.053  0.00  0.00     0.057 A 
HETATM    4 Cl   UNK N   1      33.990  16.389   5.717  0.00  0.00    -0.083 Cl
HETATM    5  C   UNK N   1      31.514  17.320   5.033  0.00  0.00     0.026 A 
HETATM    6  C   UNK N   1      30.150  17.570   5.251  0.00  0.00     0.014 A 
HETATM    7  C   UNK N   1      29.573  17.268   6.493  0.00  0.00     0.003 A 
ENDROOT
BRANCH   7   8
HETATM    8  C   UNK N   1      28.068  17.301   6.690  0.00  0.00     0.193 A 
HETATM    9  C   UNK N   1      27.452  18.556   6.105  0.00  0.00     0.017 A 
HETATM   10  C   UNK N   1      27.752  19.887   6.413  0.00  0.00     0.013 A 
HETATM   11  C   UNK N   1      26.529  18.241   5.150  0.00  0.00     0.043 A 
HETATM   12  C   UNK N   1      27.094  20.901   5.702  0.00  0.00     0.001 A 
HETATM   13  C   UNK N   1      26.143  20.571   4.715  0.00  0.00     0.001 A 
HETATM   14  C   UNK N   1      25.847  19.224   4.435  0.00  0.00     0.018 A 
HETATM   15  C   UNK N   1      26.479  16.809   5.090  0.00  0.00     0.255 A 
HETATM   16  O   UNK N   1      25.737  16.155   4.369  0.00  0.00    -0.268 OA
HETATM   17  N   UNK N   1      27.359  16.256   5.950  0.00  0.00    -0.317 N 
HETATM   18  H   UNK N   1      27.504  15.289   6.063  0.00  0.00     0.166 HD
BRANCH   8  19
HETATM   19  O   UNK N   1      27.761  17.221   8.050  0.00  0.00    -0.363 OA
HETATM   20  H   UNK N   1      27.712  17.623   8.932  0.00  0.00     0.213 HD
ENDBRANCH   8  19
ENDBRANCH   7   8
BRANCH   1  21
HETATM   21  S   UNK N   1      32.649  15.815   8.686  0.00  0.00     0.258 S 
HETATM   22  O   UNK N   1      33.356  14.494   8.350  0.00  0.00    -0.201 OA
HETATM   23  O   UNK N   1      33.783  16.703   9.217  0.00  0.00    -0.201 OA
BRANCH  21  24
HETATM   24  N   UNK N   1      31.673  15.439  10.108  0.00  0.00    -0.324 N 
HETATM   25  H   UNK N   1      32.114  15.050  10.942  0.00  0.00     0.169 HD
HETATM   26  H   UNK N   1      30.667  15.611  10.097  0.00  0.00     0.169 HD
ENDBRANCH  21  24
ENDBRANCH   1  21
TORSDOF 4
ENDMDL
MODEL 9
REMARK VINA RESULT:      -6.9     19.055     21.555
REMARK  4 active torsions:
REMARK  status: ('A' for Active; 'I' for Inactive)
REMARK    1  A    between atoms: S_2  and  N_4 
REMARK    2  A    between atoms: S_2  and  C_5 
REMARK    3  A    between atoms: C_12  and  C_11 
REMARK    4  A    between atoms: C_12  and  O_13 
ROOT
HETATM    1  C   UNK N   1      35.109  12.393  13.603  0.00  0.00     0.101 A 
HETATM    2  C   UNK N   1      35.246  13.039  12.387  0.00  0.00     0.039 A 
HETATM    3  C   UNK N   1      35.691  12.955  14.752  0.00  0.00     0.057 A 
HETATM    4 Cl   UNK N   1      35.638  12.128  16.301  0.00  0.00    -0.083 Cl
HETATM    5  C   UNK N   1      36.354  14.189  14.657  0.00  0.00     0.026 A 
HETATM    6  C   UNK N   1      36.474  14.838  13.418  0.00  0.00     0.014 A 
HETATM    7  C   UNK N   1      35.934  14.251  12.265  0.00  0.00     0.003 A 
ENDROOT
BRANCH   7   8
HETATM    8  C   UNK N   1      36.245  14.798  10.883  0.00  0.00     0.193 A 
HETATM    9  C   UNK N   1      37.117  13.848  10.086  0.00  0.00     0.017 A 
HETATM   10  C   UNK N   1      38.378  13.346  10.424  0.00  0.00     0.013 A 
HETATM   11  C   UNK N   1      36.490  13.469   8.934  0.00  0.00     0.043 A 
HETATM   12  C   UNK N   1      38.985  12.426   9.557  0.00  0.00     0.001 A 
HETATM   13  C   UNK N   1      38.333  12.037   8.370  0.00  0.00     0.001 A 
HETATM   14  C   UNK N   1      37.071  12.567   8.045  0.00  0.00     0.018 A 
HETATM   15  C   UNK N   1      35.232  14.157   8.910  0.00  0.00     0.255 A 
HETATM   16  O   UNK N   1      34.406  14.094   8.010  0.00  0.00    -0.268 OA
HETATM   17  N   UNK N   1      35.069  14.907  10.019  0.00  0.00    -0.317 N 
HETATM   18  H   UNK N   1      34.272  15.451  10.220  0.00  0.00     0.166 HD
BRANCH   8  19
HETATM   19  O   UNK N   1      36.882  16.035  10.990  0.00  0.00    -0.363 OA
HETATM   20  H   UNK N   1      36.848  17.001  11.079  0.00  0.00     0.213 HD
ENDBRANCH   8  19
ENDBRANCH   7   8
BRANCH   1  21
HETATM   21  S   UNK N   1      34.246  10.823  13.599  0.00  0.00     0.258 S 
HETATM   22  O   UNK N   1      35.127   9.630  13.994  0.00  0.00    -0.201 OA
HETATM   23  O   UNK N   1      33.070  10.741  14.584  0.00  0.00    -0.201 OA
BRANCH  21  24
HETATM   24  N   UNK N   1      33.555  10.360  12.041  0.00  0.00    -0.324 N 
HETATM   25  H   UNK N   1      33.493   9.374  11.784  0.00  0.00     0.169 HD
HETATM   26  H   UNK N   1      33.219  11.077  11.399  0.00  0.00     0.169 HD
ENDBRANCH  21  24
ENDBRANCH   1  21
TORSDOF 4
ENDMDL
