REMARK  4 active torsions:
REMARK  status: ('A' for Active; 'I' for Inactive)
REMARK    1  A    between atoms: S_2  and  N_4 
REMARK    2  A    between atoms: S_2  and  C_5 
REMARK    3  A    between atoms: C_12  and  C_11 
REMARK    4  A    between atoms: C_12  and  O_13 
ROOT
HETATM    1  C   UNK N   1       0.940   2.172   0.261  0.00  0.00     0.101 A 
HETATM    2  C   UNK N   1       0.423   0.899   0.097  0.00  0.00     0.039 A 
HETATM    3  C   UNK N   1       0.093   3.284   0.119  0.00  0.00     0.057 A 
HETATM    4 Cl   UNK N   1       0.715   4.924   0.214  0.00  0.00    -0.083 Cl
HETATM    5  C   UNK N   1      -1.274   3.083  -0.132  0.00  0.00     0.026 A 
HETATM    6  C   UNK N   1      -1.786   1.785  -0.284  0.00  0.00     0.014 A 
HETATM    7  C   UNK N   1      -0.929   0.679  -0.190  0.00  0.00     0.003 A 
ENDROOT
BRANCH   7   8
HETATM    8  C   UNK N   1      -1.394  -0.713  -0.580  0.00  0.00     0.193 A 
HETATM    9  C   UNK N   1      -0.232  -1.677  -0.712  0.00  0.00     0.017 A 
HETATM   10  C   UNK N   1       0.888  -1.568  -1.543  0.00  0.00     0.013 A 
HETATM   11  C   UNK N   1      -0.374  -2.726   0.150  0.00  0.00     0.043 A 
HETATM   12  C   UNK N   1       1.879  -2.557  -1.461  0.00  0.00     0.001 A 
HETATM   13  C   UNK N   1       1.728  -3.637  -0.568  0.00  0.00     0.001 A 
HETATM   14  C   UNK N   1       0.585  -3.732   0.247  0.00  0.00     0.018 A 
HETATM   15  C   UNK N   1      -1.613  -2.518   0.842  0.00  0.00     0.255 A 
HETATM   16  O   UNK N   1      -2.096  -3.274   1.674  0.00  0.00    -0.268 OA
HETATM   17  N   UNK N   1      -2.201  -1.369   0.450  0.00  0.00    -0.317 N 
HETATM   18  H   UNK N   1      -3.051  -1.021   0.805  0.00  0.00     0.166 HD
BRANCH   8  19
HETATM   19  O   UNK N   1      -2.097  -0.663  -1.785  0.00  0.00    -0.363 OA
HETATM   20  H   UNK N   1      -2.312  -0.223  -2.623  0.00  0.00     0.213 HD
ENDBRANCH   8  19
ENDBRANCH   7   8
BRANCH   1  21
HETATM   21  S   UNK N   1       2.699   2.302   0.575  0.00  0.00     0.258 S 
HETATM   22  O   UNK N   1       3.448   3.168  -0.447  0.00  0.00    -0.201 OA
HETATM   23  O   UNK N   1       3.059   2.946   1.922  0.00  0.00    -0.201 OA
BRANCH  21  24
HETATM   24  N   UNK N   1       3.570   0.766   0.568  0.00  0.00    -0.324 N 
HETATM   25  H   UNK N   1       3.053  -0.114   0.564  0.00  0.00     0.169 HD
HETATM   26  H   UNK N   1       4.590   0.758   0.568  0.00  0.00     0.169 HD
ENDBRANCH  21  24
ENDBRANCH   1  21
TORSDOF 4
