REMARK  6 active torsions:
REMARK  status: ('A' for Active; 'I' for Inactive)
REMARK    1  A    between atoms: C_2  and  C_3 
REMARK    2  A    between atoms: N_4  and  C_3 
REMARK    3  A    between atoms: C_8  and  C_9 
REMARK    4  A    between atoms: C_18  and  C_17 
REMARK    5  A    between atoms: O_22  and  C_21 
REMARK    6  A    between atoms: C_24  and  O_25 
ROOT
HETATM    1  N   UNK N   1      -0.605   1.457   0.438  0.00  0.00    -0.287 N 
HETATM    2  N   UNK N   1      -1.393   0.389   0.468  0.00  0.00    -0.296 N 
ATOM      3  HN  UNK N   1      -2.400   0.404   0.625  1.00  0.00     0.187 HD
HETATM    4  C   UNK N   1       0.672   1.062   0.188  0.00  0.00     0.078 A 
HETATM    5  C   UNK N   1       1.894   1.799   0.055  0.00  0.00     0.077 A 
HETATM    6  C   UNK N   1       3.067   1.048  -0.164  0.00  0.00     0.019 A 
HETATM    7  C   UNK N   1       3.041  -0.349  -0.275  0.00  0.00     0.002 A 
HETATM    8  C   UNK N   1       1.834  -1.038  -0.162  0.00  0.00     0.016 A 
HETATM    9  C   UNK N   1       0.672  -0.318   0.081  0.00  0.00     0.022 A 
HETATM   10  C   UNK N   1      -0.649  -0.722   0.259  0.00  0.00     0.073 A 
ENDROOT
BRANCH  10  11
HETATM   11  C   UNK N   1      -1.275  -2.086   0.261  0.00  0.00     0.026 A 
HETATM   12  C   UNK N   1      -0.563  -3.317   0.303  0.00  0.00     0.081 A 
HETATM   13  C   UNK N   1      -1.260  -4.530   0.306  0.00  0.00     0.074 A 
HETATM   14  C   UNK N   1      -2.652  -4.552   0.271  0.00  0.00     0.068 A 
HETATM   15  C   UNK N   1      -3.363  -3.356   0.240  0.00  0.00     0.037 A 
HETATM   16  C   UNK N   1      -2.681  -2.138   0.240  0.00  0.00     0.019 A 
BRANCH  12  17
HETATM   17  O   UNK N   1       0.772  -3.365   0.370  0.00  0.00    -0.360 OA
HETATM   18  H   UNK N   1       1.211  -4.192   0.418  0.00  0.00     0.217 HD
ENDBRANCH  12  17
BRANCH  14  19
HETATM   19  O   UNK N   1      -3.305  -5.725   0.272  0.00  0.00    -0.361 OA
HETATM   20  H   UNK N   1      -4.242  -5.739   0.273  0.00  0.00     0.217 HD
ENDBRANCH  14  19
ENDBRANCH  10  11
BRANCH   1  21
HETATM   21  C   UNK N   1      -1.124   2.782   0.739  0.00  0.00     0.176 C 
BRANCH  21  22
HETATM   22  C   UNK N   1      -2.106   3.229  -0.291  0.00  0.00    -0.015 C 
HETATM   23  C   UNK N   1      -1.965   4.421  -0.863  0.00  0.00     0.008 C 
ENDBRANCH  21  22
ENDBRANCH   1  21
BRANCH   5  24
HETATM   24  C   UNK N   1       2.092   3.303   0.095  0.00  0.00     0.419 C 
HETATM   25  F   UNK N   1       2.854   3.626   1.202  0.00  0.00    -0.166 F 
HETATM   26  F   UNK N   1       2.787   3.686  -1.040  0.00  0.00    -0.166 F 
HETATM   27  F   UNK N   1       0.949   4.055   0.127  0.00  0.00    -0.166 F 
ENDBRANCH   5  24
TORSDOF 6
