MODEL 1
REMARK VINA RESULT:      -7.1      0.000      0.000
REMARK  6 active torsions:
REMARK  status: ('A' for Active; 'I' for Inactive)
REMARK    1  A    between atoms: C_2  and  C_3 
REMARK    2  A    between atoms: N_4  and  C_3 
REMARK    3  A    between atoms: C_8  and  C_9 
REMARK    4  A    between atoms: C_18  and  C_17 
REMARK    5  A    between atoms: O_22  and  C_21 
REMARK    6  A    between atoms: C_24  and  O_25 
ROOT
HETATM    1  N   UNK N   1      29.830  17.115   4.978  0.00  0.00    -0.287 N 
HETATM    2  N   UNK N   1      28.842  17.575   4.220  0.00  0.00    -0.296 N 
ATOM      3  HN  UNK N   1      28.742  17.410   3.219  1.00  0.00     0.187 HD
HETATM    4  C   UNK N   1      29.629  17.515   6.263  0.00  0.00     0.078 A 
HETATM    5  C   UNK N   1      30.382  17.298   7.462  0.00  0.00     0.077 A 
HETATM    6  C   UNK N   1      29.896  17.910   8.636  0.00  0.00     0.019 A 
HETATM    7  C   UNK N   1      28.719  18.671   8.640  0.00  0.00     0.002 A 
HETATM    8  C   UNK N   1      27.996  18.848   7.462  0.00  0.00     0.016 A 
HETATM    9  C   UNK N   1      28.473  18.276   6.290  0.00  0.00     0.022 A 
HETATM   10  C   UNK N   1      27.990  18.297   4.984  0.00  0.00     0.073 A 
ENDROOT
BRANCH  10  11
HETATM   11  C   UNK N   1      26.784  18.960   4.386  0.00  0.00     0.026 A 
HETATM   12  C   UNK N   1      25.434  18.584   4.630  0.00  0.00     0.081 A 
HETATM   13  C   UNK N   1      24.389  19.284   4.016  0.00  0.00     0.074 A 
HETATM   14  C   UNK N   1      24.653  20.354   3.164  0.00  0.00     0.068 A 
HETATM   15  C   UNK N   1      25.968  20.741   2.924  0.00  0.00     0.037 A 
HETATM   16  C   UNK N   1      27.020  20.054   3.532  0.00  0.00     0.019 A 
BRANCH  12  17
HETATM   17  O   UNK N   1      25.112  17.587   5.461  0.00  0.00    -0.360 OA
HETATM   18  H   UNK N   1      25.074  16.705   5.145  0.00  0.00     0.217 HD
ENDBRANCH  12  17
BRANCH  14  19
HETATM   19  O   UNK N   1      23.639  21.014   2.582  0.00  0.00    -0.361 OA
HETATM   20  H   UNK N   1      23.817  21.714   1.986  0.00  0.00     0.217 HD
ENDBRANCH  14  19
ENDBRANCH  10  11
BRANCH   1  21
HETATM   21  C   UNK N   1      30.950  16.392   4.397  0.00  0.00     0.176 C 
BRANCH  21  22
HETATM   22  C   UNK N   1      31.958  17.326   3.817  0.00  0.00    -0.015 C 
HETATM   23  C   UNK N   1      32.948  16.846   3.069  0.00  0.00     0.008 C 
ENDBRANCH  21  22
ENDBRANCH   1  21
BRANCH   5  24
HETATM   24  C   UNK N   1      31.638  16.465   7.645  0.00  0.00     0.419 C 
HETATM   25  F   UNK N   1      32.694  17.104   7.022  0.00  0.00    -0.166 F 
HETATM   26  F   UNK N   1      31.916  16.379   8.998  0.00  0.00    -0.166 F 
HETATM   27  F   UNK N   1      31.576  15.181   7.175  0.00  0.00    -0.166 F 
ENDBRANCH   5  24
TORSDOF 6
ENDMDL
MODEL 2
REMARK VINA RESULT:      -6.9     11.323     13.751
REMARK  6 active torsions:
REMARK  status: ('A' for Active; 'I' for Inactive)
REMARK    1  A    between atoms: C_2  and  C_3 
REMARK    2  A    between atoms: N_4  and  C_3 
REMARK    3  A    between atoms: C_8  and  C_9 
REMARK    4  A    between atoms: C_18  and  C_17 
REMARK    5  A    between atoms: O_22  and  C_21 
REMARK    6  A    between atoms: C_24  and  O_25 
ROOT
HETATM    1  N   UNK N   1      28.524  26.348  -3.996  0.00  0.00    -0.287 N 
HETATM    2  N   UNK N   1      29.463  25.436  -3.770  0.00  0.00    -0.296 N 
ATOM      3  HN  UNK N   1      30.362  25.615  -3.324  1.00  0.00     0.187 HD
HETATM    4  C   UNK N   1      27.456  25.750  -4.589  0.00  0.00     0.078 A 
HETATM    5  C   UNK N   1      26.197  26.267  -5.038  0.00  0.00     0.077 A 
HETATM    6  C   UNK N   1      25.323  25.354  -5.663  0.00  0.00     0.019 A 
HETATM    7  C   UNK N   1      25.653  24.000  -5.814  0.00  0.00     0.002 A 
HETATM    8  C   UNK N   1      26.877  23.521  -5.349  0.00  0.00     0.016 A 
HETATM    9  C   UNK N   1      27.763  24.411  -4.755  0.00  0.00     0.022 A 
HETATM   10  C   UNK N   1      29.039  24.235  -4.225  0.00  0.00     0.073 A 
ENDROOT
BRANCH  10  11
HETATM   11  C   UNK N   1      29.908  23.016  -4.123  0.00  0.00     0.026 A 
HETATM   12  C   UNK N   1      30.620  22.610  -2.960  0.00  0.00     0.081 A 
HETATM   13  C   UNK N   1      31.397  21.446  -2.984  0.00  0.00     0.074 A 
HETATM   14  C   UNK N   1      31.483  20.671  -4.137  0.00  0.00     0.068 A 
HETATM   15  C   UNK N   1      30.784  21.049  -5.280  0.00  0.00     0.037 A 
HETATM   16  C   UNK N   1      30.002  22.206  -5.269  0.00  0.00     0.019 A 
BRANCH  12  17
HETATM   17  O   UNK N   1      30.555  23.292  -1.811  0.00  0.00    -0.360 OA
HETATM   18  H   UNK N   1      30.652  24.224  -1.811  0.00  0.00     0.217 HD
ENDBRANCH  12  17
BRANCH  14  19
HETATM   19  O   UNK N   1      32.234  19.559  -4.144  0.00  0.00    -0.361 OA
HETATM   20  H   UNK N   1      33.155  19.617  -4.309  0.00  0.00     0.217 HD
ENDBRANCH  14  19
ENDBRANCH  10  11
BRANCH   1  21
HETATM   21  C   UNK N   1      28.756  27.753  -3.702  0.00  0.00     0.176 C 
BRANCH  21  22
HETATM   22  C   UNK N   1      29.930  28.281  -4.456  0.00  0.00    -0.015 C 
HETATM   23  C   UNK N   1      29.773  28.708  -5.705  0.00  0.00     0.008 C 
ENDBRANCH  21  22
ENDBRANCH   1  21
BRANCH   5  24
HETATM   24  C   UNK N   1      25.662  27.681  -4.907  0.00  0.00     0.419 C 
HETATM   25  F   UNK N   1      26.452  28.531  -5.658  0.00  0.00    -0.166 F 
HETATM   26  F   UNK N   1      24.376  27.714  -5.419  0.00  0.00    -0.166 F 
HETATM   27  F   UNK N   1      25.590  28.176  -3.634  0.00  0.00    -0.166 F 
ENDBRANCH   5  24
TORSDOF 6
ENDMDL
MODEL 3
REMARK VINA RESULT:      -6.9      1.397      3.254
REMARK  6 active torsions:
REMARK  status: ('A' for Active; 'I' for Inactive)
REMARK    1  A    between atoms: C_2  and  C_3 
REMARK    2  A    between atoms: N_4  and  C_3 
REMARK    3  A    between atoms: C_8  and  C_9 
REMARK    4  A    between atoms: C_18  and  C_17 
REMARK    5  A    between atoms: O_22  and  C_21 
REMARK    6  A    between atoms: C_24  and  O_25 
ROOT
HETATM    1  N   UNK N   1      28.492  18.568   6.969  0.00  0.00    -0.287 N 
HETATM    2  N   UNK N   1      27.362  19.114   6.535  0.00  0.00    -0.296 N 
ATOM      3  HN  UNK N   1      26.745  19.708   7.087  1.00  0.00     0.187 HD
HETATM    4  C   UNK N   1      29.060  17.856   5.959  0.00  0.00     0.078 A 
HETATM    5  C   UNK N   1      30.265  17.083   5.891  0.00  0.00     0.077 A 
HETATM    6  C   UNK N   1      30.530  16.426   4.672  0.00  0.00     0.019 A 
HETATM    7  C   UNK N   1      29.674  16.543   3.568  0.00  0.00     0.002 A 
HETATM    8  C   UNK N   1      28.518  17.318   3.656  0.00  0.00     0.016 A 
HETATM    9  C   UNK N   1      28.226  17.951   4.858  0.00  0.00     0.022 A 
HETATM   10  C   UNK N   1      27.158  18.756   5.246  0.00  0.00     0.073 A 
ENDROOT
BRANCH  10  11
HETATM   11  C   UNK N   1      25.940  19.212   4.498  0.00  0.00     0.026 A 
HETATM   12  C   UNK N   1      24.619  18.727   4.705  0.00  0.00     0.081 A 
HETATM   13  C   UNK N   1      23.558  19.235   3.947  0.00  0.00     0.074 A 
HETATM   14  C   UNK N   1      23.777  20.219   2.987  0.00  0.00     0.068 A 
HETATM   15  C   UNK N   1      25.062  20.712   2.779  0.00  0.00     0.037 A 
HETATM   16  C   UNK N   1      26.129  20.216   3.531  0.00  0.00     0.019 A 
BRANCH  12  17
HETATM   17  O   UNK N   1      24.336  17.806   5.633  0.00  0.00    -0.360 OA
HETATM   18  H   UNK N   1      23.978  18.066   6.460  0.00  0.00     0.217 HD
ENDBRANCH  12  17
BRANCH  14  19
HETATM   19  O   UNK N   1      22.748  20.694   2.266  0.00  0.00    -0.361 OA
HETATM   20  H   UNK N   1      22.026  20.135   2.057  0.00  0.00     0.217 HD
ENDBRANCH  14  19
ENDBRANCH  10  11
BRANCH   1  21
HETATM   21  C   UNK N   1      28.905  18.700   8.357  0.00  0.00     0.176 C 
BRANCH  21  22
HETATM   22  C   UNK N   1      28.238  17.685   9.223  0.00  0.00    -0.015 C 
HETATM   23  C   UNK N   1      28.922  17.101  10.202  0.00  0.00     0.008 C 
ENDBRANCH  21  22
ENDBRANCH   1  21
BRANCH   5  24
HETATM   24  C   UNK N   1      31.321  16.895   6.965  0.00  0.00     0.419 C 
HETATM   25  F   UNK N   1      30.846  16.007   7.911  0.00  0.00    -0.166 F 
HETATM   26  F   UNK N   1      32.451  16.348   6.380  0.00  0.00    -0.166 F 
HETATM   27  F   UNK N   1      31.725  18.033   7.609  0.00  0.00    -0.166 F 
ENDBRANCH   5  24
TORSDOF 6
ENDMDL
MODEL 4
REMARK VINA RESULT:      -6.8     11.275     13.640
REMARK  6 active torsions:
REMARK  status: ('A' for Active; 'I' for Inactive)
REMARK    1  A    between atoms: C_2  and  C_3 
REMARK    2  A    between atoms: N_4  and  C_3 
REMARK    3  A    between atoms: C_8  and  C_9 
REMARK    4  A    between atoms: C_18  and  C_17 
REMARK    5  A    between atoms: O_22  and  C_21 
REMARK    6  A    between atoms: C_24  and  O_25 
ROOT
HETATM    1  N   UNK N   1      27.325  25.750  -4.296  0.00  0.00    -0.287 N 
HETATM    2  N   UNK N   1      27.752  24.494  -4.338  0.00  0.00    -0.296 N 
ATOM      3  HN  UNK N   1      27.171  23.681  -4.538  1.00  0.00     0.187 HD
HETATM    4  C   UNK N   1      28.375  26.569  -4.020  0.00  0.00     0.078 A 
HETATM    5  C   UNK N   1      28.466  27.991  -3.864  0.00  0.00     0.077 A 
HETATM    6  C   UNK N   1      29.733  28.512  -3.528  0.00  0.00     0.019 A 
HETATM    7  C   UNK N   1      30.856  27.688  -3.380  0.00  0.00     0.002 A 
HETATM    8  C   UNK N   1      30.742  26.310  -3.558  0.00  0.00     0.016 A 
HETATM    9  C   UNK N   1      29.498  25.775  -3.862  0.00  0.00     0.022 A 
HETATM   10  C   UNK N   1      29.079  24.463  -4.072  0.00  0.00     0.073 A 
ENDROOT
BRANCH  10  11
HETATM   11  C   UNK N   1      29.831  23.165  -4.030  0.00  0.00     0.026 A 
HETATM   12  C   UNK N   1      30.518  22.650  -2.896  0.00  0.00     0.081 A 
HETATM   13  C   UNK N   1      31.181  21.421  -2.977  0.00  0.00     0.074 A 
HETATM   14  C   UNK N   1      31.177  20.686  -4.159  0.00  0.00     0.068 A 
HETATM   15  C   UNK N   1      30.501  21.171  -5.274  0.00  0.00     0.037 A 
HETATM   16  C   UNK N   1      29.832  22.395  -5.207  0.00  0.00     0.019 A 
BRANCH  12  17
HETATM   17  O   UNK N   1      30.533  23.290  -1.721  0.00  0.00    -0.360 OA
HETATM   18  H   UNK N   1      31.232  23.881  -1.517  0.00  0.00     0.217 HD
ENDBRANCH  12  17
BRANCH  14  19
HETATM   19  O   UNK N   1      31.821  19.509  -4.220  0.00  0.00    -0.361 OA
HETATM   20  H   UNK N   1      32.594  19.425  -4.744  0.00  0.00     0.217 HD
ENDBRANCH  14  19
ENDBRANCH  10  11
BRANCH   1  21
HETATM   21  C   UNK N   1      25.914  26.069  -4.441  0.00  0.00     0.176 C 
BRANCH  21  22
HETATM   22  C   UNK N   1      25.410  25.706  -5.797  0.00  0.00    -0.015 C 
HETATM   23  C   UNK N   1      25.790  26.418  -6.854  0.00  0.00     0.008 C 
ENDBRANCH  21  22
ENDBRANCH   1  21
BRANCH   5  24
HETATM   24  C   UNK N   1      27.371  29.026  -4.039  0.00  0.00     0.419 C 
HETATM   25  F   UNK N   1      27.885  30.276  -3.750  0.00  0.00    -0.166 F 
HETATM   26  F   UNK N   1      26.963  29.017  -5.362  0.00  0.00    -0.166 F 
HETATM   27  F   UNK N   1      26.247  28.839  -3.281  0.00  0.00    -0.166 F 
ENDBRANCH   5  24
TORSDOF 6
ENDMDL
MODEL 5
REMARK VINA RESULT:      -6.7      9.467     12.039
REMARK  6 active torsions:
REMARK  status: ('A' for Active; 'I' for Inactive)
REMARK    1  A    between atoms: C_2  and  C_3 
REMARK    2  A    between atoms: N_4  and  C_3 
REMARK    3  A    between atoms: C_8  and  C_9 
REMARK    4  A    between atoms: C_18  and  C_17 
REMARK    5  A    between atoms: O_22  and  C_21 
REMARK    6  A    between atoms: C_24  and  O_25 
ROOT
HETATM    1  N   UNK N   1      36.132  13.477  14.546  0.00  0.00    -0.287 N 
HETATM    2  N   UNK N   1      36.245  14.089  13.373  0.00  0.00    -0.296 N 
ATOM      3  HN  UNK N   1      36.775  14.942  13.202  1.00  0.00     0.187 HD
HETATM    4  C   UNK N   1      35.367  12.363  14.396  0.00  0.00     0.078 A 
HETATM    5  C   UNK N   1      34.940  11.362  15.329  0.00  0.00     0.077 A 
HETATM    6  C   UNK N   1      34.097  10.348  14.829  0.00  0.00     0.019 A 
HETATM    7  C   UNK N   1      33.714  10.302  13.481  0.00  0.00     0.002 A 
HETATM    8  C   UNK N   1      34.162  11.278  12.592  0.00  0.00     0.016 A 
HETATM    9  C   UNK N   1      34.971  12.300  13.072  0.00  0.00     0.022 A 
HETATM   10  C   UNK N   1      35.543  13.403  12.442  0.00  0.00     0.073 A 
ENDROOT
BRANCH  10  11
HETATM   11  C   UNK N   1      35.471  13.877  11.020  0.00  0.00     0.026 A 
HETATM   12  C   UNK N   1      34.386  14.598  10.447  0.00  0.00     0.081 A 
HETATM   13  C   UNK N   1      34.437  14.993   9.106  0.00  0.00     0.074 A 
HETATM   14  C   UNK N   1      35.544  14.691   8.316  0.00  0.00     0.068 A 
HETATM   15  C   UNK N   1      36.618  13.996   8.865  0.00  0.00     0.037 A 
HETATM   16  C   UNK N   1      36.582  13.599  10.202  0.00  0.00     0.019 A 
BRANCH  12  17
HETATM   17  O   UNK N   1      33.309  14.946  11.159  0.00  0.00    -0.360 OA
HETATM   18  H   UNK N   1      33.073  15.850  11.243  0.00  0.00     0.217 HD
ENDBRANCH  12  17
BRANCH  14  19
HETATM   19  O   UNK N   1      35.576  15.076   7.030  0.00  0.00    -0.361 OA
HETATM   20  H   UNK N   1      35.946  14.510   6.381  0.00  0.00     0.217 HD
ENDBRANCH  14  19
ENDBRANCH  10  11
BRANCH   1  21
HETATM   21  C   UNK N   1      36.701  14.056  15.753  0.00  0.00     0.176 C 
BRANCH  21  22
HETATM   22  C   UNK N   1      37.277  15.407  15.490  0.00  0.00    -0.015 C 
HETATM   23  C   UNK N   1      37.352  16.295  16.476  0.00  0.00     0.008 C 
ENDBRANCH  21  22
ENDBRANCH   1  21
BRANCH   5  24
HETATM   24  C   UNK N   1      35.299  11.233  16.797  0.00  0.00     0.419 C 
HETATM   25  F   UNK N   1      34.887  12.372  17.462  0.00  0.00    -0.166 F 
HETATM   26  F   UNK N   1      34.617  10.149  17.324  0.00  0.00    -0.166 F 
HETATM   27  F   UNK N   1      36.625  11.032  17.072  0.00  0.00    -0.166 F 
ENDBRANCH   5  24
TORSDOF 6
ENDMDL
MODEL 6
REMARK VINA RESULT:      -6.6      4.285      7.447
REMARK  6 active torsions:
REMARK  status: ('A' for Active; 'I' for Inactive)
REMARK    1  A    between atoms: C_2  and  C_3 
REMARK    2  A    between atoms: N_4  and  C_3 
REMARK    3  A    between atoms: C_8  and  C_9 
REMARK    4  A    between atoms: C_18  and  C_17 
REMARK    5  A    between atoms: O_22  and  C_21 
REMARK    6  A    between atoms: C_24  and  O_25 
ROOT
HETATM    1  N   UNK N   1      31.095  17.100   5.965  0.00  0.00    -0.287 N 
HETATM    2  N   UNK N   1      32.195  16.696   6.589  0.00  0.00    -0.296 N 
ATOM      3  HN  UNK N   1      33.029  16.326   6.133  1.00  0.00     0.187 HD
HETATM    4  C   UNK N   1      30.199  17.547   6.885  0.00  0.00     0.078 A 
HETATM    5  C   UNK N   1      28.877  18.083   6.753  0.00  0.00     0.077 A 
HETATM    6  C   UNK N   1      28.203  18.410   7.948  0.00  0.00     0.019 A 
HETATM    7  C   UNK N   1      28.802  18.246   9.204  0.00  0.00     0.002 A 
HETATM    8  C   UNK N   1      30.098  17.742   9.301  0.00  0.00     0.016 A 
HETATM    9  C   UNK N   1      30.768  17.388   8.137  0.00  0.00     0.022 A 
HETATM   10  C   UNK N   1      32.035  16.850   7.924  0.00  0.00     0.073 A 
ENDROOT
BRANCH  10  11
HETATM   11  C   UNK N   1      33.116  16.453   8.885  0.00  0.00     0.026 A 
HETATM   12  C   UNK N   1      34.285  17.213   9.169  0.00  0.00     0.081 A 
HETATM   13  C   UNK N   1      35.223  16.740  10.092  0.00  0.00     0.074 A 
HETATM   14  C   UNK N   1      35.028  15.526  10.747  0.00  0.00     0.068 A 
HETATM   15  C   UNK N   1      33.885  14.775  10.488  0.00  0.00     0.037 A 
HETATM   16  C   UNK N   1      32.939  15.237   9.572  0.00  0.00     0.019 A 
BRANCH  12  17
HETATM   17  O   UNK N   1      34.516  18.401   8.599  0.00  0.00    -0.360 OA
HETATM   18  H   UNK N   1      34.501  18.485   7.665  0.00  0.00     0.217 HD
ENDBRANCH  12  17
BRANCH  14  19
HETATM   19  O   UNK N   1      35.939  15.085  11.629  0.00  0.00    -0.361 OA
HETATM   20  H   UNK N   1      35.829  15.259  12.543  0.00  0.00     0.217 HD
ENDBRANCH  14  19
ENDBRANCH  10  11
BRANCH   1  21
HETATM   21  C   UNK N   1      30.949  16.947   4.526  0.00  0.00     0.176 C 
BRANCH  21  22
HETATM   22  C   UNK N   1      32.129  17.496   3.797  0.00  0.00    -0.015 C 
HETATM   23  C   UNK N   1      32.864  16.693   3.034  0.00  0.00     0.008 C 
ENDBRANCH  21  22
ENDBRANCH   1  21
BRANCH   5  24
HETATM   24  C   UNK N   1      28.104  18.372   5.479  0.00  0.00     0.419 C 
HETATM   25  F   UNK N   1      27.817  17.177   4.848  0.00  0.00    -0.166 F 
HETATM   26  F   UNK N   1      26.910  18.985   5.818  0.00  0.00    -0.166 F 
HETATM   27  F   UNK N   1      28.725  19.195   4.579  0.00  0.00    -0.166 F 
ENDBRANCH   5  24
TORSDOF 6
ENDMDL
MODEL 7
REMARK VINA RESULT:      -6.6      5.385      9.025
REMARK  6 active torsions:
REMARK  status: ('A' for Active; 'I' for Inactive)
REMARK    1  A    between atoms: C_2  and  C_3 
REMARK    2  A    between atoms: N_4  and  C_3 
REMARK    3  A    between atoms: C_8  and  C_9 
REMARK    4  A    between atoms: C_18  and  C_17 
REMARK    5  A    between atoms: O_22  and  C_21 
REMARK    6  A    between atoms: C_24  and  O_25 
ROOT
HETATM    1  N   UNK N   1      31.663  16.617   7.918  0.00  0.00    -0.287 N 
HETATM    2  N   UNK N   1      32.252  16.358   9.079  0.00  0.00    -0.296 N 
ATOM      3  HN  UNK N   1      31.836  16.506   9.997  1.00  0.00     0.187 HD
HETATM    4  C   UNK N   1      32.506  16.280   6.905  0.00  0.00     0.078 A 
HETATM    5  C   UNK N   1      32.369  16.355   5.481  0.00  0.00     0.077 A 
HETATM    6  C   UNK N   1      33.483  15.954   4.715  0.00  0.00     0.019 A 
HETATM    7  C   UNK N   1      34.658  15.478   5.312  0.00  0.00     0.002 A 
HETATM    8  C   UNK N   1      34.755  15.397   6.700  0.00  0.00     0.016 A 
HETATM    9  C   UNK N   1      33.679  15.813   7.472  0.00  0.00     0.022 A 
HETATM   10  C   UNK N   1      33.493  15.868   8.852  0.00  0.00     0.073 A 
ENDROOT
BRANCH  10  11
HETATM   11  C   UNK N   1      34.404  15.506   9.988  0.00  0.00     0.026 A 
HETATM   12  C   UNK N   1      35.360  16.375  10.585  0.00  0.00     0.081 A 
HETATM   13  C   UNK N   1      36.151  15.923  11.646  0.00  0.00     0.074 A 
HETATM   14  C   UNK N   1      36.016  14.625  12.134  0.00  0.00     0.068 A 
HETATM   15  C   UNK N   1      35.078  13.767  11.567  0.00  0.00     0.037 A 
HETATM   16  C   UNK N   1      34.279  14.205  10.510  0.00  0.00     0.019 A 
BRANCH  12  17
HETATM   17  O   UNK N   1      35.517  17.641  10.185  0.00  0.00    -0.360 OA
HETATM   18  H   UNK N   1      35.963  17.829   9.382  0.00  0.00     0.217 HD
ENDBRANCH  12  17
BRANCH  14  19
HETATM   19  O   UNK N   1      36.785  14.207  13.151  0.00  0.00    -0.361 OA
HETATM   20  H   UNK N   1      37.636  14.579  13.279  0.00  0.00     0.217 HD
ENDBRANCH  14  19
ENDBRANCH  10  11
BRANCH   1  21
HETATM   21  C   UNK N   1      30.356  17.253   7.865  0.00  0.00     0.176 C 
BRANCH  21  22
HETATM   22  C   UNK N   1      30.283  18.425   8.784  0.00  0.00    -0.015 C 
HETATM   23  C   UNK N   1      29.371  18.450   9.750  0.00  0.00     0.008 C 
ENDBRANCH  21  22
ENDBRANCH   1  21
BRANCH   5  24
HETATM   24  C   UNK N   1      31.160  16.792   4.675  0.00  0.00     0.419 C 
HETATM   25  F   UNK N   1      31.448  16.669   3.329  0.00  0.00    -0.166 F 
HETATM   26  F   UNK N   1      30.103  15.949   4.975  0.00  0.00    -0.166 F 
HETATM   27  F   UNK N   1      30.719  18.068   4.904  0.00  0.00    -0.166 F 
ENDBRANCH   5  24
TORSDOF 6
ENDMDL
MODEL 8
REMARK VINA RESULT:      -6.6      3.161      5.040
REMARK  6 active torsions:
REMARK  status: ('A' for Active; 'I' for Inactive)
REMARK    1  A    between atoms: C_2  and  C_3 
REMARK    2  A    between atoms: N_4  and  C_3 
REMARK    3  A    between atoms: C_8  and  C_9 
REMARK    4  A    between atoms: C_18  and  C_17 
REMARK    5  A    between atoms: O_22  and  C_21 
REMARK    6  A    between atoms: C_24  and  O_25 
ROOT
HETATM    1  N   UNK N   1      26.011  19.451   4.468  0.00  0.00    -0.287 N 
HETATM    2  N   UNK N   1      24.830  19.777   3.957  0.00  0.00    -0.296 N 
ATOM      3  HN  UNK N   1      24.612  20.657   3.492  1.00  0.00     0.187 HD
HETATM    4  C   UNK N   1      25.941  18.198   4.991  0.00  0.00     0.078 A 
HETATM    5  C   UNK N   1      26.914  17.380   5.653  0.00  0.00     0.077 A 
HETATM    6  C   UNK N   1      26.476  16.122   6.115  0.00  0.00     0.019 A 
HETATM    7  C   UNK N   1      25.162  15.677   5.915  0.00  0.00     0.002 A 
HETATM    8  C   UNK N   1      24.242  16.486   5.250  0.00  0.00     0.016 A 
HETATM    9  C   UNK N   1      24.647  17.740   4.811  0.00  0.00     0.022 A 
HETATM   10  C   UNK N   1      23.962  18.757   4.150  0.00  0.00     0.073 A 
ENDROOT
BRANCH  10  11
HETATM   11  C   UNK N   1      22.537  18.854   3.691  0.00  0.00     0.026 A 
HETATM   12  C   UNK N   1      21.944  19.998   3.087  0.00  0.00     0.081 A 
HETATM   13  C   UNK N   1      20.602  19.967   2.694  0.00  0.00     0.074 A 
HETATM   14  C   UNK N   1      19.830  18.823   2.884  0.00  0.00     0.068 A 
HETATM   15  C   UNK N   1      20.398  17.693   3.465  0.00  0.00     0.037 A 
HETATM   16  C   UNK N   1      21.738  17.708   3.858  0.00  0.00     0.019 A 
BRANCH  12  17
HETATM   17  O   UNK N   1      22.638  21.116   2.847  0.00  0.00    -0.360 OA
HETATM   18  H   UNK N   1      23.377  21.334   3.381  0.00  0.00     0.217 HD
ENDBRANCH  12  17
BRANCH  14  19
HETATM   19  O   UNK N   1      18.543  18.811   2.504  0.00  0.00    -0.361 OA
HETATM   20  H   UNK N   1      17.873  19.053   3.112  0.00  0.00     0.217 HD
ENDBRANCH  14  19
ENDBRANCH  10  11
BRANCH   1  21
HETATM   21  C   UNK N   1      27.107  20.407   4.496  0.00  0.00     0.176 C 
BRANCH  21  22
HETATM   22  C   UNK N   1      27.304  20.971   5.863  0.00  0.00    -0.015 C 
HETATM   23  C   UNK N   1      26.336  21.688   6.426  0.00  0.00     0.008 C 
ENDBRANCH  21  22
ENDBRANCH   1  21
BRANCH   5  24
HETATM   24  C   UNK N   1      28.379  17.682   5.903  0.00  0.00     0.419 C 
HETATM   25  F   UNK N   1      28.483  18.537   6.984  0.00  0.00    -0.166 F 
HETATM   26  F   UNK N   1      29.025  16.498   6.220  0.00  0.00    -0.166 F 
HETATM   27  F   UNK N   1      29.064  18.232   4.854  0.00  0.00    -0.166 F 
ENDBRANCH   5  24
TORSDOF 6
ENDMDL
MODEL 9
REMARK VINA RESULT:      -6.6      4.221      7.364
REMARK  6 active torsions:
REMARK  status: ('A' for Active; 'I' for Inactive)
REMARK    1  A    between atoms: C_2  and  C_3 
REMARK    2  A    between atoms: N_4  and  C_3 
REMARK    3  A    between atoms: C_8  and  C_9 
REMARK    4  A    between atoms: C_18  and  C_17 
REMARK    5  A    between atoms: O_22  and  C_21 
REMARK    6  A    between atoms: C_24  and  O_25 
ROOT
HETATM    1  N   UNK N   1      31.062  16.907   6.087  0.00  0.00    -0.287 N 
HETATM    2  N   UNK N   1      32.158  16.486   6.706  0.00  0.00    -0.296 N 
ATOM      3  HN  UNK N   1      32.966  16.061   6.252  1.00  0.00     0.187 HD
HETATM    4  C   UNK N   1      30.206  17.432   7.003  0.00  0.00     0.078 A 
HETATM    5  C   UNK N   1      28.904  18.017   6.873  0.00  0.00     0.077 A 
HETATM    6  C   UNK N   1      28.269  18.425   8.064  0.00  0.00     0.019 A 
HETATM    7  C   UNK N   1      28.889  18.293   9.315  0.00  0.00     0.002 A 
HETATM    8  C   UNK N   1      30.165  17.739   9.409  0.00  0.00     0.016 A 
HETATM    9  C   UNK N   1      30.795  17.306   8.250  0.00  0.00     0.022 A 
HETATM   10  C   UNK N   1      32.033  16.706   8.036  0.00  0.00     0.073 A 
ENDROOT
BRANCH  10  11
HETATM   11  C   UNK N   1      33.118  16.307   8.993  0.00  0.00     0.026 A 
HETATM   12  C   UNK N   1      33.165  15.084   9.718  0.00  0.00     0.081 A 
HETATM   13  C   UNK N   1      34.235  14.822  10.581  0.00  0.00     0.074 A 
HETATM   14  C   UNK N   1      35.265  15.745  10.740  0.00  0.00     0.068 A 
HETATM   15  C   UNK N   1      35.239  16.941  10.029  0.00  0.00     0.037 A 
HETATM   16  C   UNK N   1      34.179  17.215   9.162  0.00  0.00     0.019 A 
BRANCH  12  17
HETATM   17  O   UNK N   1      32.224  14.142   9.587  0.00  0.00    -0.360 OA
HETATM   18  H   UNK N   1      31.870  13.947   8.742  0.00  0.00     0.217 HD
ENDBRANCH  12  17
BRANCH  14  19
HETATM   19  O   UNK N   1      36.283  15.478  11.573  0.00  0.00    -0.361 OA
HETATM   20  H   UNK N   1      36.114  15.093  12.411  0.00  0.00     0.217 HD
ENDBRANCH  14  19
ENDBRANCH  10  11
BRANCH   1  21
HETATM   21  C   UNK N   1      30.878  16.697   4.659  0.00  0.00     0.176 C 
BRANCH  21  22
HETATM   22  C   UNK N   1      31.909  17.425   3.864  0.00  0.00    -0.015 C 
HETATM   23  C   UNK N   1      32.739  16.744   3.079  0.00  0.00     0.008 C 
ENDBRANCH  21  22
ENDBRANCH   1  21
BRANCH   5  24
HETATM   24  C   UNK N   1      28.116  18.281   5.603  0.00  0.00     0.419 C 
HETATM   25  F   UNK N   1      28.901  19.015   4.733  0.00  0.00    -0.166 F 
HETATM   26  F   UNK N   1      27.822  17.066   5.006  0.00  0.00    -0.166 F 
HETATM   27  F   UNK N   1      26.926  18.936   5.764  0.00  0.00    -0.166 F 
ENDBRANCH   5  24
TORSDOF 6
ENDMDL
