REMARK  4 active torsions:
REMARK  status: ('A' for Active; 'I' for Inactive)
REMARK    1  A    between atoms: O_1  and  C_2 
REMARK    2  A    between atoms: C_4  and  O_5 
REMARK    3  A    between atoms: C_8  and  C_9 
REMARK    4  A    between atoms: C_13  and  O_14 
ROOT
HETATM    1  C   UNK N   1      -0.437  -0.722  -0.000  0.00  0.00     0.073 A 
HETATM    2  C   UNK N   1       0.890  -1.089   0.000  0.00  0.00     0.021 A 
HETATM    3  C   UNK N   1       2.071  -0.350   0.000  0.00  0.00     0.019 A 
HETATM    4  C   UNK N   1       3.284  -1.057   0.000  0.00  0.00     0.037 A 
HETATM    5  C   UNK N   1       3.288  -2.470   0.000  0.00  0.00     0.068 A 
HETATM    6  C   UNK N   1       2.073  -3.187  -0.000  0.00  0.00     0.068 A 
HETATM    7  C   UNK N   1       0.891  -2.450  -0.000  0.00  0.00     0.063 A 
HETATM    8  N   UNK N   1      -0.373  -2.907  -0.000  0.00  0.00    -0.299 N 
HETATM    9  N   UNK N   1      -1.188  -1.852  -0.000  0.00  0.00    -0.299 N 
ATOM     10  HN  UNK N   1      -2.207  -1.889  -0.000  1.00  0.00     0.187 HD
HETATM   11  H   UNK N   1      -0.649  -3.852  -0.000  0.00  0.00     0.187 HD
ENDROOT
BRANCH   1  12
HETATM   12  C   UNK N   1      -0.969   0.664  -0.000  0.00  0.00     0.026 A 
HETATM   13  C   UNK N   1      -2.354   0.942  -0.000  0.00  0.00     0.081 A 
HETATM   14  C   UNK N   1      -2.798   2.270   0.000  0.00  0.00     0.074 A 
HETATM   15  C   UNK N   1      -1.878   3.323   0.000  0.00  0.00     0.068 A 
HETATM   16  C   UNK N   1      -0.512   3.055   0.000  0.00  0.00     0.037 A 
HETATM   17  C   UNK N   1      -0.064   1.736  -0.000  0.00  0.00     0.019 A 
BRANCH  13  18
HETATM   18  O   UNK N   1      -3.262  -0.050  -0.000  0.00  0.00    -0.360 OA
HETATM   19  H   UNK N   1      -4.177   0.152  -0.000  0.00  0.00     0.217 HD
ENDBRANCH  13  18
BRANCH  15  20
HETATM   20  O   UNK N   1      -2.308   4.594   0.000  0.00  0.00    -0.361 OA
HETATM   21  H   UNK N   1      -1.690   5.298   0.000  0.00  0.00     0.217 HD
ENDBRANCH  15  20
ENDBRANCH   1  12
BRANCH   5  22
HETATM   22  O   UNK N   1       4.456  -3.131   0.000  0.00  0.00    -0.361 OA
HETATM   23  H   UNK N   1       4.464  -4.068   0.000  0.00  0.00     0.217 HD
ENDBRANCH   5  22
TORSDOF 4
