MODEL 1
REMARK VINA RESULT:      -6.9      0.000      0.000
REMARK  4 active torsions:
REMARK  status: ('A' for Active; 'I' for Inactive)
REMARK    1  A    between atoms: O_1  and  C_2 
REMARK    2  A    between atoms: C_4  and  O_5 
REMARK    3  A    between atoms: C_8  and  C_9 
REMARK    4  A    between atoms: C_13  and  O_14 
ROOT
HETATM    1  C   UNK N   1      27.238  17.727   6.212  0.00  0.00     0.073 A 
HETATM    2  C   UNK N   1      26.928  18.632   5.222  0.00  0.00     0.021 A 
HETATM    3  C   UNK N   1      27.627  19.706   4.676  0.00  0.00     0.019 A 
HETATM    4  C   UNK N   1      27.004  20.439   3.654  0.00  0.00     0.037 A 
HETATM    5  C   UNK N   1      25.711  20.085   3.206  0.00  0.00     0.068 A 
HETATM    6  C   UNK N   1      25.032  18.991   3.781  0.00  0.00     0.068 A 
HETATM    7  C   UNK N   1      25.683  18.289   4.793  0.00  0.00     0.063 A 
HETATM    8  N   UNK N   1      25.240  17.223   5.482  0.00  0.00    -0.299 N 
HETATM    9  N   UNK N   1      26.190  16.877   6.352  0.00  0.00    -0.299 N 
ATOM     10  HN  UNK N   1      26.136  16.102   7.012  1.00  0.00     0.187 HD
HETATM   11  H   UNK N   1      24.370  16.777   5.366  0.00  0.00     0.187 HD
ENDROOT
BRANCH   1  12
HETATM   12  C   UNK N   1      28.496  17.677   7.000  0.00  0.00     0.026 A 
HETATM   13  C   UNK N   1      28.538  17.986   8.377  0.00  0.00     0.081 A 
HETATM   14  C   UNK N   1      29.754  17.922   9.069  0.00  0.00     0.074 A 
HETATM   15  C   UNK N   1      30.927  17.553   8.404  0.00  0.00     0.068 A 
HETATM   16  C   UNK N   1      30.891  17.248   7.046  0.00  0.00     0.037 A 
HETATM   17  C   UNK N   1      29.685  17.310   6.352  0.00  0.00     0.019 A 
BRANCH  13  18
HETATM   18  O   UNK N   1      27.426  18.344   9.044  0.00  0.00    -0.360 OA
HETATM   19  H   UNK N   1      26.774  17.702   9.246  0.00  0.00     0.217 HD
ENDBRANCH  13  18
BRANCH  15  20
HETATM   20  O   UNK N   1      32.090  17.493   9.070  0.00  0.00    -0.361 OA
HETATM   21  H   UNK N   1      32.465  16.662   9.283  0.00  0.00     0.217 HD
ENDBRANCH  15  20
ENDBRANCH   1  12
BRANCH   5  22
HETATM   22  O   UNK N   1      25.130  20.796   2.228  0.00  0.00    -0.361 OA
HETATM   23  H   UNK N   1      24.597  20.365   1.589  0.00  0.00     0.217 HD
ENDBRANCH   5  22
TORSDOF 4
ENDMDL
MODEL 2
REMARK VINA RESULT:      -6.5      4.134      6.160
REMARK  4 active torsions:
REMARK  status: ('A' for Active; 'I' for Inactive)
REMARK    1  A    between atoms: O_1  and  C_2 
REMARK    2  A    between atoms: C_4  and  O_5 
REMARK    3  A    between atoms: C_8  and  C_9 
REMARK    4  A    between atoms: C_13  and  O_14 
ROOT
HETATM    1  C   UNK N   1      32.147  17.193   6.962  0.00  0.00     0.073 A 
HETATM    2  C   UNK N   1      30.836  17.370   7.343  0.00  0.00     0.021 A 
HETATM    3  C   UNK N   1      29.627  17.143   6.688  0.00  0.00     0.019 A 
HETATM    4  C   UNK N   1      28.443  17.439   7.382  0.00  0.00     0.037 A 
HETATM    5  C   UNK N   1      28.494  17.948   8.699  0.00  0.00     0.068 A 
HETATM    6  C   UNK N   1      29.736  18.166   9.332  0.00  0.00     0.068 A 
HETATM    7  C   UNK N   1      30.888  17.861   8.611  0.00  0.00     0.063 A 
HETATM    8  N   UNK N   1      32.169  17.983   9.000  0.00  0.00    -0.299 N 
HETATM    9  N   UNK N   1      32.942  17.575   7.993  0.00  0.00    -0.299 N 
ATOM     10  HN  UNK N   1      33.961  17.554   7.998  1.00  0.00     0.187 HD
HETATM   11  H   UNK N   1      32.482  18.314   9.873  0.00  0.00     0.187 HD
ENDROOT
BRANCH   1  12
HETATM   12  C   UNK N   1      32.625  16.675   5.655  0.00  0.00     0.026 A 
HETATM   13  C   UNK N   1      33.335  15.460   5.537  0.00  0.00     0.081 A 
HETATM   14  C   UNK N   1      33.761  15.022   4.277  0.00  0.00     0.074 A 
HETATM   15  C   UNK N   1      33.486  15.780   3.135  0.00  0.00     0.068 A 
HETATM   16  C   UNK N   1      32.786  16.978   3.245  0.00  0.00     0.037 A 
HETATM   17  C   UNK N   1      32.360  17.420   4.495  0.00  0.00     0.019 A 
BRANCH  13  18
HETATM   18  O   UNK N   1      33.614  14.710   6.618  0.00  0.00    -0.360 OA
HETATM   19  H   UNK N   1      32.926  14.254   7.062  0.00  0.00     0.217 HD
ENDBRANCH  13  18
BRANCH  15  20
HETATM   20  O   UNK N   1      33.896  15.355   1.930  0.00  0.00    -0.361 OA
HETATM   21  H   UNK N   1      33.996  14.439   1.764  0.00  0.00     0.217 HD
ENDBRANCH  15  20
ENDBRANCH   1  12
BRANCH   5  22
HETATM   22  O   UNK N   1      27.353  18.226   9.349  0.00  0.00    -0.361 OA
HETATM   23  H   UNK N   1      27.150  19.111   9.582  0.00  0.00     0.217 HD
ENDBRANCH   5  22
TORSDOF 4
ENDMDL
MODEL 3
REMARK VINA RESULT:      -6.3      1.876      6.090
REMARK  4 active torsions:
REMARK  status: ('A' for Active; 'I' for Inactive)
REMARK    1  A    between atoms: O_1  and  C_2 
REMARK    2  A    between atoms: C_4  and  O_5 
REMARK    3  A    between atoms: C_8  and  C_9 
REMARK    4  A    between atoms: C_13  and  O_14 
ROOT
HETATM    1  C   UNK N   1      28.012  18.264   4.708  0.00  0.00     0.073 A 
HETATM    2  C   UNK N   1      28.529  18.260   5.985  0.00  0.00     0.021 A 
HETATM    3  C   UNK N   1      28.112  18.859   7.171  0.00  0.00     0.019 A 
HETATM    4  C   UNK N   1      28.890  18.645   8.320  0.00  0.00     0.037 A 
HETATM    5  C   UNK N   1      30.054  17.846   8.257  0.00  0.00     0.068 A 
HETATM    6  C   UNK N   1      30.448  17.254   7.038  0.00  0.00     0.068 A 
HETATM    7  C   UNK N   1      29.650  17.490   5.921  0.00  0.00     0.063 A 
HETATM    8  N   UNK N   1      29.821  17.037   4.667  0.00  0.00    -0.299 N 
HETATM    9  N   UNK N   1      28.821  17.509   3.923  0.00  0.00    -0.299 N 
ATOM     10  HN  UNK N   1      28.687  17.332   2.927  1.00  0.00     0.187 HD
HETATM   11  H   UNK N   1      30.555  16.461   4.353  0.00  0.00     0.187 HD
ENDROOT
BRANCH   1  12
HETATM   12  C   UNK N   1      26.785  18.966   4.256  0.00  0.00     0.026 A 
HETATM   13  C   UNK N   1      25.490  18.534   4.618  0.00  0.00     0.081 A 
HETATM   14  C   UNK N   1      24.368  19.236   4.161  0.00  0.00     0.074 A 
HETATM   15  C   UNK N   1      24.523  20.364   3.348  0.00  0.00     0.068 A 
HETATM   16  C   UNK N   1      25.797  20.794   2.988  0.00  0.00     0.037 A 
HETATM   17  C   UNK N   1      26.917  20.099   3.440  0.00  0.00     0.019 A 
BRANCH  13  18
HETATM   18  O   UNK N   1      25.310  17.453   5.398  0.00  0.00    -0.360 OA
HETATM   19  H   UNK N   1      24.496  17.328   5.844  0.00  0.00     0.217 HD
ENDBRANCH  13  18
BRANCH  15  20
HETATM   20  O   UNK N   1      23.445  21.034   2.912  0.00  0.00    -0.361 OA
HETATM   21  H   UNK N   1      23.111  20.876   2.051  0.00  0.00     0.217 HD
ENDBRANCH  15  20
ENDBRANCH   1  12
BRANCH   5  22
HETATM   22  O   UNK N   1      30.787  17.651   9.364  0.00  0.00    -0.361 OA
HETATM   23  H   UNK N   1      30.363  17.505  10.186  0.00  0.00     0.217 HD
ENDBRANCH   5  22
TORSDOF 4
ENDMDL
MODEL 4
REMARK VINA RESULT:      -6.2      1.699      6.006
REMARK  4 active torsions:
REMARK  status: ('A' for Active; 'I' for Inactive)
REMARK    1  A    between atoms: O_1  and  C_2 
REMARK    2  A    between atoms: C_4  and  O_5 
REMARK    3  A    between atoms: C_8  and  C_9 
REMARK    4  A    between atoms: C_13  and  O_14 
ROOT
HETATM    1  C   UNK N   1      27.813  18.825   6.949  0.00  0.00     0.073 A 
HETATM    2  C   UNK N   1      28.935  18.036   7.058  0.00  0.00     0.021 A 
HETATM    3  C   UNK N   1      29.733  17.397   6.111  0.00  0.00     0.019 A 
HETATM    4  C   UNK N   1      30.830  16.653   6.575  0.00  0.00     0.037 A 
HETATM    5  C   UNK N   1      31.100  16.566   7.959  0.00  0.00     0.068 A 
HETATM    6  C   UNK N   1      30.271  17.225   8.891  0.00  0.00     0.068 A 
HETATM    7  C   UNK N   1      29.194  17.953   8.392  0.00  0.00     0.063 A 
HETATM    8  N   UNK N   1      28.277  18.656   9.079  0.00  0.00    -0.299 N 
HETATM    9  N   UNK N   1      27.430  19.191   8.198  0.00  0.00    -0.299 N 
ATOM     10  HN  UNK N   1      26.628  19.778   8.427  1.00  0.00     0.187 HD
HETATM   11  H   UNK N   1      28.236  18.759  10.057  0.00  0.00     0.187 HD
ENDROOT
BRANCH   1  12
HETATM   12  C   UNK N   1      27.128  19.216   5.691  0.00  0.00     0.026 A 
HETATM   13  C   UNK N   1      26.085  18.448   5.128  0.00  0.00     0.081 A 
HETATM   14  C   UNK N   1      25.476  18.867   3.938  0.00  0.00     0.074 A 
HETATM   15  C   UNK N   1      25.895  20.041   3.305  0.00  0.00     0.068 A 
HETATM   16  C   UNK N   1      26.922  20.801   3.855  0.00  0.00     0.037 A 
HETATM   17  C   UNK N   1      27.532  20.391   5.038  0.00  0.00     0.019 A 
BRANCH  13  18
HETATM   18  O   UNK N   1      25.662  17.315   5.715  0.00  0.00    -0.360 OA
HETATM   19  H   UNK N   1      26.282  16.665   5.982  0.00  0.00     0.217 HD
ENDBRANCH  13  18
BRANCH  15  20
HETATM   20  O   UNK N   1      25.308  20.438   2.165  0.00  0.00    -0.361 OA
HETATM   21  H   UNK N   1      25.141  19.818   1.483  0.00  0.00     0.217 HD
ENDBRANCH  15  20
ENDBRANCH   1  12
BRANCH   5  22
HETATM   22  O   UNK N   1      32.152  15.851   8.387  0.00  0.00    -0.361 OA
HETATM   23  H   UNK N   1      32.239  14.951   8.139  0.00  0.00     0.217 HD
ENDBRANCH   5  22
TORSDOF 4
ENDMDL
MODEL 5
REMARK VINA RESULT:      -6.2      3.482      5.449
REMARK  4 active torsions:
REMARK  status: ('A' for Active; 'I' for Inactive)
REMARK    1  A    between atoms: O_1  and  C_2 
REMARK    2  A    between atoms: C_4  and  O_5 
REMARK    3  A    between atoms: C_8  and  C_9 
REMARK    4  A    between atoms: C_13  and  O_14 
ROOT
HETATM    1  C   UNK N   1      31.754  16.406   8.009  0.00  0.00     0.073 A 
HETATM    2  C   UNK N   1      30.721  17.286   8.242  0.00  0.00     0.021 A 
HETATM    3  C   UNK N   1      30.531  18.284   9.196  0.00  0.00     0.019 A 
HETATM    4  C   UNK N   1      29.333  19.014   9.148  0.00  0.00     0.037 A 
HETATM    5  C   UNK N   1      28.363  18.733   8.159  0.00  0.00     0.068 A 
HETATM    6  C   UNK N   1      28.588  17.715   7.209  0.00  0.00     0.068 A 
HETATM    7  C   UNK N   1      29.789  17.013   7.289  0.00  0.00     0.063 A 
HETATM    8  N   UNK N   1      30.220  16.013   6.502  0.00  0.00    -0.299 N 
HETATM    9  N   UNK N   1      31.422  15.639   6.940  0.00  0.00    -0.299 N 
ATOM     10  HN  UNK N   1      31.997  14.899   6.538  1.00  0.00     0.187 HD
HETATM   11  H   UNK N   1      29.736  15.624   5.738  0.00  0.00     0.187 HD
ENDROOT
BRANCH   1  12
HETATM   12  C   UNK N   1      33.016  16.302   8.784  0.00  0.00     0.026 A 
HETATM   13  C   UNK N   1      33.361  15.143   9.514  0.00  0.00     0.081 A 
HETATM   14  C   UNK N   1      34.566  15.102  10.227  0.00  0.00     0.074 A 
HETATM   15  C   UNK N   1      35.429  16.202  10.221  0.00  0.00     0.068 A 
HETATM   16  C   UNK N   1      35.093  17.347   9.503  0.00  0.00     0.037 A 
HETATM   17  C   UNK N   1      33.897  17.394   8.792  0.00  0.00     0.019 A 
BRANCH  13  18
HETATM   18  O   UNK N   1      32.551  14.070   9.539  0.00  0.00    -0.360 OA
HETATM   19  H   UNK N   1      31.651  14.167   9.781  0.00  0.00     0.217 HD
ENDBRANCH  13  18
BRANCH  15  20
HETATM   20  O   UNK N   1      36.582  16.158  10.905  0.00  0.00    -0.361 OA
HETATM   21  H   UNK N   1      36.839  15.369  11.340  0.00  0.00     0.217 HD
ENDBRANCH  15  20
ENDBRANCH   1  12
BRANCH   5  22
HETATM   22  O   UNK N   1      27.223  19.440   8.127  0.00  0.00    -0.361 OA
HETATM   23  H   UNK N   1      26.592  19.342   8.813  0.00  0.00     0.217 HD
ENDBRANCH   5  22
TORSDOF 4
ENDMDL
MODEL 6
REMARK VINA RESULT:      -6.2     10.686     12.949
REMARK  4 active torsions:
REMARK  status: ('A' for Active; 'I' for Inactive)
REMARK    1  A    between atoms: O_1  and  C_2 
REMARK    2  A    between atoms: C_4  and  O_5 
REMARK    3  A    between atoms: C_8  and  C_9 
REMARK    4  A    between atoms: C_13  and  O_14 
ROOT
HETATM    1  C   UNK N   1      36.799  13.150  14.091  0.00  0.00     0.073 A 
HETATM    2  C   UNK N   1      36.415  13.757  12.917  0.00  0.00     0.021 A 
HETATM    3  C   UNK N   1      35.545  14.810  12.642  0.00  0.00     0.019 A 
HETATM    4  C   UNK N   1      35.379  15.186  11.299  0.00  0.00     0.037 A 
HETATM    5  C   UNK N   1      36.078  14.509  10.275  0.00  0.00     0.068 A 
HETATM    6  C   UNK N   1      36.951  13.446  10.589  0.00  0.00     0.068 A 
HETATM    7  C   UNK N   1      37.089  13.103  11.932  0.00  0.00     0.063 A 
HETATM    8  N   UNK N   1      37.855  12.136  12.468  0.00  0.00    -0.299 N 
HETATM    9  N   UNK N   1      37.679  12.162  13.789  0.00  0.00    -0.299 N 
ATOM     10  HN  UNK N   1      38.132  11.543  14.460  1.00  0.00     0.187 HD
HETATM   11  H   UNK N   1      38.441  11.518  11.974  0.00  0.00     0.187 HD
ENDROOT
BRANCH   1  12
HETATM   12  C   UNK N   1      36.339  13.502  15.458  0.00  0.00     0.026 A 
HETATM   13  C   UNK N   1      36.834  14.626  16.156  0.00  0.00     0.081 A 
HETATM   14  C   UNK N   1      36.363  14.910  17.444  0.00  0.00     0.074 A 
HETATM   15  C   UNK N   1      35.404  14.087  18.043  0.00  0.00     0.068 A 
HETATM   16  C   UNK N   1      34.912  12.978  17.360  0.00  0.00     0.037 A 
HETATM   17  C   UNK N   1      35.377  12.691  16.079  0.00  0.00     0.019 A 
BRANCH  13  18
HETATM   18  O   UNK N   1      37.756  15.435  15.605  0.00  0.00    -0.360 OA
HETATM   19  H   UNK N   1      37.874  15.447  14.676  0.00  0.00     0.217 HD
ENDBRANCH  13  18
BRANCH  15  20
HETATM   20  O   UNK N   1      34.956  14.363  19.277  0.00  0.00    -0.361 OA
HETATM   21  H   UNK N   1      34.264  13.852  19.649  0.00  0.00     0.217 HD
ENDBRANCH  15  20
ENDBRANCH   1  12
BRANCH   5  22
HETATM   22  O   UNK N   1      35.907  14.880   8.997  0.00  0.00    -0.361 OA
HETATM   23  H   UNK N   1      35.724  15.776   8.790  0.00  0.00     0.217 HD
ENDBRANCH   5  22
TORSDOF 4
ENDMDL
MODEL 7
REMARK VINA RESULT:      -6.1     11.716     14.115
REMARK  4 active torsions:
REMARK  status: ('A' for Active; 'I' for Inactive)
REMARK    1  A    between atoms: O_1  and  C_2 
REMARK    2  A    between atoms: C_4  and  O_5 
REMARK    3  A    between atoms: C_8  and  C_9 
REMARK    4  A    between atoms: C_13  and  O_14 
ROOT
HETATM    1  C   UNK N   1      36.011  13.460  16.066  0.00  0.00     0.073 A 
HETATM    2  C   UNK N   1      35.600  13.031  14.824  0.00  0.00     0.021 A 
HETATM    3  C   UNK N   1      34.781  11.981  14.414  0.00  0.00     0.019 A 
HETATM    4  C   UNK N   1      34.563  11.822  13.036  0.00  0.00     0.037 A 
HETATM    5  C   UNK N   1      35.161  12.706  12.111  0.00  0.00     0.068 A 
HETATM    6  C   UNK N   1      35.985  13.759  12.561  0.00  0.00     0.068 A 
HETATM    7  C   UNK N   1      36.178  13.884  13.935  0.00  0.00     0.063 A 
HETATM    8  N   UNK N   1      36.912  14.798  14.591  0.00  0.00    -0.299 N 
HETATM    9  N   UNK N   1      36.813  14.541  15.895  0.00  0.00    -0.299 N 
ATOM     10  HN  UNK N   1      37.264  15.070  16.641  1.00  0.00     0.187 HD
HETATM   11  H   UNK N   1      37.432  15.528  14.183  0.00  0.00     0.187 HD
ENDROOT
BRANCH   1  12
HETATM   12  C   UNK N   1      35.650  12.854  17.372  0.00  0.00     0.026 A 
HETATM   13  C   UNK N   1      35.312  13.636  18.500  0.00  0.00     0.081 A 
HETATM   14  C   UNK N   1      34.980  13.009  19.707  0.00  0.00     0.074 A 
HETATM   15  C   UNK N   1      34.980  11.614  19.803  0.00  0.00     0.068 A 
HETATM   16  C   UNK N   1      35.312  10.839  18.696  0.00  0.00     0.037 A 
HETATM   17  C   UNK N   1      35.644  11.456  17.492  0.00  0.00     0.019 A 
BRANCH  13  18
HETATM   18  O   UNK N   1      35.304  14.979  18.437  0.00  0.00    -0.360 OA
HETATM   19  H   UNK N   1      34.844  15.413  17.746  0.00  0.00     0.217 HD
ENDBRANCH  13  18
BRANCH  15  20
HETATM   20  O   UNK N   1      34.661  11.018  20.963  0.00  0.00    -0.361 OA
HETATM   21  H   UNK N   1      33.998  11.387  21.512  0.00  0.00     0.217 HD
ENDBRANCH  15  20
ENDBRANCH   1  12
BRANCH   5  22
HETATM   22  O   UNK N   1      34.942  12.541  10.797  0.00  0.00    -0.361 OA
HETATM   23  H   UNK N   1      34.212  12.962  10.387  0.00  0.00     0.217 HD
ENDBRANCH   5  22
TORSDOF 4
ENDMDL
MODEL 8
REMARK VINA RESULT:      -6.1      5.230      9.133
REMARK  4 active torsions:
REMARK  status: ('A' for Active; 'I' for Inactive)
REMARK    1  A    between atoms: O_1  and  C_2 
REMARK    2  A    between atoms: C_4  and  O_5 
REMARK    3  A    between atoms: C_8  and  C_9 
REMARK    4  A    between atoms: C_13  and  O_14 
ROOT
HETATM    1  C   UNK N   1      33.991  16.732   8.425  0.00  0.00     0.073 A 
HETATM    2  C   UNK N   1      34.934  15.747   8.610  0.00  0.00     0.021 A 
HETATM    3  C   UNK N   1      35.387  14.713   7.794  0.00  0.00     0.019 A 
HETATM    4  C   UNK N   1      36.385  13.867   8.305  0.00  0.00     0.037 A 
HETATM    5  C   UNK N   1      36.901  14.073   9.604  0.00  0.00     0.068 A 
HETATM    6  C   UNK N   1      36.419  15.131  10.404  0.00  0.00     0.068 A 
HETATM    7  C   UNK N   1      35.429  15.948   9.862  0.00  0.00     0.063 A 
HETATM    8  N   UNK N   1      34.823  17.005  10.428  0.00  0.00    -0.299 N 
HETATM    9  N   UNK N   1      33.942  17.488   9.552  0.00  0.00    -0.299 N 
ATOM     10  HN  UNK N   1      33.333  18.291   9.703  1.00  0.00     0.187 HD
HETATM   11  H   UNK N   1      34.998  17.361  11.329  0.00  0.00     0.187 HD
ENDROOT
BRANCH   1  12
HETATM   12  C   UNK N   1      33.162  16.944   7.212  0.00  0.00     0.026 A 
HETATM   13  C   UNK N   1      31.757  16.805   7.222  0.00  0.00     0.081 A 
HETATM   14  C   UNK N   1      31.027  17.017   6.046  0.00  0.00     0.074 A 
HETATM   15  C   UNK N   1      31.682  17.366   4.861  0.00  0.00     0.068 A 
HETATM   16  C   UNK N   1      33.067  17.505   4.845  0.00  0.00     0.037 A 
HETATM   17  C   UNK N   1      33.798  17.296   6.012  0.00  0.00     0.019 A 
BRANCH  13  18
HETATM   18  O   UNK N   1      31.100  16.469   8.347  0.00  0.00    -0.360 OA
HETATM   19  H   UNK N   1      31.438  16.727   9.182  0.00  0.00     0.217 HD
ENDBRANCH  13  18
BRANCH  15  20
HETATM   20  O   UNK N   1      30.978  17.569   3.737  0.00  0.00    -0.361 OA
HETATM   21  H   UNK N   1      30.361  18.272   3.690  0.00  0.00     0.217 HD
ENDBRANCH  15  20
ENDBRANCH   1  12
BRANCH   5  22
HETATM   22  O   UNK N   1      37.854  13.256  10.078  0.00  0.00    -0.361 OA
HETATM   23  H   UNK N   1      37.795  12.332   9.931  0.00  0.00     0.217 HD
ENDBRANCH   5  22
TORSDOF 4
ENDMDL
MODEL 9
REMARK VINA RESULT:      -6.1     11.166     13.426
REMARK  4 active torsions:
REMARK  status: ('A' for Active; 'I' for Inactive)
REMARK    1  A    between atoms: O_1  and  C_2 
REMARK    2  A    between atoms: C_4  and  O_5 
REMARK    3  A    between atoms: C_8  and  C_9 
REMARK    4  A    between atoms: C_13  and  O_14 
ROOT
HETATM    1  C   UNK N   1      34.706  11.952  15.018  0.00  0.00     0.073 A 
HETATM    2  C   UNK N   1      35.212  12.731  14.002  0.00  0.00     0.021 A 
HETATM    3  C   UNK N   1      36.037  13.853  13.998  0.00  0.00     0.019 A 
HETATM    4  C   UNK N   1      36.368  14.416  12.755  0.00  0.00     0.037 A 
HETATM    5  C   UNK N   1      35.873  13.850  11.559  0.00  0.00     0.068 A 
HETATM    6  C   UNK N   1      35.040  12.712  11.600  0.00  0.00     0.068 A 
HETATM    7  C   UNK N   1      34.734  12.183  12.851  0.00  0.00     0.063 A 
HETATM    8  N   UNK N   1      33.968  11.116  13.138  0.00  0.00    -0.299 N 
HETATM    9  N   UNK N   1      33.949  10.972  14.463  0.00  0.00    -0.299 N 
ATOM     10  HN  UNK N   1      33.449  10.245  14.974  1.00  0.00     0.187 HD
HETATM   11  H   UNK N   1      33.504  10.543  12.486  0.00  0.00     0.187 HD
ENDROOT
BRANCH   1  12
HETATM   12  C   UNK N   1      34.939  12.138  16.472  0.00  0.00     0.026 A 
HETATM   13  C   UNK N   1      35.171  11.053  17.346  0.00  0.00     0.081 A 
HETATM   14  C   UNK N   1      35.384  11.289  18.710  0.00  0.00     0.074 A 
HETATM   15  C   UNK N   1      35.370  12.594  19.212  0.00  0.00     0.068 A 
HETATM   16  C   UNK N   1      35.142  13.668  18.355  0.00  0.00     0.037 A 
HETATM   17  C   UNK N   1      34.928  13.439  16.998  0.00  0.00     0.019 A 
BRANCH  13  18
HETATM   18  O   UNK N   1      35.191   9.787  16.892  0.00  0.00    -0.360 OA
HETATM   19  H   UNK N   1      36.007   9.339  16.789  0.00  0.00     0.217 HD
ENDBRANCH  13  18
BRANCH  15  20
HETATM   20  O   UNK N   1      35.575  12.816  20.519  0.00  0.00    -0.361 OA
HETATM   21  H   UNK N   1      35.254  13.601  20.917  0.00  0.00     0.217 HD
ENDBRANCH  15  20
ENDBRANCH   1  12
BRANCH   5  22
HETATM   22  O   UNK N   1      36.200  14.399  10.379  0.00  0.00    -0.361 OA
HETATM   23  H   UNK N   1      36.067  13.919   9.586  0.00  0.00     0.217 HD
ENDBRANCH   5  22
TORSDOF 4
ENDMDL
