MODEL 1
REMARK VINA RESULT:      -6.7      0.000      0.000
REMARK  3 active torsions:
REMARK  status: ('A' for Active; 'I' for Inactive)
REMARK    1  A    between atoms: C_5  and  O_6 
REMARK    2  A    between atoms: C_7  and  O_8 
REMARK    3  A    between atoms: C_11  and  C_14 
ROOT
HETATM    1  O   UNK N   1      35.332  19.259   8.423  0.00  0.00    -0.260 OA
HETATM    2  C   UNK N   1      34.618  18.272   8.466  0.00  0.00     0.289 A 
HETATM    3  O   UNK N   1      35.153  17.085   8.726  0.00  0.00    -0.272 OA
HETATM    4  C   UNK N   1      34.424  15.972   8.786  0.00  0.00     0.126 A 
HETATM    5  C   UNK N   1      35.048  14.744   9.066  0.00  0.00     0.134 A 
HETATM    6  C   UNK N   1      34.285  13.568   9.131  0.00  0.00     0.101 A 
HETATM    7  C   UNK N   1      32.911  13.615   8.918  0.00  0.00     0.040 A 
HETATM    8  C   UNK N   1      33.246  18.402   8.241  0.00  0.00     0.095 A 
HETATM    9  C   UNK N   1      32.414  17.272   8.289  0.00  0.00    -0.007 A 
HETATM   10  C   UNK N   1      33.024  16.021   8.570  0.00  0.00     0.012 A 
HETATM   11  C   UNK N   1      32.289  14.828   8.641  0.00  0.00     0.018 A 
ENDROOT
BRANCH   9  12
HETATM   12  C   UNK N   1      30.940  17.443   8.042  0.00  0.00    -0.025 A 
HETATM   13  C   UNK N   1      30.370  17.197   6.780  0.00  0.00     0.012 A 
HETATM   14  C   UNK N   1      29.003  17.358   6.557  0.00  0.00     0.001 A 
HETATM   15  C   UNK N   1      28.175  17.770   7.600  0.00  0.00     0.000 A 
HETATM   16  C   UNK N   1      28.718  18.020   8.862  0.00  0.00     0.001 A 
HETATM   17  C   UNK N   1      30.090  17.859   9.083  0.00  0.00     0.012 A 
ENDBRANCH   9  12
BRANCH   5  18
HETATM   18  O   UNK N   1      36.375  14.693   9.272  0.00  0.00    -0.356 OA
HETATM   19  H   UNK N   1      36.953  15.185   8.724  0.00  0.00     0.218 HD
ENDBRANCH   5  18
BRANCH   6  20
HETATM   20  O   UNK N   1      34.872  12.390   9.397  0.00  0.00    -0.358 OA
HETATM   21  H   UNK N   1      35.449  12.310  10.132  0.00  0.00     0.217 HD
ENDBRANCH   6  20
TORSDOF 3
ENDMDL
MODEL 2
REMARK VINA RESULT:      -6.7      3.420      5.260
REMARK  3 active torsions:
REMARK  status: ('A' for Active; 'I' for Inactive)
REMARK    1  A    between atoms: C_5  and  O_6 
REMARK    2  A    between atoms: C_7  and  O_8 
REMARK    3  A    between atoms: C_11  and  C_14 
ROOT
HETATM    1  O   UNK N   1      32.311  16.673   4.476  0.00  0.00    -0.260 OA
HETATM    2  C   UNK N   1      31.360  17.009   5.160  0.00  0.00     0.289 A 
HETATM    3  O   UNK N   1      31.419  16.871   6.480  0.00  0.00    -0.272 OA
HETATM    4  C   UNK N   1      30.413  17.221   7.279  0.00  0.00     0.126 A 
HETATM    5  C   UNK N   1      30.535  17.051   8.669  0.00  0.00     0.134 A 
HETATM    6  C   UNK N   1      29.478  17.418   9.516  0.00  0.00     0.101 A 
HETATM    7  C   UNK N   1      28.309  17.950   8.983  0.00  0.00     0.040 A 
HETATM    8  C   UNK N   1      30.221  17.536   4.549  0.00  0.00     0.095 A 
HETATM    9  C   UNK N   1      29.120  17.926   5.328  0.00  0.00    -0.007 A 
HETATM   10  C   UNK N   1      29.222  17.763   6.735  0.00  0.00     0.012 A 
HETATM   11  C   UNK N   1      28.184  18.120   7.608  0.00  0.00     0.018 A 
ENDROOT
BRANCH   9  12
HETATM   12  C   UNK N   1      27.906  18.490   4.641  0.00  0.00    -0.025 A 
HETATM   13  C   UNK N   1      26.866  17.662   4.184  0.00  0.00     0.012 A 
HETATM   14  C   UNK N   1      25.744  18.189   3.547  0.00  0.00     0.001 A 
HETATM   15  C   UNK N   1      25.640  19.566   3.355  0.00  0.00     0.000 A 
HETATM   16  C   UNK N   1      26.660  20.409   3.800  0.00  0.00     0.001 A 
HETATM   17  C   UNK N   1      27.786  19.877   4.438  0.00  0.00     0.012 A 
ENDBRANCH   9  12
BRANCH   5  18
HETATM   18  O   UNK N   1      31.662  16.537   9.190  0.00  0.00    -0.356 OA
HETATM   19  H   UNK N   1      31.745  16.432  10.116  0.00  0.00     0.218 HD
ENDBRANCH   5  18
BRANCH   6  20
HETATM   20  O   UNK N   1      29.585  17.259  10.845  0.00  0.00    -0.358 OA
HETATM   21  H   UNK N   1      29.155  17.856  11.425  0.00  0.00     0.217 HD
ENDBRANCH   6  20
TORSDOF 3
ENDMDL
MODEL 3
REMARK VINA RESULT:      -6.6     11.334     13.299
REMARK  3 active torsions:
REMARK  status: ('A' for Active; 'I' for Inactive)
REMARK    1  A    between atoms: C_5  and  O_6 
REMARK    2  A    between atoms: C_7  and  O_8 
REMARK    3  A    between atoms: C_11  and  C_14 
ROOT
HETATM    1  O   UNK N   1      20.012  18.198   8.577  0.00  0.00    -0.260 OA
HETATM    2  C   UNK N   1      20.136  17.072   8.127  0.00  0.00     0.289 A 
HETATM    3  O   UNK N   1      19.666  16.792   6.916  0.00  0.00    -0.272 OA
HETATM    4  C   UNK N   1      19.773  15.581   6.373  0.00  0.00     0.126 A 
HETATM    5  C   UNK N   1      19.255  15.347   5.087  0.00  0.00     0.134 A 
HETATM    6  C   UNK N   1      19.365  14.073   4.509  0.00  0.00     0.101 A 
HETATM    7  C   UNK N   1      19.985  13.041   5.205  0.00  0.00     0.040 A 
HETATM    8  C   UNK N   1      20.772  16.090   8.889  0.00  0.00     0.095 A 
HETATM    9  C   UNK N   1      20.921  14.790   8.380  0.00  0.00    -0.007 A 
HETATM   10  C   UNK N   1      20.405  14.531   7.083  0.00  0.00     0.012 A 
HETATM   11  C   UNK N   1      20.499  13.269   6.478  0.00  0.00     0.018 A 
ENDROOT
BRANCH   9  12
HETATM   12  C   UNK N   1      21.610  13.753   9.225  0.00  0.00    -0.025 A 
HETATM   13  C   UNK N   1      22.956  13.404   9.012  0.00  0.00     0.012 A 
HETATM   14  C   UNK N   1      23.589  12.442   9.798  0.00  0.00     0.001 A 
HETATM   15  C   UNK N   1      22.884  11.807  10.819  0.00  0.00     0.000 A 
HETATM   16  C   UNK N   1      21.547  12.137  11.049  0.00  0.00     0.001 A 
HETATM   17  C   UNK N   1      20.913  13.102  10.259  0.00  0.00     0.012 A 
ENDBRANCH   9  12
BRANCH   5  18
HETATM   18  O   UNK N   1      18.655  16.340   4.409  0.00  0.00    -0.356 OA
HETATM   19  H   UNK N   1      18.778  16.417   3.485  0.00  0.00     0.218 HD
ENDBRANCH   5  18
BRANCH   6  20
HETATM   20  O   UNK N   1      18.873  13.839   3.281  0.00  0.00    -0.358 OA
HETATM   21  H   UNK N   1      17.975  14.029   3.091  0.00  0.00     0.217 HD
ENDBRANCH   6  20
TORSDOF 3
ENDMDL
MODEL 4
REMARK VINA RESULT:      -6.6     16.363     18.827
REMARK  3 active torsions:
REMARK  status: ('A' for Active; 'I' for Inactive)
REMARK    1  A    between atoms: C_5  and  O_6 
REMARK    2  A    between atoms: C_7  and  O_8 
REMARK    3  A    between atoms: C_11  and  C_14 
ROOT
HETATM    1  O   UNK N   1      26.874  23.888  -2.624  0.00  0.00    -0.260 OA
HETATM    2  C   UNK N   1      26.716  24.530  -3.649  0.00  0.00     0.289 A 
HETATM    3  O   UNK N   1      26.343  23.909  -4.762  0.00  0.00    -0.272 OA
HETATM    4  C   UNK N   1      26.155  24.557  -5.910  0.00  0.00     0.126 A 
HETATM    5  C   UNK N   1      25.760  23.845  -7.056  0.00  0.00     0.134 A 
HETATM    6  C   UNK N   1      25.561  24.522  -8.269  0.00  0.00     0.101 A 
HETATM    7  C   UNK N   1      25.753  25.897  -8.340  0.00  0.00     0.040 A 
HETATM    8  C   UNK N   1      26.930  25.910  -3.639  0.00  0.00     0.095 A 
HETATM    9  C   UNK N   1      26.751  26.658  -4.813  0.00  0.00    -0.007 A 
HETATM   10  C   UNK N   1      26.352  25.959  -5.982  0.00  0.00     0.012 A 
HETATM   11  C   UNK N   1      26.144  26.606  -7.209  0.00  0.00     0.018 A 
ENDROOT
BRANCH   9  12
HETATM   12  C   UNK N   1      26.989  28.144  -4.771  0.00  0.00    -0.025 A 
HETATM   13  C   UNK N   1      27.990  28.752  -5.548  0.00  0.00     0.012 A 
HETATM   14  C   UNK N   1      28.206  30.129  -5.506  0.00  0.00     0.001 A 
HETATM   15  C   UNK N   1      27.419  30.928  -4.680  0.00  0.00     0.000 A 
HETATM   16  C   UNK N   1      26.418  30.347  -3.898  0.00  0.00     0.001 A 
HETATM   17  C   UNK N   1      26.203  28.965  -3.943  0.00  0.00     0.012 A 
ENDBRANCH   9  12
BRANCH   5  18
HETATM   18  O   UNK N   1      25.573  22.515  -6.993  0.00  0.00    -0.356 OA
HETATM   19  H   UNK N   1      25.645  22.071  -6.172  0.00  0.00     0.218 HD
ENDBRANCH   5  18
BRANCH   6  20
HETATM   20  O   UNK N   1      25.183  23.849  -9.368  0.00  0.00    -0.358 OA
HETATM   21  H   UNK N   1      24.282  23.840  -9.626  0.00  0.00     0.217 HD
ENDBRANCH   6  20
TORSDOF 3
ENDMDL
MODEL 5
REMARK VINA RESULT:      -6.5      4.391      6.563
REMARK  3 active torsions:
REMARK  status: ('A' for Active; 'I' for Inactive)
REMARK    1  A    between atoms: C_5  and  O_6 
REMARK    2  A    between atoms: C_7  and  O_8 
REMARK    3  A    between atoms: C_11  and  C_14 
ROOT
HETATM    1  O   UNK N   1      26.429  17.842   4.423  0.00  0.00    -0.260 OA
HETATM    2  C   UNK N   1      27.468  17.719   5.049  0.00  0.00     0.289 A 
HETATM    3  O   UNK N   1      27.515  18.093   6.323  0.00  0.00    -0.272 OA
HETATM    4  C   UNK N   1      28.620  17.983   7.057  0.00  0.00     0.126 A 
HETATM    5  C   UNK N   1      28.608  18.396   8.401  0.00  0.00     0.134 A 
HETATM    6  C   UNK N   1      29.770  18.282   9.180  0.00  0.00     0.101 A 
HETATM    7  C   UNK N   1      30.934  17.761   8.625  0.00  0.00     0.040 A 
HETATM    8  C   UNK N   1      28.594  17.186   4.420  0.00  0.00     0.095 A 
HETATM    9  C   UNK N   1      29.795  17.040   5.132  0.00  0.00    -0.007 A 
HETATM   10  C   UNK N   1      29.806  17.451   6.491  0.00  0.00     0.012 A 
HETATM   11  C   UNK N   1      30.950  17.350   7.296  0.00  0.00     0.018 A 
ENDROOT
BRANCH   9  12
HETATM   12  C   UNK N   1      30.993  16.462   4.428  0.00  0.00    -0.025 A 
HETATM   13  C   UNK N   1      31.235  15.077   4.400  0.00  0.00     0.012 A 
HETATM   14  C   UNK N   1      32.346  14.547   3.745  0.00  0.00     0.001 A 
HETATM   15  C   UNK N   1      33.242  15.398   3.102  0.00  0.00     0.000 A 
HETATM   16  C   UNK N   1      33.023  16.778   3.117  0.00  0.00     0.001 A 
HETATM   17  C   UNK N   1      31.907  17.307   3.774  0.00  0.00     0.012 A 
ENDBRANCH   9  12
BRANCH   5  18
HETATM   18  O   UNK N   1      27.486  18.901   8.942  0.00  0.00    -0.356 OA
HETATM   19  H   UNK N   1      27.275  19.805   8.822  0.00  0.00     0.218 HD
ENDBRANCH   5  18
BRANCH   6  20
HETATM   20  O   UNK N   1      29.768  18.675  10.464  0.00  0.00    -0.358 OA
HETATM   21  H   UNK N   1      30.329  18.252  11.085  0.00  0.00     0.217 HD
ENDBRANCH   6  20
TORSDOF 3
ENDMDL
MODEL 6
REMARK VINA RESULT:      -6.5      8.439     11.406
REMARK  3 active torsions:
REMARK  status: ('A' for Active; 'I' for Inactive)
REMARK    1  A    between atoms: C_5  and  O_6 
REMARK    2  A    between atoms: C_7  and  O_8 
REMARK    3  A    between atoms: C_11  and  C_14 
ROOT
HETATM    1  O   UNK N   1      21.224  21.273   1.889  0.00  0.00    -0.260 OA
HETATM    2  C   UNK N   1      21.979  20.583   2.552  0.00  0.00     0.289 A 
HETATM    3  O   UNK N   1      23.291  20.774   2.465  0.00  0.00    -0.272 OA
HETATM    4  C   UNK N   1      24.165  20.051   3.163  0.00  0.00     0.126 A 
HETATM    5  C   UNK N   1      25.542  20.301   3.028  0.00  0.00     0.134 A 
HETATM    6  C   UNK N   1      26.467  19.542   3.762  0.00  0.00     0.101 A 
HETATM    7  C   UNK N   1      26.024  18.544   4.623  0.00  0.00     0.040 A 
HETATM    8  C   UNK N   1      21.457  19.600   3.395  0.00  0.00     0.095 A 
HETATM    9  C   UNK N   1      22.318  18.800   4.162  0.00  0.00    -0.007 A 
HETATM   10  C   UNK N   1      23.713  19.034   4.041  0.00  0.00     0.012 A 
HETATM   11  C   UNK N   1      24.663  18.294   4.760  0.00  0.00     0.018 A 
ENDROOT
BRANCH   9  12
HETATM   12  C   UNK N   1      21.725  17.748   5.061  0.00  0.00    -0.025 A 
HETATM   13  C   UNK N   1      21.325  18.043   6.376  0.00  0.00     0.012 A 
HETATM   14  C   UNK N   1      20.777  17.066   7.205  0.00  0.00     0.001 A 
HETATM   15  C   UNK N   1      20.616  15.765   6.730  0.00  0.00     0.000 A 
HETATM   16  C   UNK N   1      21.006  15.448   5.427  0.00  0.00     0.001 A 
HETATM   17  C   UNK N   1      21.556  16.431   4.597  0.00  0.00     0.012 A 
ENDBRANCH   9  12
BRANCH   5  18
HETATM   18  O   UNK N   1      25.974  21.264   2.197  0.00  0.00    -0.356 OA
HETATM   19  H   UNK N   1      25.386  21.648   1.578  0.00  0.00     0.218 HD
ENDBRANCH   5  18
BRANCH   6  20
HETATM   20  O   UNK N   1      27.784  19.774   3.639  0.00  0.00    -0.358 OA
HETATM   21  H   UNK N   1      28.118  20.185   2.866  0.00  0.00     0.217 HD
ENDBRANCH   6  20
TORSDOF 3
ENDMDL
MODEL 7
REMARK VINA RESULT:      -6.4     13.707     15.705
REMARK  3 active torsions:
REMARK  status: ('A' for Active; 'I' for Inactive)
REMARK    1  A    between atoms: C_5  and  O_6 
REMARK    2  A    between atoms: C_7  and  O_8 
REMARK    3  A    between atoms: C_11  and  C_14 
ROOT
HETATM    1  O   UNK N   1      29.136  20.094  -8.052  0.00  0.00    -0.260 OA
HETATM    2  C   UNK N   1      29.263  20.831  -7.089  0.00  0.00     0.289 A 
HETATM    3  O   UNK N   1      30.153  20.536  -6.148  0.00  0.00    -0.272 OA
HETATM    4  C   UNK N   1      30.336  21.303  -5.075  0.00  0.00     0.126 A 
HETATM    5  C   UNK N   1      31.294  20.938  -4.113  0.00  0.00     0.134 A 
HETATM    6  C   UNK N   1      31.492  21.742  -2.980  0.00  0.00     0.101 A 
HETATM    7  C   UNK N   1      30.742  22.900  -2.807  0.00  0.00     0.040 A 
HETATM    8  C   UNK N   1      28.472  21.977  -6.988  0.00  0.00     0.095 A 
HETATM    9  C   UNK N   1      28.610  22.833  -5.884  0.00  0.00    -0.007 A 
HETATM   10  C   UNK N   1      29.572  22.483  -4.900  0.00  0.00     0.012 A 
HETATM   11  C   UNK N   1      29.793  23.265  -3.757  0.00  0.00     0.018 A 
ENDROOT
BRANCH   9  12
HETATM   12  C   UNK N   1      27.743  24.060  -5.802  0.00  0.00    -0.025 A 
HETATM   13  C   UNK N   1      28.181  25.305  -6.288  0.00  0.00     0.012 A 
HETATM   14  C   UNK N   1      27.373  26.439  -6.210  0.00  0.00     0.001 A 
HETATM   15  C   UNK N   1      26.105  26.349  -5.641  0.00  0.00     0.000 A 
HETATM   16  C   UNK N   1      25.648  25.123  -5.151  0.00  0.00     0.001 A 
HETATM   17  C   UNK N   1      26.460  23.986  -5.231  0.00  0.00     0.012 A 
ENDBRANCH   9  12
BRANCH   5  18
HETATM   18  O   UNK N   1      32.022  19.820  -4.275  0.00  0.00    -0.356 OA
HETATM   19  H   UNK N   1      32.030  19.165  -3.606  0.00  0.00     0.218 HD
ENDBRANCH   5  18
BRANCH   6  20
HETATM   20  O   UNK N   1      32.405  21.401  -2.055  0.00  0.00    -0.358 OA
HETATM   21  H   UNK N   1      33.007  22.043  -1.732  0.00  0.00     0.217 HD
ENDBRANCH   6  20
TORSDOF 3
ENDMDL
MODEL 8
REMARK VINA RESULT:      -6.3     13.632     15.634
REMARK  3 active torsions:
REMARK  status: ('A' for Active; 'I' for Inactive)
REMARK    1  A    between atoms: C_5  and  O_6 
REMARK    2  A    between atoms: C_7  and  O_8 
REMARK    3  A    between atoms: C_11  and  C_14 
ROOT
HETATM    1  O   UNK N   1      30.468  22.984  -1.406  0.00  0.00    -0.260 OA
HETATM    2  C   UNK N   1      30.101  22.869  -2.563  0.00  0.00     0.289 A 
HETATM    3  O   UNK N   1      30.595  21.891  -3.315  0.00  0.00    -0.272 OA
HETATM    4  C   UNK N   1      30.232  21.715  -4.583  0.00  0.00     0.126 A 
HETATM    5  C   UNK N   1      30.790  20.662  -5.329  0.00  0.00     0.134 A 
HETATM    6  C   UNK N   1      30.412  20.472  -6.666  0.00  0.00     0.101 A 
HETATM    7  C   UNK N   1      29.484  21.323  -7.257  0.00  0.00     0.040 A 
HETATM    8  C   UNK N   1      29.165  23.765  -3.083  0.00  0.00     0.095 A 
HETATM    9  C   UNK N   1      28.735  23.640  -4.414  0.00  0.00    -0.007 A 
HETATM   10  C   UNK N   1      29.287  22.583  -5.184  0.00  0.00     0.012 A 
HETATM   11  C   UNK N   1      28.929  22.367  -6.523  0.00  0.00     0.018 A 
ENDROOT
BRANCH   9  12
HETATM   12  C   UNK N   1      27.726  24.621  -4.946  0.00  0.00    -0.025 A 
HETATM   13  C   UNK N   1      26.345  24.357  -4.899  0.00  0.00     0.012 A 
HETATM   14  C   UNK N   1      25.415  25.269  -5.394  0.00  0.00     0.001 A 
HETATM   15  C   UNK N   1      25.850  26.471  -5.949  0.00  0.00     0.000 A 
HETATM   16  C   UNK N   1      27.216  26.756  -6.007  0.00  0.00     0.001 A 
HETATM   17  C   UNK N   1      28.149  25.839  -5.509  0.00  0.00     0.012 A 
ENDBRANCH   9  12
BRANCH   5  18
HETATM   18  O   UNK N   1      31.687  19.836  -4.762  0.00  0.00    -0.356 OA
HETATM   19  H   UNK N   1      31.467  19.372  -3.980  0.00  0.00     0.218 HD
ENDBRANCH   5  18
BRANCH   6  20
HETATM   20  O   UNK N   1      30.940  19.468  -7.386  0.00  0.00    -0.358 OA
HETATM   21  H   UNK N   1      30.399  18.976  -7.972  0.00  0.00     0.217 HD
ENDBRANCH   6  20
TORSDOF 3
ENDMDL
MODEL 9
REMARK VINA RESULT:      -6.2      3.415      6.094
REMARK  3 active torsions:
REMARK  status: ('A' for Active; 'I' for Inactive)
REMARK    1  A    between atoms: C_5  and  O_6 
REMARK    2  A    between atoms: C_7  and  O_8 
REMARK    3  A    between atoms: C_11  and  C_14 
ROOT
HETATM    1  O   UNK N   1      31.506  15.675   4.302  0.00  0.00    -0.260 OA
HETATM    2  C   UNK N   1      31.307  16.141   5.411  0.00  0.00     0.289 A 
HETATM    3  O   UNK N   1      30.198  16.833   5.645  0.00  0.00    -0.272 OA
HETATM    4  C   UNK N   1      29.926  17.365   6.835  0.00  0.00     0.126 A 
HETATM    5  C   UNK N   1      28.735  18.087   7.020  0.00  0.00     0.134 A 
HETATM    6  C   UNK N   1      28.443  18.650   8.272  0.00  0.00     0.101 A 
HETATM    7  C   UNK N   1      29.332  18.494   9.331  0.00  0.00     0.040 A 
HETATM    8  C   UNK N   1      32.249  15.941   6.423  0.00  0.00     0.095 A 
HETATM    9  C   UNK N   1      32.030  16.472   7.703  0.00  0.00    -0.007 A 
HETATM   10  C   UNK N   1      30.832  17.206   7.913  0.00  0.00     0.012 A 
HETATM   11  C   UNK N   1      30.512  17.780   9.152  0.00  0.00     0.018 A 
ENDROOT
BRANCH   9  12
HETATM   12  C   UNK N   1      33.062  16.240   8.773  0.00  0.00    -0.025 A 
HETATM   13  C   UNK N   1      34.105  17.156   9.003  0.00  0.00     0.012 A 
HETATM   14  C   UNK N   1      35.058  16.936   9.995  0.00  0.00     0.001 A 
HETATM   15  C   UNK N   1      34.988  15.788  10.782  0.00  0.00     0.000 A 
HETATM   16  C   UNK N   1      33.962  14.864  10.572  0.00  0.00     0.001 A 
HETATM   17  C   UNK N   1      33.006  15.087   9.576  0.00  0.00     0.012 A 
ENDBRANCH   9  12
BRANCH   5  18
HETATM   18  O   UNK N   1      27.873  18.240   6.000  0.00  0.00    -0.356 OA
HETATM   19  H   UNK N   1      27.307  18.986   5.973  0.00  0.00     0.218 HD
ENDBRANCH   5  18
BRANCH   6  20
HETATM   20  O   UNK N   1      27.307  19.341   8.459  0.00  0.00    -0.358 OA
HETATM   21  H   UNK N   1      26.697  19.439   7.754  0.00  0.00     0.217 HD
ENDBRANCH   6  20
TORSDOF 3
ENDMDL
