REMARK  6 active torsions:
REMARK  status: ('A' for Active; 'I' for Inactive)
REMARK    1  A    between atoms: C_1  and  C_7 
REMARK    2  A    between atoms: C_7  and  C_8 
REMARK    3  A    between atoms: C_8  and  C_9 
REMARK    4  A    between atoms: C_9  and  C_10 
REMARK    5  A    between atoms: C_10  and  C_11 
REMARK    6  A    between atoms: C_11  and  O_13 
ROOT
HETATM    1  C   UNK N   1       1.528  -1.328  -0.000  0.00  0.00     0.012 C 
ENDROOT
BRANCH   1   2
HETATM    2  C   UNK N   1       0.023  -1.637   0.000  0.00  0.00     0.039 C 
BRANCH   2   3
HETATM    3  C   UNK N   1      -1.029  -0.556   0.000  0.00  0.00    -0.058 A 
HETATM    4  C   UNK N   1      -2.367  -0.959   0.000  0.00  0.00     0.007 A 
HETATM    5  C   UNK N   1      -3.394  -0.012   0.000  0.00  0.00     0.001 A 
HETATM    6  C   UNK N   1      -3.088   1.351  -0.000  0.00  0.00     0.000 A 
HETATM    7  C   UNK N   1      -1.755   1.766  -0.000  0.00  0.00     0.001 A 
HETATM    8  C   UNK N   1      -0.732   0.816  -0.000  0.00  0.00     0.007 A 
ENDBRANCH   2   3
ENDBRANCH   1   2
BRANCH   1   9
HETATM    9  C   UNK N   1       1.962   0.130   0.000  0.00  0.00     0.091 C 
BRANCH   9  10
HETATM   10  C   UNK N   1       3.448   0.379   0.000  0.00  0.00     0.222 C 
HETATM   11  O   UNK N   1       3.825   1.539   0.000  0.00  0.00    -0.286 OA
BRANCH  10  12
HETATM   12  C   UNK N   1       4.468  -0.705  -0.000  0.00  0.00     0.213 C 
HETATM   13  O   UNK N   1       5.654  -0.411  -0.000  0.00  0.00    -0.644 OA
BRANCH  12  14
HETATM   14  O   UNK N   1       4.118  -2.004   0.000  0.00  0.00    -0.771 OA
HETATM   15  H   UNK N   1       3.212  -2.245   0.000  0.00  0.00     0.167 HD
ENDBRANCH  12  14
ENDBRANCH  10  12
ENDBRANCH   9  10
ENDBRANCH   1   9
TORSDOF 6
