MODEL 1
REMARK VINA RESULT:      -5.9      0.000      0.000
REMARK  6 active torsions:
REMARK  status: ('A' for Active; 'I' for Inactive)
REMARK    1  A    between atoms: C_1  and  C_7 
REMARK    2  A    between atoms: C_7  and  C_8 
REMARK    3  A    between atoms: C_8  and  C_9 
REMARK    4  A    between atoms: C_9  and  C_10 
REMARK    5  A    between atoms: C_10  and  C_11 
REMARK    6  A    between atoms: C_11  and  O_13 
ROOT
HETATM    1  C   UNK N   1      28.584  23.613  -3.982  0.00  0.00     0.012 C 
ENDROOT
BRANCH   1   2
HETATM    2  C   UNK N   1      27.406  24.319  -3.293  0.00  0.00     0.039 C 
BRANCH   2   3
HETATM    3  C   UNK N   1      26.571  25.369  -3.983  0.00  0.00    -0.058 A 
HETATM    4  C   UNK N   1      26.437  26.606  -3.348  0.00  0.00     0.007 A 
HETATM    5  C   UNK N   1      25.679  27.625  -3.929  0.00  0.00     0.001 A 
HETATM    6  C   UNK N   1      25.045  27.412  -5.156  0.00  0.00     0.000 A 
HETATM    7  C   UNK N   1      25.171  26.179  -5.801  0.00  0.00     0.001 A 
HETATM    8  C   UNK N   1      25.930  25.164  -5.216  0.00  0.00     0.007 A 
ENDBRANCH   2   3
ENDBRANCH   1   2
BRANCH   1   9
HETATM    9  C   UNK N   1      29.989  23.898  -3.472  0.00  0.00     0.091 C 
BRANCH   9  10
HETATM   10  C   UNK N   1      30.558  22.895  -2.503  0.00  0.00     0.222 C 
HETATM   11  O   UNK N   1      30.276  23.028  -1.324  0.00  0.00    -0.286 OA
BRANCH  10  12
HETATM   12  C   UNK N   1      31.437  21.762  -2.906  0.00  0.00     0.213 C 
HETATM   13  O   UNK N   1      31.210  21.171  -3.951  0.00  0.00    -0.644 OA
BRANCH  12  14
HETATM   14  O   UNK N   1      32.477  21.371  -2.148  0.00  0.00    -0.771 OA
HETATM   15  H   UNK N   1      32.846  21.961  -1.519  0.00  0.00     0.167 HD
ENDBRANCH  12  14
ENDBRANCH  10  12
ENDBRANCH   9  10
ENDBRANCH   1   9
TORSDOF 6
ENDMDL
MODEL 2
REMARK VINA RESULT:      -5.6     20.005     23.212
REMARK  6 active torsions:
REMARK  status: ('A' for Active; 'I' for Inactive)
REMARK    1  A    between atoms: C_1  and  C_7 
REMARK    2  A    between atoms: C_7  and  C_8 
REMARK    3  A    between atoms: C_8  and  C_9 
REMARK    4  A    between atoms: C_9  and  C_10 
REMARK    5  A    between atoms: C_10  and  C_11 
REMARK    6  A    between atoms: C_11  and  O_13 
ROOT
HETATM    1  C   UNK N   1      35.339  13.417  14.165  0.00  0.00     0.012 C 
ENDROOT
BRANCH   1   2
HETATM    2  C   UNK N   1      36.132  12.506  15.114  0.00  0.00     0.039 C 
BRANCH   2   3
HETATM    3  C   UNK N   1      35.811  12.386  16.583  0.00  0.00    -0.058 A 
HETATM    4  C   UNK N   1      35.470  13.556  17.266  0.00  0.00     0.007 A 
HETATM    5  C   UNK N   1      35.160  13.519  18.628  0.00  0.00     0.001 A 
HETATM    6  C   UNK N   1      35.191  12.306  19.319  0.00  0.00     0.000 A 
HETATM    7  C   UNK N   1      35.530  11.129  18.648  0.00  0.00     0.001 A 
HETATM    8  C   UNK N   1      35.839  11.171  17.287  0.00  0.00     0.007 A 
ENDBRANCH   2   3
ENDBRANCH   1   2
BRANCH   1   9
HETATM    9  C   UNK N   1      36.112  14.407  13.307  0.00  0.00     0.091 C 
BRANCH   9  10
HETATM   10  C   UNK N   1      35.401  14.918  12.081  0.00  0.00     0.222 C 
HETATM   11  O   UNK N   1      34.333  14.403  11.793  0.00  0.00    -0.286 OA
BRANCH  10  12
HETATM   12  C   UNK N   1      35.927  16.006  11.213  0.00  0.00     0.213 C 
HETATM   13  O   UNK N   1      35.192  16.930  10.898  0.00  0.00    -0.644 OA
BRANCH  12  14
HETATM   14  O   UNK N   1      37.195  16.000  10.763  0.00  0.00    -0.771 OA
HETATM   15  H   UNK N   1      37.527  16.737  10.288  0.00  0.00     0.167 HD
ENDBRANCH  12  14
ENDBRANCH  10  12
ENDBRANCH   9  10
ENDBRANCH   1   9
TORSDOF 6
ENDMDL
MODEL 3
REMARK VINA RESULT:      -5.6     12.765     14.484
REMARK  6 active torsions:
REMARK  status: ('A' for Active; 'I' for Inactive)
REMARK    1  A    between atoms: C_1  and  C_7 
REMARK    2  A    between atoms: C_7  and  C_8 
REMARK    3  A    between atoms: C_8  and  C_9 
REMARK    4  A    between atoms: C_9  and  C_10 
REMARK    5  A    between atoms: C_10  and  C_11 
REMARK    6  A    between atoms: C_11  and  O_13 
ROOT
HETATM    1  C   UNK N   1      32.486  15.667   8.891  0.00  0.00     0.012 C 
ENDROOT
BRANCH   1   2
HETATM    2  C   UNK N   1      31.579  16.045   7.710  0.00  0.00     0.039 C 
BRANCH   2   3
HETATM    3  C   UNK N   1      30.421  17.002   7.848  0.00  0.00    -0.058 A 
HETATM    4  C   UNK N   1      30.231  17.608   9.093  0.00  0.00     0.007 A 
HETATM    5  C   UNK N   1      29.178  18.504   9.293  0.00  0.00     0.001 A 
HETATM    6  C   UNK N   1      28.305  18.803   8.244  0.00  0.00     0.000 A 
HETATM    7  C   UNK N   1      28.485  18.204   6.996  0.00  0.00     0.001 A 
HETATM    8  C   UNK N   1      29.538  17.308   6.801  0.00  0.00     0.007 A 
ENDBRANCH   2   3
ENDBRANCH   1   2
BRANCH   1   9
HETATM    9  C   UNK N   1      33.991  15.805   8.713  0.00  0.00     0.091 C 
BRANCH   9  10
HETATM   10  C   UNK N   1      34.588  17.125   9.127  0.00  0.00     0.222 C 
HETATM   11  O   UNK N   1      34.941  17.245  10.288  0.00  0.00    -0.286 OA
BRANCH  10  12
HETATM   12  C   UNK N   1      34.768  18.277   8.202  0.00  0.00     0.213 C 
HETATM   13  O   UNK N   1      34.360  18.192   7.053  0.00  0.00    -0.644 OA
BRANCH  12  14
HETATM   14  O   UNK N   1      35.370  19.414   8.598  0.00  0.00    -0.771 OA
HETATM   15  H   UNK N   1      36.119  19.376   9.160  0.00  0.00     0.167 HD
ENDBRANCH  12  14
ENDBRANCH  10  12
ENDBRANCH   9  10
ENDBRANCH   1   9
TORSDOF 6
ENDMDL
MODEL 4
REMARK VINA RESULT:      -5.4      4.610      5.504
REMARK  6 active torsions:
REMARK  status: ('A' for Active; 'I' for Inactive)
REMARK    1  A    between atoms: C_1  and  C_7 
REMARK    2  A    between atoms: C_7  and  C_8 
REMARK    3  A    between atoms: C_8  and  C_9 
REMARK    4  A    between atoms: C_9  and  C_10 
REMARK    5  A    between atoms: C_10  and  C_11 
REMARK    6  A    between atoms: C_11  and  O_13 
ROOT
HETATM    1  C   UNK N   1      27.030  23.292  -6.193  0.00  0.00     0.012 C 
ENDROOT
BRANCH   1   2
HETATM    2  C   UNK N   1      26.039  23.816  -5.142  0.00  0.00     0.039 C 
BRANCH   2   3
HETATM    3  C   UNK N   1      25.900  25.281  -4.814  0.00  0.00    -0.058 A 
HETATM    4  C   UNK N   1      25.155  26.070  -5.695  0.00  0.00     0.007 A 
HETATM    5  C   UNK N   1      24.984  27.436  -5.454  0.00  0.00     0.001 A 
HETATM    6  C   UNK N   1      25.561  28.024  -4.326  0.00  0.00     0.000 A 
HETATM    7  C   UNK N   1      26.307  27.246  -3.438  0.00  0.00     0.001 A 
HETATM    8  C   UNK N   1      26.475  25.882  -3.683  0.00  0.00     0.007 A 
ENDBRANCH   2   3
ENDBRANCH   1   2
BRANCH   1   9
HETATM    9  C   UNK N   1      26.646  23.402  -7.660  0.00  0.00     0.091 C 
BRANCH   9  10
HETATM   10  C   UNK N   1      25.313  22.811  -8.042  0.00  0.00     0.222 C 
HETATM   11  O   UNK N   1      24.582  23.481  -8.752  0.00  0.00    -0.286 OA
BRANCH  10  12
HETATM   12  C   UNK N   1      24.848  21.467  -7.603  0.00  0.00     0.213 C 
HETATM   13  O   UNK N   1      25.410  20.470  -8.031  0.00  0.00    -0.644 OA
BRANCH  12  14
HETATM   14  O   UNK N   1      23.823  21.320  -6.744  0.00  0.00    -0.771 OA
HETATM   15  H   UNK N   1      23.809  20.594  -6.151  0.00  0.00     0.167 HD
ENDBRANCH  12  14
ENDBRANCH  10  12
ENDBRANCH   9  10
ENDBRANCH   1   9
TORSDOF 6
ENDMDL
MODEL 5
REMARK VINA RESULT:      -5.4     10.604     12.520
REMARK  6 active torsions:
REMARK  status: ('A' for Active; 'I' for Inactive)
REMARK    1  A    between atoms: C_1  and  C_7 
REMARK    2  A    between atoms: C_7  and  C_8 
REMARK    3  A    between atoms: C_8  and  C_9 
REMARK    4  A    between atoms: C_9  and  C_10 
REMARK    5  A    between atoms: C_10  and  C_11 
REMARK    6  A    between atoms: C_11  and  O_13 
ROOT
HETATM    1  C   UNK N   1      31.059  17.245   6.905  0.00  0.00     0.012 C 
ENDROOT
BRANCH   1   2
HETATM    2  C   UNK N   1      29.569  17.462   7.208  0.00  0.00     0.039 C 
BRANCH   2   3
HETATM    3  C   UNK N   1      28.733  18.488   6.484  0.00  0.00    -0.058 A 
HETATM    4  C   UNK N   1      28.070  19.443   7.259  0.00  0.00     0.007 A 
HETATM    5  C   UNK N   1      27.278  20.423   6.656  0.00  0.00     0.001 A 
HETATM    6  C   UNK N   1      27.144  20.454   5.265  0.00  0.00     0.000 A 
HETATM    7  C   UNK N   1      27.801  19.505   4.480  0.00  0.00     0.001 A 
HETATM    8  C   UNK N   1      28.591  18.528   5.088  0.00  0.00     0.007 A 
ENDBRANCH   2   3
ENDBRANCH   1   2
BRANCH   1   9
HETATM    9  C   UNK N   1      32.061  17.470   8.027  0.00  0.00     0.091 C 
BRANCH   9  10
HETATM   10  C   UNK N   1      33.454  17.856   7.604  0.00  0.00     0.222 C 
HETATM   11  O   UNK N   1      33.689  17.897   6.408  0.00  0.00    -0.286 OA
BRANCH  10  12
HETATM   12  C   UNK N   1      34.547  18.184   8.559  0.00  0.00     0.213 C 
HETATM   13  O   UNK N   1      34.765  17.437   9.501  0.00  0.00    -0.644 OA
BRANCH  12  14
HETATM   14  O   UNK N   1      35.305  19.287   8.413  0.00  0.00    -0.771 OA
HETATM   15  H   UNK N   1      34.998  20.112   8.736  0.00  0.00     0.167 HD
ENDBRANCH  12  14
ENDBRANCH  10  12
ENDBRANCH   9  10
ENDBRANCH   1   9
TORSDOF 6
ENDMDL
MODEL 6
REMARK VINA RESULT:      -5.4     17.051     18.763
REMARK  6 active torsions:
REMARK  status: ('A' for Active; 'I' for Inactive)
REMARK    1  A    between atoms: C_1  and  C_7 
REMARK    2  A    between atoms: C_7  and  C_8 
REMARK    3  A    between atoms: C_8  and  C_9 
REMARK    4  A    between atoms: C_9  and  C_10 
REMARK    5  A    between atoms: C_10  and  C_11 
REMARK    6  A    between atoms: C_11  and  O_13 
ROOT
HETATM    1  C   UNK N   1      20.820  14.440   8.031  0.00  0.00     0.012 C 
ENDROOT
BRANCH   1   2
HETATM    2  C   UNK N   1      22.144  13.661   8.081  0.00  0.00     0.039 C 
BRANCH   2   3
HETATM    3  C   UNK N   1      22.680  13.050   9.351  0.00  0.00    -0.058 A 
HETATM    4  C   UNK N   1      24.064  12.888   9.454  0.00  0.00     0.007 A 
HETATM    5  C   UNK N   1      24.631  12.330  10.602  0.00  0.00     0.001 A 
HETATM    6  C   UNK N   1      23.813  11.926  11.660  0.00  0.00     0.000 A 
HETATM    7  C   UNK N   1      22.428  12.083  11.569  0.00  0.00     0.001 A 
HETATM    8  C   UNK N   1      21.867  12.642  10.420  0.00  0.00     0.007 A 
ENDBRANCH   2   3
ENDBRANCH   1   2
BRANCH   1   9
HETATM    9  C   UNK N   1      20.727  15.747   8.803  0.00  0.00     0.091 C 
BRANCH   9  10
HETATM   10  C   UNK N   1      19.592  16.662   8.421  0.00  0.00     0.222 C 
HETATM   11  O   UNK N   1      18.789  16.252   7.600  0.00  0.00    -0.286 OA
BRANCH  10  12
HETATM   12  C   UNK N   1      19.403  18.025   8.989  0.00  0.00     0.213 C 
HETATM   13  O   UNK N   1      18.564  18.199   9.860  0.00  0.00    -0.644 OA
BRANCH  12  14
HETATM   14  O   UNK N   1      20.132  19.074   8.566  0.00  0.00    -0.771 OA
HETATM   15  H   UNK N   1      19.878  19.540   7.793  0.00  0.00     0.167 HD
ENDBRANCH  12  14
ENDBRANCH  10  12
ENDBRANCH   9  10
ENDBRANCH   1   9
TORSDOF 6
ENDMDL
MODEL 7
REMARK VINA RESULT:      -5.2     11.673     13.596
REMARK  6 active torsions:
REMARK  status: ('A' for Active; 'I' for Inactive)
REMARK    1  A    between atoms: C_1  and  C_7 
REMARK    2  A    between atoms: C_7  and  C_8 
REMARK    3  A    between atoms: C_8  and  C_9 
REMARK    4  A    between atoms: C_9  and  C_10 
REMARK    5  A    between atoms: C_10  and  C_11 
REMARK    6  A    between atoms: C_11  and  O_13 
ROOT
HETATM    1  C   UNK N   1      31.639  17.345   8.187  0.00  0.00     0.012 C 
ENDROOT
BRANCH   1   2
HETATM    2  C   UNK N   1      30.665  16.710   7.182  0.00  0.00     0.039 C 
BRANCH   2   3
HETATM    3  C   UNK N   1      30.939  16.669   5.699  0.00  0.00    -0.058 A 
HETATM    4  C   UNK N   1      32.022  17.413   5.223  0.00  0.00     0.007 A 
HETATM    5  C   UNK N   1      32.334  17.421   3.862  0.00  0.00     0.001 A 
HETATM    6  C   UNK N   1      31.561  16.683   2.963  0.00  0.00     0.000 A 
HETATM    7  C   UNK N   1      30.476  15.936   3.426  0.00  0.00     0.001 A 
HETATM    8  C   UNK N   1      30.168  15.930   4.788  0.00  0.00     0.007 A 
ENDBRANCH   2   3
ENDBRANCH   1   2
BRANCH   1   9
HETATM    9  C   UNK N   1      32.827  16.520   8.656  0.00  0.00     0.091 C 
BRANCH   9  10
HETATM   10  C   UNK N   1      34.071  17.291   9.012  0.00  0.00     0.222 C 
HETATM   11  O   UNK N   1      34.587  17.063  10.093  0.00  0.00    -0.286 OA
BRANCH  10  12
HETATM   12  C   UNK N   1      34.697  18.307   8.121  0.00  0.00     0.213 C 
HETATM   13  O   UNK N   1      34.608  18.177   6.910  0.00  0.00    -0.644 OA
BRANCH  12  14
HETATM   14  O   UNK N   1      35.360  19.368   8.616  0.00  0.00    -0.771 OA
HETATM   15  H   UNK N   1      34.911  19.990   9.156  0.00  0.00     0.167 HD
ENDBRANCH  12  14
ENDBRANCH  10  12
ENDBRANCH   9  10
ENDBRANCH   1   9
TORSDOF 6
ENDMDL
MODEL 8
REMARK VINA RESULT:      -5.1      9.702     11.446
REMARK  6 active torsions:
REMARK  status: ('A' for Active; 'I' for Inactive)
REMARK    1  A    between atoms: C_1  and  C_7 
REMARK    2  A    between atoms: C_7  and  C_8 
REMARK    3  A    between atoms: C_8  and  C_9 
REMARK    4  A    between atoms: C_9  and  C_10 
REMARK    5  A    between atoms: C_10  and  C_11 
REMARK    6  A    between atoms: C_11  and  O_13 
ROOT
HETATM    1  C   UNK N   1      22.677  18.686   3.809  0.00  0.00     0.012 C 
ENDROOT
BRANCH   1   2
HETATM    2  C   UNK N   1      23.851  19.635   3.527  0.00  0.00     0.039 C 
BRANCH   2   3
HETATM    3  C   UNK N   1      25.288  19.245   3.771  0.00  0.00    -0.058 A 
HETATM    4  C   UNK N   1      26.193  20.270   4.063  0.00  0.00     0.007 A 
HETATM    5  C   UNK N   1      27.539  19.982   4.301  0.00  0.00     0.001 A 
HETATM    6  C   UNK N   1      27.991  18.662   4.248  0.00  0.00     0.000 A 
HETATM    7  C   UNK N   1      27.097  17.630   3.958  0.00  0.00     0.001 A 
HETATM    8  C   UNK N   1      25.753  17.922   3.721  0.00  0.00     0.007 A 
ENDBRANCH   2   3
ENDBRANCH   1   2
BRANCH   1   9
HETATM    9  C   UNK N   1      21.263  19.233   3.677  0.00  0.00     0.091 C 
BRANCH   9  10
HETATM   10  C   UNK N   1      20.674  19.219   2.291  0.00  0.00     0.222 C 
HETATM   11  O   UNK N   1      19.999  18.253   1.975  0.00  0.00    -0.286 OA
BRANCH  10  12
HETATM   12  C   UNK N   1      20.871  20.310   1.297  0.00  0.00     0.213 C 
HETATM   13  O   UNK N   1      21.265  21.402   1.678  0.00  0.00    -0.644 OA
BRANCH  12  14
HETATM   14  O   UNK N   1      20.627  20.124  -0.013  0.00  0.00    -0.771 OA
HETATM   15  H   UNK N   1      20.681  20.848  -0.606  0.00  0.00     0.167 HD
ENDBRANCH  12  14
ENDBRANCH  10  12
ENDBRANCH   9  10
ENDBRANCH   1   9
TORSDOF 6
ENDMDL
MODEL 9
REMARK VINA RESULT:      -5.0     23.142     26.181
REMARK  6 active torsions:
REMARK  status: ('A' for Active; 'I' for Inactive)
REMARK    1  A    between atoms: C_1  and  C_7 
REMARK    2  A    between atoms: C_7  and  C_8 
REMARK    3  A    between atoms: C_8  and  C_9 
REMARK    4  A    between atoms: C_9  and  C_10 
REMARK    5  A    between atoms: C_10  and  C_11 
REMARK    6  A    between atoms: C_11  and  O_13 
ROOT
HETATM    1  C   UNK N   1      35.260  12.709  17.534  0.00  0.00     0.012 C 
ENDROOT
BRANCH   1   2
HETATM    2  C   UNK N   1      35.616  11.246  17.837  0.00  0.00     0.039 C 
BRANCH   2   3
HETATM    3  C   UNK N   1      34.885  10.429  18.874  0.00  0.00    -0.058 A 
HETATM    4  C   UNK N   1      34.220   9.280  18.438  0.00  0.00     0.007 A 
HETATM    5  C   UNK N   1      33.522   8.477  19.342  0.00  0.00     0.001 A 
HETATM    6  C   UNK N   1      33.485   8.818  20.696  0.00  0.00     0.000 A 
HETATM    7  C   UNK N   1      34.146   9.964  21.145  0.00  0.00     0.001 A 
HETATM    8  C   UNK N   1      34.842  10.764  20.237  0.00  0.00     0.007 A 
ENDBRANCH   2   3
ENDBRANCH   1   2
BRANCH   1   9
HETATM    9  C   UNK N   1      34.522  13.016  16.240  0.00  0.00     0.091 C 
BRANCH   9  10
HETATM   10  C   UNK N   1      35.381  13.215  15.018  0.00  0.00     0.222 C 
HETATM   11  O   UNK N   1      34.813  13.374  13.951  0.00  0.00    -0.286 OA
BRANCH  10  12
HETATM   12  C   UNK N   1      36.869  13.226  15.047  0.00  0.00     0.213 C 
HETATM   13  O   UNK N   1      37.481  12.213  14.744  0.00  0.00    -0.644 OA
BRANCH  12  14
HETATM   14  O   UNK N   1      37.560  14.326  15.398  0.00  0.00    -0.771 OA
HETATM   15  H   UNK N   1      38.442  14.440  15.100  0.00  0.00     0.167 HD
ENDBRANCH  12  14
ENDBRANCH  10  12
ENDBRANCH   9  10
ENDBRANCH   1   9
TORSDOF 6
ENDMDL
