MODEL 1
REMARK VINA RESULT:      -7.3      0.000      0.000
REMARK  6 active torsions:
REMARK  status: ('A' for Active; 'I' for Inactive)
REMARK    1  A    between atoms: C_6  and  C_7 
REMARK       I    between atoms: C_7  and  N_9 
REMARK       I    between atoms: N_15  and  C_16 
REMARK    2  A    between atoms: C_16  and  C_18 
REMARK    3  A    between atoms: C_18  and  C_19 
REMARK    4  A    between atoms: C_19  and  N_20 
REMARK    5  A    between atoms: C_19  and  C_21 
REMARK    6  A    between atoms: C_21  and  C_22 
ROOT
HETATM    1  C   UNK N   1      30.487  24.161  -3.618  0.00  0.00     0.272 C 
HETATM    2  O   UNK N   1      31.189  23.926  -2.642  0.00  0.00    -0.266 OA
HETATM    3  N   UNK N   1      29.769  23.135  -4.187  0.00  0.00    -0.252 N 
HETATM    4  C   UNK N   1      30.011  21.781  -3.723  0.00  0.00     0.153 C 
HETATM    5  C   UNK N   1      30.963  21.063  -4.673  0.00  0.00     0.022 C 
HETATM    6  C   UNK N   1      30.292  20.683  -5.986  0.00  0.00     0.003 C 
HETATM    7  C   UNK N   1      29.848  21.912  -6.762  0.00  0.00     0.022 C 
HETATM    8  C   UNK N   1      28.534  22.414  -6.190  0.00  0.00     0.152 C 
HETATM    9  N   UNK N   1      28.724  23.337  -5.080  0.00  0.00    -0.256 N 
HETATM   10  C   UNK N   1      27.656  24.123  -4.710  0.00  0.00     0.240 C 
HETATM   11  O   UNK N   1      27.725  24.853  -3.733  0.00  0.00    -0.272 OA
ENDROOT
BRANCH  10  12
HETATM   12  C   UNK N   1      26.310  23.925  -5.365  0.00  0.00     0.129 C 
BRANCH  12  13
HETATM   13  C   UNK N   1      26.138  25.029  -6.429  0.00  0.00     0.087 C 
BRANCH  13  14
HETATM   14  N   UNK N   1      25.469  24.488  -7.601  0.00  0.00    -0.425 N 
HETATM   15  H   UNK N   1      24.502  24.512  -7.926  0.00  0.00     0.150 HD
HETATM   16  H   UNK N   1      26.095  23.980  -8.226  0.00  0.00     0.150 HD
ENDBRANCH  13  14
BRANCH  13  17
HETATM   17  C   UNK N   1      25.343  26.211  -5.874  0.00  0.00     0.067 C 
BRANCH  17  18
HETATM   18  C   UNK N   1      26.186  27.451  -5.700  0.00  0.00    -0.015 A 
HETATM   19  C   UNK N   1      27.079  27.840  -6.708  0.00  0.00     0.055 A 
HETATM   20  C   UNK N   1      27.842  29.008  -6.563  0.00  0.00     0.155 A 
HETATM   21  F   UNK N   1      28.700  29.382  -7.543  0.00  0.00    -0.203 F 
HETATM   22  C   UNK N   1      27.712  29.791  -5.410  0.00  0.00     0.157 A 
HETATM   23  F   UNK N   1      28.440  30.926  -5.267  0.00  0.00    -0.203 F 
HETATM   24  C   UNK N   1      26.824  29.410  -4.405  0.00  0.00     0.088 A 
HETATM   25  C   UNK N   1      26.062  28.250  -4.546  0.00  0.00     0.125 A 
HETATM   26  F   UNK N   1      25.191  27.917  -3.564  0.00  0.00    -0.205 F 
ENDBRANCH  17  18
ENDBRANCH  13  17
ENDBRANCH  12  13
ENDBRANCH  10  12
BRANCH   1  27
HETATM   27  C   UNK N   1      30.548  25.530  -4.198  0.00  0.00     0.033 A 
HETATM   28  C   UNK N   1      30.790  25.733  -5.566  0.00  0.00     0.017 A 
HETATM   29  C   UNK N   1      30.996  27.022  -6.066  0.00  0.00     0.001 A 
HETATM   30  C   UNK N   1      30.962  28.121  -5.204  0.00  0.00     0.000 A 
HETATM   31  C   UNK N   1      30.724  27.932  -3.842  0.00  0.00     0.001 A 
HETATM   32  C   UNK N   1      30.536  26.642  -3.338  0.00  0.00     0.017 A 
ENDBRANCH   1  27
TORSDOF 6
ENDMDL
MODEL 2
REMARK VINA RESULT:      -7.1     15.584     18.059
REMARK  6 active torsions:
REMARK  status: ('A' for Active; 'I' for Inactive)
REMARK    1  A    between atoms: C_6  and  C_7 
REMARK       I    between atoms: C_7  and  N_9 
REMARK       I    between atoms: N_15  and  C_16 
REMARK    2  A    between atoms: C_16  and  C_18 
REMARK    3  A    between atoms: C_18  and  C_19 
REMARK    4  A    between atoms: C_19  and  N_20 
REMARK    5  A    between atoms: C_19  and  C_21 
REMARK    6  A    between atoms: C_21  and  C_22 
ROOT
HETATM    1  C   UNK N   1      23.115  17.213   4.249  0.00  0.00     0.272 C 
HETATM    2  O   UNK N   1      24.169  17.827   4.140  0.00  0.00    -0.266 OA
HETATM    3  N   UNK N   1      23.139  15.923   4.725  0.00  0.00    -0.252 N 
HETATM    4  C   UNK N   1      24.426  15.278   4.908  0.00  0.00     0.153 C 
HETATM    5  C   UNK N   1      24.739  14.383   3.715  0.00  0.00     0.022 C 
HETATM    6  C   UNK N   1      23.902  13.111   3.710  0.00  0.00     0.003 C 
HETATM    7  C   UNK N   1      22.421  13.417   3.566  0.00  0.00     0.022 C 
HETATM    8  C   UNK N   1      21.864  13.827   4.919  0.00  0.00     0.152 C 
HETATM    9  N   UNK N   1      22.008  15.252   5.175  0.00  0.00    -0.256 N 
HETATM   10  C   UNK N   1      21.246  15.803   6.180  0.00  0.00     0.240 C 
HETATM   11  O   UNK N   1      21.384  16.974   6.501  0.00  0.00    -0.272 OA
ENDROOT
BRANCH  10  12
HETATM   12  C   UNK N   1      20.395  14.915   7.056  0.00  0.00     0.129 C 
BRANCH  12  13
HETATM   13  C   UNK N   1      20.729  15.243   8.526  0.00  0.00     0.087 C 
BRANCH  13  14
HETATM   14  N   UNK N   1      20.007  16.434   8.943  0.00  0.00    -0.425 N 
HETATM   15  H   UNK N   1      19.162  16.579   9.496  0.00  0.00     0.150 HD
HETATM   16  H   UNK N   1      20.432  17.301   8.616  0.00  0.00     0.150 HD
ENDBRANCH  13  14
BRANCH  13  17
HETATM   17  C   UNK N   1      20.382  14.073   9.445  0.00  0.00     0.067 C 
BRANCH  17  18
HETATM   18  C   UNK N   1      21.604  13.377   9.991  0.00  0.00    -0.015 A 
HETATM   19  C   UNK N   1      22.860  13.607   9.413  0.00  0.00     0.055 A 
HETATM   20  C   UNK N   1      24.003  12.986   9.937  0.00  0.00     0.155 A 
HETATM   21  F   UNK N   1      25.216  13.216   9.377  0.00  0.00    -0.203 F 
HETATM   22  C   UNK N   1      23.893  12.134  11.042  0.00  0.00     0.157 A 
HETATM   23  F   UNK N   1      24.996  11.537  11.560  0.00  0.00    -0.203 F 
HETATM   24  C   UNK N   1      22.647  11.904  11.623  0.00  0.00     0.088 A 
HETATM   25  C   UNK N   1      21.508  12.521  11.106  0.00  0.00     0.125 A 
HETATM   26  F   UNK N   1      20.315  12.296  11.705  0.00  0.00    -0.205 F 
ENDBRANCH  17  18
ENDBRANCH  13  17
ENDBRANCH  12  13
ENDBRANCH  10  12
BRANCH   1  27
HETATM   27  C   UNK N   1      21.878  17.871   3.744  0.00  0.00     0.033 A 
HETATM   28  C   UNK N   1      21.032  17.228   2.827  0.00  0.00     0.017 A 
HETATM   29  C   UNK N   1      19.961  17.915   2.248  0.00  0.00     0.001 A 
HETATM   30  C   UNK N   1      19.725  19.252   2.581  0.00  0.00     0.000 A 
HETATM   31  C   UNK N   1      20.560  19.902   3.491  0.00  0.00     0.001 A 
HETATM   32  C   UNK N   1      21.642  19.220   4.056  0.00  0.00     0.017 A 
ENDBRANCH   1  27
TORSDOF 6
ENDMDL
MODEL 3
REMARK VINA RESULT:      -6.9     17.381     20.341
REMARK  6 active torsions:
REMARK  status: ('A' for Active; 'I' for Inactive)
REMARK    1  A    between atoms: C_6  and  C_7 
REMARK       I    between atoms: C_7  and  N_9 
REMARK       I    between atoms: N_15  and  C_16 
REMARK    2  A    between atoms: C_16  and  C_18 
REMARK    3  A    between atoms: C_18  and  C_19 
REMARK    4  A    between atoms: C_19  and  N_20 
REMARK    5  A    between atoms: C_19  and  C_21 
REMARK    6  A    between atoms: C_21  and  C_22 
ROOT
HETATM    1  C   UNK N   1      35.493  11.852  12.187  0.00  0.00     0.272 C 
HETATM    2  O   UNK N   1      35.081  10.700  12.131  0.00  0.00    -0.266 OA
HETATM    3  N   UNK N   1      35.950  12.455  11.039  0.00  0.00    -0.252 N 
HETATM    4  C   UNK N   1      36.097  11.643   9.844  0.00  0.00     0.153 C 
HETATM    5  C   UNK N   1      37.549  11.210   9.678  0.00  0.00     0.022 C 
HETATM    6  C   UNK N   1      38.447  12.354   9.227  0.00  0.00     0.003 C 
HETATM    7  C   UNK N   1      38.505  13.461  10.266  0.00  0.00     0.022 C 
HETATM    8  C   UNK N   1      37.265  14.330  10.138  0.00  0.00     0.152 C 
HETATM    9  N   UNK N   1      36.145  13.825  10.919  0.00  0.00    -0.256 N 
HETATM   10  C   UNK N   1      35.101  14.685  11.171  0.00  0.00     0.240 C 
HETATM   11  O   UNK N   1      34.095  14.297  11.746  0.00  0.00    -0.272 OA
ENDROOT
BRANCH  10  12
HETATM   12  C   UNK N   1      35.083  16.057  10.541  0.00  0.00     0.129 C 
BRANCH  12  13
HETATM   13  C   UNK N   1      34.199  15.983   9.278  0.00  0.00     0.087 C 
BRANCH  13  14
HETATM   14  N   UNK N   1      32.797  16.076   9.649  0.00  0.00    -0.425 N 
HETATM   15  H   UNK N   1      31.930  16.040   9.113  0.00  0.00     0.150 HD
HETATM   16  H   UNK N   1      32.651  16.204  10.651  0.00  0.00     0.150 HD
ENDBRANCH  13  14
BRANCH  13  17
HETATM   17  C   UNK N   1      34.554  17.095   8.291  0.00  0.00     0.067 C 
BRANCH  17  18
HETATM   18  C   UNK N   1      34.183  16.754   6.869  0.00  0.00    -0.015 A 
HETATM   19  C   UNK N   1      33.298  17.575   6.157  0.00  0.00     0.055 A 
HETATM   20  C   UNK N   1      32.975  17.276   4.825  0.00  0.00     0.155 A 
HETATM   21  F   UNK N   1      32.122  18.077   4.140  0.00  0.00    -0.203 F 
HETATM   22  C   UNK N   1      33.538  16.157   4.201  0.00  0.00     0.157 A 
HETATM   23  F   UNK N   1      33.237  15.868   2.911  0.00  0.00    -0.203 F 
HETATM   24  C   UNK N   1      34.421  15.338   4.904  0.00  0.00     0.088 A 
HETATM   25  C   UNK N   1      34.746  15.632   6.229  0.00  0.00     0.125 A 
HETATM   26  F   UNK N   1      35.623  14.831   6.878  0.00  0.00    -0.205 F 
ENDBRANCH  17  18
ENDBRANCH  13  17
ENDBRANCH  12  13
ENDBRANCH  10  12
BRANCH   1  27
HETATM   27  C   UNK N   1      35.578  12.489  13.530  0.00  0.00     0.033 A 
HETATM   28  C   UNK N   1      36.748  13.137  13.956  0.00  0.00     0.017 A 
HETATM   29  C   UNK N   1      36.866  13.596  15.272  0.00  0.00     0.001 A 
HETATM   30  C   UNK N   1      35.814  13.411  16.174  0.00  0.00     0.000 A 
HETATM   31  C   UNK N   1      34.647  12.767  15.761  0.00  0.00     0.001 A 
HETATM   32  C   UNK N   1      34.536  12.293  14.451  0.00  0.00     0.017 A 
ENDBRANCH   1  27
TORSDOF 6
ENDMDL
MODEL 4
REMARK VINA RESULT:      -6.8     13.859     16.534
REMARK  6 active torsions:
REMARK  status: ('A' for Active; 'I' for Inactive)
REMARK    1  A    between atoms: C_6  and  C_7 
REMARK       I    between atoms: C_7  and  N_9 
REMARK       I    between atoms: N_15  and  C_16 
REMARK    2  A    between atoms: C_16  and  C_18 
REMARK    3  A    between atoms: C_18  and  C_19 
REMARK    4  A    between atoms: C_19  and  N_20 
REMARK    5  A    between atoms: C_19  and  C_21 
REMARK    6  A    between atoms: C_21  and  C_22 
ROOT
HETATM    1  C   UNK N   1      29.199  17.346   6.070  0.00  0.00     0.272 C 
HETATM    2  O   UNK N   1      30.220  17.515   6.725  0.00  0.00    -0.266 OA
HETATM    3  N   UNK N   1      28.970  16.118   5.495  0.00  0.00    -0.252 N 
HETATM    4  C   UNK N   1      30.030  15.128   5.535  0.00  0.00     0.153 C 
HETATM    5  C   UNK N   1      30.791  15.120   4.214  0.00  0.00     0.022 C 
HETATM    6  C   UNK N   1      29.991  14.478   3.088  0.00  0.00     0.003 C 
HETATM    7  C   UNK N   1      28.726  15.263   2.785  0.00  0.00     0.022 C 
HETATM    8  C   UNK N   1      27.659  14.902   3.804  0.00  0.00     0.152 C 
HETATM    9  N   UNK N   1      27.732  15.722   5.005  0.00  0.00    -0.256 N 
HETATM   10  C   UNK N   1      26.633  15.743   5.834  0.00  0.00     0.240 C 
HETATM   11  O   UNK N   1      26.664  16.342   6.898  0.00  0.00    -0.272 OA
ENDROOT
BRANCH  10  12
HETATM   12  C   UNK N   1      25.458  14.838   5.553  0.00  0.00     0.129 C 
BRANCH  12  13
HETATM   13  C   UNK N   1      24.303  15.265   6.483  0.00  0.00     0.087 C 
BRANCH  13  14
HETATM   14  N   UNK N   1      23.717  16.507   6.006  0.00  0.00    -0.425 N 
HETATM   15  H   UNK N   1      23.908  17.105   5.202  0.00  0.00     0.150 HD
HETATM   16  H   UNK N   1      22.960  16.852   6.598  0.00  0.00     0.150 HD
ENDBRANCH  13  14
BRANCH  13  17
HETATM   17  C   UNK N   1      23.230  14.179   6.564  0.00  0.00     0.067 C 
BRANCH  17  18
HETATM   18  C   UNK N   1      22.992  13.699   7.975  0.00  0.00    -0.015 A 
HETATM   19  C   UNK N   1      21.748  13.906   8.587  0.00  0.00     0.055 A 
HETATM   20  C   UNK N   1      21.514  13.434   9.887  0.00  0.00     0.155 A 
HETATM   21  F   UNK N   1      20.308  13.632  10.472  0.00  0.00    -0.203 F 
HETATM   22  C   UNK N   1      22.523  12.752  10.577  0.00  0.00     0.157 A 
HETATM   23  F   UNK N   1      22.300  12.285  11.831  0.00  0.00    -0.203 F 
HETATM   24  C   UNK N   1      23.761  12.541   9.972  0.00  0.00     0.088 A 
HETATM   25  C   UNK N   1      23.998  13.007   8.678  0.00  0.00     0.125 A 
HETATM   26  F   UNK N   1      25.202  12.768   8.109  0.00  0.00    -0.205 F 
ENDBRANCH  17  18
ENDBRANCH  13  17
ENDBRANCH  12  13
ENDBRANCH  10  12
BRANCH   1  27
HETATM   27  C   UNK N   1      28.323  18.528   5.841  0.00  0.00     0.033 A 
HETATM   28  C   UNK N   1      27.993  18.952   4.544  0.00  0.00     0.017 A 
HETATM   29  C   UNK N   1      27.298  20.148   4.344  0.00  0.00     0.001 A 
HETATM   30  C   UNK N   1      26.925  20.932   5.439  0.00  0.00     0.000 A 
HETATM   31  C   UNK N   1      27.248  20.521   6.734  0.00  0.00     0.001 A 
HETATM   32  C   UNK N   1      27.959  19.334   6.933  0.00  0.00     0.017 A 
ENDBRANCH   1  27
TORSDOF 6
ENDMDL
MODEL 5
REMARK VINA RESULT:      -6.8     15.056     17.901
REMARK  6 active torsions:
REMARK  status: ('A' for Active; 'I' for Inactive)
REMARK    1  A    between atoms: C_6  and  C_7 
REMARK       I    between atoms: C_7  and  N_9 
REMARK       I    between atoms: N_15  and  C_16 
REMARK    2  A    between atoms: C_16  and  C_18 
REMARK    3  A    between atoms: C_18  and  C_19 
REMARK    4  A    between atoms: C_19  and  N_20 
REMARK    5  A    between atoms: C_19  and  C_21 
REMARK    6  A    between atoms: C_21  and  C_22 
ROOT
HETATM    1  C   UNK N   1      20.231  16.316   1.409  0.00  0.00     0.272 C 
HETATM    2  O   UNK N   1      19.684  16.636   0.361  0.00  0.00    -0.266 OA
HETATM    3  N   UNK N   1      20.144  17.158   2.493  0.00  0.00    -0.252 N 
HETATM    4  C   UNK N   1      19.564  18.474   2.300  0.00  0.00     0.153 C 
HETATM    5  C   UNK N   1      20.665  19.514   2.128  0.00  0.00     0.022 C 
HETATM    6  C   UNK N   1      21.379  19.824   3.437  0.00  0.00     0.003 C 
HETATM    7  C   UNK N   1      22.101  18.604   3.983  0.00  0.00     0.022 C 
HETATM    8  C   UNK N   1      21.099  17.710   4.693  0.00  0.00     0.152 C 
HETATM    9  N   UNK N   1      20.451  16.769   3.791  0.00  0.00    -0.256 N 
HETATM   10  C   UNK N   1      19.803  15.689   4.348  0.00  0.00     0.240 C 
HETATM   11  O   UNK N   1      19.168  14.913   3.651  0.00  0.00    -0.272 OA
ENDROOT
BRANCH  10  12
HETATM   12  C   UNK N   1      19.675  15.577   5.848  0.00  0.00     0.129 C 
BRANCH  12  13
HETATM   13  C   UNK N   1      20.678  14.507   6.327  0.00  0.00     0.087 C 
BRANCH  13  14
HETATM   14  N   UNK N   1      21.436  13.998   5.196  0.00  0.00    -0.425 N 
HETATM   15  H   UNK N   1      22.329  13.510   5.117  0.00  0.00     0.150 HD
HETATM   16  H   UNK N   1      20.983  14.162   4.297  0.00  0.00     0.150 HD
ENDBRANCH  13  14
BRANCH  13  17
HETATM   17  C   UNK N   1      21.629  15.075   7.381  0.00  0.00     0.067 C 
BRANCH  17  18
HETATM   18  C   UNK N   1      21.974  14.073   8.455  0.00  0.00    -0.015 A 
HETATM   19  C   UNK N   1      21.032  13.748   9.441  0.00  0.00     0.055 A 
HETATM   20  C   UNK N   1      21.339  12.795  10.423  0.00  0.00     0.155 A 
HETATM   21  F   UNK N   1      20.422  12.481  11.371  0.00  0.00    -0.203 F 
HETATM   22  C   UNK N   1      22.587  12.163  10.422  0.00  0.00     0.157 A 
HETATM   23  F   UNK N   1      22.887  11.235  11.364  0.00  0.00    -0.203 F 
HETATM   24  C   UNK N   1      23.528  12.481   9.443  0.00  0.00     0.088 A 
HETATM   25  C   UNK N   1      23.227  13.427   8.462  0.00  0.00     0.125 A 
HETATM   26  F   UNK N   1      24.151  13.699   7.511  0.00  0.00    -0.205 F 
ENDBRANCH  17  18
ENDBRANCH  13  17
ENDBRANCH  12  13
ENDBRANCH  10  12
BRANCH   1  27
HETATM   27  C   UNK N   1      21.059  15.078   1.405  0.00  0.00     0.033 A 
HETATM   28  C   UNK N   1      22.406  15.100   1.801  0.00  0.00     0.017 A 
HETATM   29  C   UNK N   1      23.209  13.966   1.647  0.00  0.00     0.001 A 
HETATM   30  C   UNK N   1      22.673  12.799   1.095  0.00  0.00     0.000 A 
HETATM   31  C   UNK N   1      21.336  12.766   0.697  0.00  0.00     0.001 A 
HETATM   32  C   UNK N   1      20.538  13.905   0.835  0.00  0.00     0.017 A 
ENDBRANCH   1  27
TORSDOF 6
ENDMDL
MODEL 6
REMARK VINA RESULT:      -6.6      3.462      6.680
REMARK  6 active torsions:
REMARK  status: ('A' for Active; 'I' for Inactive)
REMARK    1  A    between atoms: C_6  and  C_7 
REMARK       I    between atoms: C_7  and  N_9 
REMARK       I    between atoms: N_15  and  C_16 
REMARK    2  A    between atoms: C_16  and  C_18 
REMARK    3  A    between atoms: C_18  and  C_19 
REMARK    4  A    between atoms: C_19  and  N_20 
REMARK    5  A    between atoms: C_19  and  C_21 
REMARK    6  A    between atoms: C_21  and  C_22 
ROOT
HETATM    1  C   UNK N   1      27.425  27.373  -6.646  0.00  0.00     0.272 C 
HETATM    2  O   UNK N   1      27.129  27.519  -7.826  0.00  0.00    -0.266 OA
HETATM    3  N   UNK N   1      27.621  26.103  -6.158  0.00  0.00    -0.252 N 
HETATM    4  C   UNK N   1      27.292  24.976  -7.013  0.00  0.00     0.153 C 
HETATM    5  C   UNK N   1      25.913  24.432  -6.658  0.00  0.00     0.022 C 
HETATM    6  C   UNK N   1      25.914  23.664  -5.343  0.00  0.00     0.003 C 
HETATM    7  C   UNK N   1      26.273  24.562  -4.171  0.00  0.00     0.022 C 
HETATM    8  C   UNK N   1      27.781  24.733  -4.120  0.00  0.00     0.152 C 
HETATM    9  N   UNK N   1      28.248  25.836  -4.948  0.00  0.00    -0.256 N 
HETATM   10  C   UNK N   1      29.518  26.316  -4.720  0.00  0.00     0.240 C 
HETATM   11  O   UNK N   1      29.998  27.180  -5.437  0.00  0.00    -0.272 OA
ENDROOT
BRANCH  10  12
HETATM   12  C   UNK N   1      30.421  25.622  -3.728  0.00  0.00     0.129 C 
BRANCH  12  13
HETATM   13  C   UNK N   1      31.401  24.735  -4.525  0.00  0.00     0.087 C 
BRANCH  13  14
HETATM   14  N   UNK N   1      32.701  25.379  -4.601  0.00  0.00    -0.425 N 
HETATM   15  H   UNK N   1      33.514  25.242  -5.203  0.00  0.00     0.150 HD
HETATM   16  H   UNK N   1      32.827  26.121  -3.912  0.00  0.00     0.150 HD
ENDBRANCH  13  14
BRANCH  13  17
HETATM   17  C   UNK N   1      31.539  23.354  -3.884  0.00  0.00     0.067 C 
BRANCH  17  18
HETATM   18  C   UNK N   1      31.061  22.242  -4.786  0.00  0.00    -0.015 A 
HETATM   19  C   UNK N   1      29.877  22.394  -5.521  0.00  0.00     0.055 A 
HETATM   20  C   UNK N   1      29.446  21.375  -6.383  0.00  0.00     0.155 A 
HETATM   21  F   UNK N   1      28.303  21.530  -7.095  0.00  0.00    -0.203 F 
HETATM   22  C   UNK N   1      30.198  20.203  -6.513  0.00  0.00     0.157 A 
HETATM   23  F   UNK N   1      29.792  19.217  -7.352  0.00  0.00    -0.203 F 
HETATM   24  C   UNK N   1      31.377  20.047  -5.786  0.00  0.00     0.088 A 
HETATM   25  C   UNK N   1      31.811  21.058  -4.929  0.00  0.00     0.125 A 
HETATM   26  F   UNK N   1      32.972  20.888  -4.253  0.00  0.00    -0.205 F 
ENDBRANCH  17  18
ENDBRANCH  13  17
ENDBRANCH  12  13
ENDBRANCH  10  12
BRANCH   1  27
HETATM   27  C   UNK N   1      27.439  28.587  -5.784  0.00  0.00     0.033 A 
HETATM   28  C   UNK N   1      26.545  28.730  -4.711  0.00  0.00     0.017 A 
HETATM   29  C   UNK N   1      26.469  29.937  -4.008  0.00  0.00     0.001 A 
HETATM   30  C   UNK N   1      27.286  31.011  -4.371  0.00  0.00     0.000 A 
HETATM   31  C   UNK N   1      28.178  30.880  -5.437  0.00  0.00     0.001 A 
HETATM   32  C   UNK N   1      28.241  29.681  -6.151  0.00  0.00     0.017 A 
ENDBRANCH   1  27
TORSDOF 6
ENDMDL
MODEL 7
REMARK VINA RESULT:      -6.6     13.941     16.234
REMARK  6 active torsions:
REMARK  status: ('A' for Active; 'I' for Inactive)
REMARK    1  A    between atoms: C_6  and  C_7 
REMARK       I    between atoms: C_7  and  N_9 
REMARK       I    between atoms: N_15  and  C_16 
REMARK    2  A    between atoms: C_16  and  C_18 
REMARK    3  A    between atoms: C_18  and  C_19 
REMARK    4  A    between atoms: C_19  and  N_20 
REMARK    5  A    between atoms: C_19  and  C_21 
REMARK    6  A    between atoms: C_21  and  C_22 
ROOT
HETATM    1  C   UNK N   1      21.069  17.743   6.488  0.00  0.00     0.272 C 
HETATM    2  O   UNK N   1      20.827  18.676   7.244  0.00  0.00    -0.266 OA
HETATM    3  N   UNK N   1      20.462  16.530   6.709  0.00  0.00    -0.252 N 
HETATM    4  C   UNK N   1      19.701  16.350   7.932  0.00  0.00     0.153 C 
HETATM    5  C   UNK N   1      20.546  15.628   8.975  0.00  0.00     0.022 C 
HETATM    6  C   UNK N   1      20.721  14.149   8.656  0.00  0.00     0.003 C 
HETATM    7  C   UNK N   1      21.480  13.944   7.356  0.00  0.00     0.022 C 
HETATM    8  C   UNK N   1      20.524  14.125   6.189  0.00  0.00     0.152 C 
HETATM    9  N   UNK N   1      20.417  15.513   5.763  0.00  0.00    -0.256 N 
HETATM   10  C   UNK N   1      19.877  15.763   4.522  0.00  0.00     0.240 C 
HETATM   11  O   UNK N   1      19.680  16.907   4.143  0.00  0.00    -0.272 OA
ENDROOT
BRANCH  10  12
HETATM   12  C   UNK N   1      19.307  14.628   3.704  0.00  0.00     0.129 C 
BRANCH  12  13
HETATM   13  C   UNK N   1      19.998  14.648   2.325  0.00  0.00     0.087 C 
BRANCH  13  14
HETATM   14  N   UNK N   1      19.206  15.423   1.385  0.00  0.00    -0.425 N 
HETATM   15  H   UNK N   1      18.250  15.335   1.040  0.00  0.00     0.150 HD
HETATM   16  H   UNK N   1      19.709  16.218   0.990  0.00  0.00     0.150 HD
ENDBRANCH  13  14
BRANCH  13  17
HETATM   17  C   UNK N   1      21.409  15.230   2.424  0.00  0.00     0.067 C 
BRANCH  17  18
HETATM   18  C   UNK N   1      22.474  14.253   1.992  0.00  0.00    -0.015 A 
HETATM   19  C   UNK N   1      22.562  13.858   0.650  0.00  0.00     0.055 A 
HETATM   20  C   UNK N   1      23.571  12.973   0.240  0.00  0.00     0.155 A 
HETATM   21  F   UNK N   1      23.654  12.599  -1.060  0.00  0.00    -0.203 F 
HETATM   22  C   UNK N   1      24.494  12.483   1.170  0.00  0.00     0.157 A 
HETATM   23  F   UNK N   1      25.477  11.634   0.779  0.00  0.00    -0.203 F 
HETATM   24  C   UNK N   1      24.413  12.875   2.505  0.00  0.00     0.088 A 
HETATM   25  C   UNK N   1      23.413  13.756   2.918  0.00  0.00     0.125 A 
HETATM   26  F   UNK N   1      23.372  14.136   4.217  0.00  0.00    -0.205 F 
ENDBRANCH  17  18
ENDBRANCH  13  17
ENDBRANCH  12  13
ENDBRANCH  10  12
BRANCH   1  27
HETATM   27  C   UNK N   1      22.103  17.957   5.439  0.00  0.00     0.033 A 
HETATM   28  C   UNK N   1      23.299  17.221   5.433  0.00  0.00     0.017 A 
HETATM   29  C   UNK N   1      24.322  17.538   4.535  0.00  0.00     0.001 A 
HETATM   30  C   UNK N   1      24.160  18.594   3.633  0.00  0.00     0.000 A 
HETATM   31  C   UNK N   1      22.976  19.333   3.631  0.00  0.00     0.001 A 
HETATM   32  C   UNK N   1      21.960  19.027   4.540  0.00  0.00     0.017 A 
ENDBRANCH   1  27
TORSDOF 6
ENDMDL
MODEL 8
REMARK VINA RESULT:      -6.5      3.912      7.132
REMARK  6 active torsions:
REMARK  status: ('A' for Active; 'I' for Inactive)
REMARK    1  A    between atoms: C_6  and  C_7 
REMARK       I    between atoms: C_7  and  N_9 
REMARK       I    between atoms: N_15  and  C_16 
REMARK    2  A    between atoms: C_16  and  C_18 
REMARK    3  A    between atoms: C_18  and  C_19 
REMARK    4  A    between atoms: C_19  and  N_20 
REMARK    5  A    between atoms: C_19  and  C_21 
REMARK    6  A    between atoms: C_21  and  C_22 
ROOT
HETATM    1  C   UNK N   1      27.574  26.942  -6.835  0.00  0.00     0.272 C 
HETATM    2  O   UNK N   1      27.603  27.259  -8.018  0.00  0.00    -0.266 OA
HETATM    3  N   UNK N   1      27.640  25.611  -6.498  0.00  0.00    -0.252 N 
HETATM    4  C   UNK N   1      27.558  24.624  -7.560  0.00  0.00     0.153 C 
HETATM    5  C   UNK N   1      26.138  24.081  -7.664  0.00  0.00     0.022 C 
HETATM    6  C   UNK N   1      25.792  23.139  -6.519  0.00  0.00     0.003 C 
HETATM    7  C   UNK N   1      25.820  23.854  -5.179  0.00  0.00     0.022 C 
HETATM    8  C   UNK N   1      27.258  23.968  -4.706  0.00  0.00     0.152 C 
HETATM    9  N   UNK N   1      27.922  25.159  -5.215  0.00  0.00    -0.256 N 
HETATM   10  C   UNK N   1      29.083  25.562  -4.593  0.00  0.00     0.240 C 
HETATM   11  O   UNK N   1      29.732  26.501  -5.026  0.00  0.00    -0.272 OA
ENDROOT
BRANCH  10  12
HETATM   12  C   UNK N   1      29.692  24.709  -3.506  0.00  0.00     0.129 C 
BRANCH  12  13
HETATM   13  C   UNK N   1      30.818  23.868  -4.144  0.00  0.00     0.087 C 
BRANCH  13  14
HETATM   14  N   UNK N   1      31.974  24.708  -4.408  0.00  0.00    -0.425 N 
HETATM   15  H   UNK N   1      32.202  25.366  -5.153  0.00  0.00     0.150 HD
HETATM   16  H   UNK N   1      32.707  24.621  -3.704  0.00  0.00     0.150 HD
ENDBRANCH  13  14
BRANCH  13  17
HETATM   17  C   UNK N   1      31.215  22.702  -3.238  0.00  0.00     0.067 C 
BRANCH  17  18
HETATM   18  C   UNK N   1      31.969  21.622  -3.975  0.00  0.00    -0.015 A 
HETATM   19  C   UNK N   1      31.645  21.322  -5.306  0.00  0.00     0.055 A 
HETATM   20  C   UNK N   1      32.364  20.340  -6.003  0.00  0.00     0.155 A 
HETATM   21  F   UNK N   1      32.050  20.058  -7.291  0.00  0.00    -0.203 F 
HETATM   22  C   UNK N   1      33.409  19.656  -5.372  0.00  0.00     0.157 A 
HETATM   23  F   UNK N   1      34.114  18.711  -6.043  0.00  0.00    -0.203 F 
HETATM   24  C   UNK N   1      33.737  19.952  -4.050  0.00  0.00     0.088 A 
HETATM   25  C   UNK N   1      33.026  20.929  -3.352  0.00  0.00     0.125 A 
HETATM   26  F   UNK N   1      33.382  21.210  -2.077  0.00  0.00    -0.205 F 
ENDBRANCH  17  18
ENDBRANCH  13  17
ENDBRANCH  12  13
ENDBRANCH  10  12
BRANCH   1  27
HETATM   27  C   UNK N   1      27.350  28.024  -5.837  0.00  0.00     0.033 A 
HETATM   28  C   UNK N   1      26.341  27.924  -4.866  0.00  0.00     0.017 A 
HETATM   29  C   UNK N   1      26.045  29.009  -4.036  0.00  0.00     0.001 A 
HETATM   30  C   UNK N   1      26.755  30.205  -4.169  0.00  0.00     0.000 A 
HETATM   31  C   UNK N   1      27.760  30.317  -5.131  0.00  0.00     0.001 A 
HETATM   32  C   UNK N   1      28.044  29.238  -5.972  0.00  0.00     0.017 A 
ENDBRANCH   1  27
TORSDOF 6
ENDMDL
MODEL 9
REMARK VINA RESULT:      -6.4     15.311     18.204
REMARK  6 active torsions:
REMARK  status: ('A' for Active; 'I' for Inactive)
REMARK    1  A    between atoms: C_6  and  C_7 
REMARK       I    between atoms: C_7  and  N_9 
REMARK       I    between atoms: N_15  and  C_16 
REMARK    2  A    between atoms: C_16  and  C_18 
REMARK    3  A    between atoms: C_18  and  C_19 
REMARK    4  A    between atoms: C_19  and  N_20 
REMARK    5  A    between atoms: C_19  and  C_21 
REMARK    6  A    between atoms: C_21  and  C_22 
ROOT
HETATM    1  C   UNK N   1      22.743  14.921   2.329  0.00  0.00     0.272 C 
HETATM    2  O   UNK N   1      22.101  14.543   1.356  0.00  0.00    -0.266 OA
HETATM    3  N   UNK N   1      22.116  15.678   3.290  0.00  0.00    -0.252 N 
HETATM    4  C   UNK N   1      20.770  16.153   3.027  0.00  0.00     0.153 C 
HETATM    5  C   UNK N   1      20.810  17.595   2.534  0.00  0.00     0.022 C 
HETATM    6  C   UNK N   1      21.131  18.581   3.650  0.00  0.00     0.003 C 
HETATM    7  C   UNK N   1      22.519  18.345   4.221  0.00  0.00     0.022 C 
HETATM    8  C   UNK N   1      22.463  17.188   5.203  0.00  0.00     0.152 C 
HETATM    9  N   UNK N   1      22.644  15.896   4.557  0.00  0.00    -0.256 N 
HETATM   10  C   UNK N   1      22.964  14.820   5.354  0.00  0.00     0.240 C 
HETATM   11  O   UNK N   1      23.044  13.695   4.884  0.00  0.00    -0.272 OA
ENDROOT
BRANCH  10  12
HETATM   12  C   UNK N   1      22.994  14.975   6.855  0.00  0.00     0.129 C 
BRANCH  12  13
HETATM   13  C   UNK N   1      21.801  14.186   7.434  0.00  0.00     0.087 C 
BRANCH  13  14
HETATM   14  N   UNK N   1      20.687  14.218   6.500  0.00  0.00    -0.425 N 
HETATM   15  H   UNK N   1      19.941  14.892   6.327  0.00  0.00     0.150 HD
HETATM   16  H   UNK N   1      20.644  13.398   5.894  0.00  0.00     0.150 HD
ENDBRANCH  13  14
BRANCH  13  17
HETATM   17  C   UNK N   1      22.189  12.739   7.735  0.00  0.00     0.067 C 
BRANCH  17  18
HETATM   18  C   UNK N   1      22.426  12.492   9.204  0.00  0.00    -0.015 A 
HETATM   19  C   UNK N   1      21.339  12.398  10.085  0.00  0.00     0.055 A 
HETATM   20  C   UNK N   1      21.554  12.138  11.446  0.00  0.00     0.155 A 
HETATM   21  F   UNK N   1      20.498  12.043  12.291  0.00  0.00    -0.203 F 
HETATM   22  C   UNK N   1      22.855  11.969  11.931  0.00  0.00     0.157 A 
HETATM   23  F   UNK N   1      23.070  11.709  13.245  0.00  0.00    -0.203 F 
HETATM   24  C   UNK N   1      23.940  12.060  11.060  0.00  0.00     0.088 A 
HETATM   25  C   UNK N   1      23.731  12.317   9.704  0.00  0.00     0.125 A 
HETATM   26  F   UNK N   1      24.802  12.376   8.878  0.00  0.00    -0.205 F 
ENDBRANCH  17  18
ENDBRANCH  13  17
ENDBRANCH  12  13
ENDBRANCH  10  12
BRANCH   1  27
HETATM   27  C   UNK N   1      24.202  14.627   2.347  0.00  0.00     0.033 A 
HETATM   28  C   UNK N   1      25.151  15.654   2.480  0.00  0.00     0.017 A 
HETATM   29  C   UNK N   1      26.515  15.381   2.342  0.00  0.00     0.001 A 
HETATM   30  C   UNK N   1      26.944  14.079   2.071  0.00  0.00     0.000 A 
HETATM   31  C   UNK N   1      26.010  13.050   1.936  0.00  0.00     0.001 A 
HETATM   32  C   UNK N   1      24.646  13.326   2.056  0.00  0.00     0.017 A 
ENDBRANCH   1  27
TORSDOF 6
ENDMDL
