MODEL 1
REMARK VINA RESULT:      -7.4      0.000      0.000
REMARK  3 active torsions:
REMARK  status: ('A' for Active; 'I' for Inactive)
REMARK    1  A    between atoms: C_5  and  N_6 
REMARK    2  A    between atoms: C_15  and  N_16 
REMARK    3  A    between atoms: C_18  and  C_19 
ROOT
HETATM    1  N   UNK N   1      32.085  16.854   8.072  0.00  0.00    -0.270 N 
HETATM    2  N   UNK N   1      32.502  16.514   9.290  0.00  0.00    -0.295 N 
ATOM      3  HN  UNK N   1      32.021  16.719  10.165  1.00  0.00     0.187 HD
HETATM    4  C   UNK N   1      32.971  16.396   7.175  0.00  0.00     0.140 A 
HETATM    5  N   UNK N   1      32.917  16.556   5.831  0.00  0.00    -0.337 N 
ATOM      6  HN  UNK N   1      32.144  17.057   5.393  1.00  0.00     0.168 HD
HETATM    7  C   UNK N   1      33.925  16.030   5.077  0.00  0.00     0.183 A 
HETATM    8  N   UNK N   1      34.958  15.357   5.672  0.00  0.00    -0.338 N 
ATOM      9  HN  UNK N   1      35.697  14.961   5.090  1.00  0.00     0.168 HD
HETATM   10  C   UNK N   1      35.021  15.203   7.027  0.00  0.00     0.116 A 
HETATM   11  C   UNK N   1      33.991  15.751   7.804  0.00  0.00     0.082 A 
HETATM   12  C   UNK N   1      33.680  15.846   9.167  0.00  0.00     0.077 A 
ENDROOT
BRANCH  12  13
HETATM   13  C   UNK N   1      34.482  15.442  10.342  0.00  0.00     0.009 A 
HETATM   14  C   UNK N   1      34.214  14.234  11.008  0.00  0.00     0.030 A 
HETATM   15  C   UNK N   1      35.078  13.835  12.011  0.00  0.00     0.010 A 
HETATM   16  C   UNK N   1      35.088  12.708  12.794  0.00  0.00     0.032 A 
HETATM   17  C   UNK N   1      36.148  14.590  12.354  0.00  0.00     0.115 A 
HETATM   18  C   UNK N   1      36.214  12.849  13.610  0.00  0.00     0.090 A 
HETATM   19  N   UNK N   1      36.859  14.012  13.331  0.00  0.00    -0.352 N 
HETATM   20  H   UNK N   1      37.676  14.358  13.758  0.00  0.00     0.166 HD
HETATM   21  N   UNK N   1      36.435  15.766  11.741  0.00  0.00    -0.351 N 
HETATM   22  C   UNK N   1      35.625  16.195  10.723  0.00  0.00     0.103 A 
ATOM     23  HN  UNK N   1      37.240  16.320  12.033  1.00  0.00     0.166 HD
ENDBRANCH  12  13
BRANCH   1  24
HETATM   24  C   UNK N   1      30.908  17.671   7.783  0.00  0.00     0.110 C 
HETATM   25  C   UNK N   1      30.351  18.380   8.994  0.00  0.00     0.027 C 
HETATM   26  C   UNK N   1      28.941  18.750   8.576  0.00  0.00     0.002 C 
HETATM   27  C   UNK N   1      28.558  17.785   7.458  0.00  0.00     0.002 C 
HETATM   28  C   UNK N   1      29.748  16.864   7.259  0.00  0.00     0.027 C 
ENDBRANCH   1  24
BRANCH  10  29
HETATM   29  N   UNK N   1      36.091  14.484   7.591  0.00  0.00    -0.385 N 
HETATM   30  H   UNK N   1      36.701  14.909   8.237  0.00  0.00     0.157 HD
HETATM   31  H   UNK N   1      36.232  13.544   7.337  0.00  0.00     0.157 HD
ENDBRANCH  10  29
TORSDOF 3
ENDMDL
MODEL 2
REMARK VINA RESULT:      -7.3      4.714      9.766
REMARK  3 active torsions:
REMARK  status: ('A' for Active; 'I' for Inactive)
REMARK    1  A    between atoms: C_5  and  N_6 
REMARK    2  A    between atoms: C_15  and  N_16 
REMARK    3  A    between atoms: C_18  and  C_19 
ROOT
HETATM    1  N   UNK N   1      30.522  16.778   5.309  0.00  0.00    -0.270 N 
HETATM    2  N   UNK N   1      29.369  17.016   4.687  0.00  0.00    -0.295 N 
ATOM      3  HN  UNK N   1      29.140  16.749   3.730  1.00  0.00     0.187 HD
HETATM    4  C   UNK N   1      30.442  17.261   6.557  0.00  0.00     0.140 A 
HETATM    5  N   UNK N   1      31.415  17.236   7.499  0.00  0.00    -0.337 N 
ATOM      6  HN  UNK N   1      32.322  16.812   7.304  1.00  0.00     0.168 HD
HETATM    7  C   UNK N   1      31.151  17.795   8.715  0.00  0.00     0.183 A 
HETATM    8  N   UNK N   1      29.932  18.361   8.969  0.00  0.00    -0.338 N 
ATOM      9  HN  UNK N   1      29.750  18.764   9.888  1.00  0.00     0.168 HD
HETATM   10  C   UNK N   1      28.952  18.397   8.019  0.00  0.00     0.116 A 
HETATM   11  C   UNK N   1      29.223  17.831   6.765  0.00  0.00     0.082 A 
HETATM   12  C   UNK N   1      28.549  17.676   5.547  0.00  0.00     0.077 A 
ENDROOT
BRANCH  12  13
HETATM   13  C   UNK N   1      27.234  18.209   5.129  0.00  0.00     0.009 A 
HETATM   14  C   UNK N   1      27.154  19.300   4.248  0.00  0.00     0.030 A 
HETATM   15  C   UNK N   1      25.906  19.671   3.780  0.00  0.00     0.010 A 
HETATM   16  C   UNK N   1      25.533  20.655   2.898  0.00  0.00     0.032 A 
HETATM   17  C   UNK N   1      24.789  19.013   4.166  0.00  0.00     0.115 A 
HETATM   18  C   UNK N   1      24.144  20.535   2.796  0.00  0.00     0.090 A 
HETATM   19  N   UNK N   1      23.697  19.522   3.582  0.00  0.00    -0.352 N 
HETATM   20  H   UNK N   1      22.765  19.224   3.699  0.00  0.00     0.166 HD
HETATM   21  N   UNK N   1      24.825  17.961   5.022  0.00  0.00    -0.351 N 
HETATM   22  C   UNK N   1      26.038  17.536   5.497  0.00  0.00     0.103 A 
ATOM     23  HN  UNK N   1      23.964  17.495   5.308  1.00  0.00     0.166 HD
ENDBRANCH  12  13
BRANCH   1  24
HETATM   24  C   UNK N   1      31.703  16.177   4.691  0.00  0.00     0.110 C 
HETATM   25  C   UNK N   1      32.429  17.103   3.743  0.00  0.00     0.027 C 
HETATM   26  C   UNK N   1      33.277  16.166   2.906  0.00  0.00     0.002 C 
HETATM   27  C   UNK N   1      32.608  14.797   2.982  0.00  0.00     0.002 C 
HETATM   28  C   UNK N   1      31.374  14.969   3.850  0.00  0.00     0.027 C 
ENDBRANCH   1  24
BRANCH  10  29
HETATM   29  N   UNK N   1      27.705  18.970   8.334  0.00  0.00    -0.385 N 
HETATM   30  H   UNK N   1      27.005  18.442   8.783  0.00  0.00     0.157 HD
HETATM   31  H   UNK N   1      27.531  19.911   8.103  0.00  0.00     0.157 HD
ENDBRANCH  10  29
TORSDOF 3
ENDMDL
MODEL 3
REMARK VINA RESULT:      -7.2      5.132      7.462
REMARK  3 active torsions:
REMARK  status: ('A' for Active; 'I' for Inactive)
REMARK    1  A    between atoms: C_5  and  N_6 
REMARK    2  A    between atoms: C_15  and  N_16 
REMARK    3  A    between atoms: C_18  and  C_19 
ROOT
HETATM    1  N   UNK N   1      27.959  18.691   5.268  0.00  0.00    -0.270 N 
HETATM    2  N   UNK N   1      28.886  18.252   4.418  0.00  0.00    -0.295 N 
ATOM      3  HN  UNK N   1      28.878  18.380   3.407  1.00  0.00     0.187 HD
HETATM    4  C   UNK N   1      28.323  18.347   6.511  0.00  0.00     0.140 A 
HETATM    5  N   UNK N   1      27.635  18.591   7.653  0.00  0.00    -0.337 N 
ATOM      6  HN  UNK N   1      26.747  19.093   7.632  1.00  0.00     0.168 HD
HETATM    7  C   UNK N   1      28.160  18.146   8.831  0.00  0.00     0.183 A 
HETATM    8  N   UNK N   1      29.352  17.475   8.850  0.00  0.00    -0.338 N 
ATOM      9  HN  UNK N   1      29.734  17.161   9.742  1.00  0.00     0.168 HD
HETATM   10  C   UNK N   1      30.043  17.218   7.701  0.00  0.00     0.116 A 
HETATM   11  C   UNK N   1      29.501  17.666   6.488  0.00  0.00     0.082 A 
HETATM   12  C   UNK N   1      29.844  17.603   5.131  0.00  0.00     0.077 A 
ENDROOT
BRANCH  12  13
HETATM   13  C   UNK N   1      30.955  16.876   4.478  0.00  0.00     0.009 A 
HETATM   14  C   UNK N   1      30.827  15.514   4.158  0.00  0.00     0.030 A 
HETATM   15  C   UNK N   1      31.836  14.917   3.425  0.00  0.00     0.010 A 
HETATM   16  C   UNK N   1      31.963  13.638   2.945  0.00  0.00     0.032 A 
HETATM   17  C   UNK N   1      32.926  15.618   3.034  0.00  0.00     0.115 A 
HETATM   18  C   UNK N   1      33.181  13.632   2.261  0.00  0.00     0.090 A 
HETATM   19  N   UNK N   1      33.767  14.856   2.323  0.00  0.00    -0.352 N 
HETATM   20  H   UNK N   1      34.628  15.126   1.929  0.00  0.00     0.166 HD
HETATM   21  N   UNK N   1      33.090  16.932   3.332  0.00  0.00    -0.351 N 
HETATM   22  C   UNK N   1      32.108  17.578   4.035  0.00  0.00     0.103 A 
ATOM     23  HN  UNK N   1      33.930  17.429   3.037  1.00  0.00     0.166 HD
ENDBRANCH  12  13
BRANCH   1  24
HETATM   24  C   UNK N   1      26.712  19.351   4.885  0.00  0.00     0.110 C 
HETATM   25  C   UNK N   1      25.581  18.392   4.599  0.00  0.00     0.027 C 
HETATM   26  C   UNK N   1      24.597  19.225   3.802  0.00  0.00     0.002 C 
HETATM   27  C   UNK N   1      25.401  20.363   3.182  0.00  0.00     0.002 C 
HETATM   28  C   UNK N   1      26.841  20.160   3.619  0.00  0.00     0.027 C 
ENDBRANCH   1  24
BRANCH  10  29
HETATM   29  N   UNK N   1      31.276  16.544   7.773  0.00  0.00    -0.385 N 
HETATM   30  H   UNK N   1      32.106  17.029   7.989  0.00  0.00     0.157 HD
HETATM   31  H   UNK N   1      31.310  15.574   7.606  0.00  0.00     0.157 HD
ENDBRANCH  10  29
TORSDOF 3
ENDMDL
MODEL 4
REMARK VINA RESULT:      -7.1      2.454      3.882
REMARK  3 active torsions:
REMARK  status: ('A' for Active; 'I' for Inactive)
REMARK    1  A    between atoms: C_5  and  N_6 
REMARK    2  A    between atoms: C_15  and  N_16 
REMARK    3  A    between atoms: C_18  and  C_19 
ROOT
HETATM    1  N   UNK N   1      29.343  17.976   6.013  0.00  0.00    -0.270 N 
HETATM    2  N   UNK N   1      30.074  17.941   7.125  0.00  0.00    -0.295 N 
ATOM      3  HN  UNK N   1      29.832  18.379   8.013  1.00  0.00     0.187 HD
HETATM    4  C   UNK N   1      29.978  17.274   5.063  0.00  0.00     0.140 A 
HETATM    5  N   UNK N   1      29.570  17.089   3.784  0.00  0.00    -0.337 N 
ATOM      6  HN  UNK N   1      28.694  17.491   3.451  1.00  0.00     0.168 HD
HETATM    7  C   UNK N   1      30.363  16.353   2.953  0.00  0.00     0.183 A 
HETATM    8  N   UNK N   1      31.536  15.816   3.409  0.00  0.00    -0.338 N 
ATOM      9  HN  UNK N   1      32.109  15.259   2.776  1.00  0.00     0.168 HD
HETATM   10  C   UNK N   1      31.955  16.008   4.694  0.00  0.00     0.116 A 
HETATM   11  C   UNK N   1      31.147  16.772   5.547  0.00  0.00     0.082 A 
HETATM   12  C   UNK N   1      31.200  17.221   6.873  0.00  0.00     0.077 A 
ENDROOT
BRANCH  12  13
HETATM   13  C   UNK N   1      32.294  17.099   7.861  0.00  0.00     0.009 A 
HETATM   14  C   UNK N   1      32.419  15.941   8.648  0.00  0.00     0.030 A 
HETATM   15  C   UNK N   1      33.536  15.817   9.454  0.00  0.00     0.010 A 
HETATM   16  C   UNK N   1      33.935  14.801  10.286  0.00  0.00     0.032 A 
HETATM   17  C   UNK N   1      34.479  16.787   9.499  0.00  0.00     0.115 A 
HETATM   18  C   UNK N   1      35.154  15.232  10.817  0.00  0.00     0.090 A 
HETATM   19  N   UNK N   1      35.479  16.457  10.326  0.00  0.00    -0.352 N 
HETATM   20  H   UNK N   1      36.280  16.990  10.534  0.00  0.00     0.166 HD
HETATM   21  N   UNK N   1      34.389  17.922   8.762  0.00  0.00    -0.351 N 
HETATM   22  C   UNK N   1      33.314  18.084   7.927  0.00  0.00     0.103 A 
ATOM     23  HN  UNK N   1      35.107  18.643   8.828  1.00  0.00     0.166 HD
ENDBRANCH  12  13
BRANCH   1  24
HETATM   24  C   UNK N   1      28.106  18.736   5.842  0.00  0.00     0.110 C 
HETATM   25  C   UNK N   1      28.156  19.728   4.705  0.00  0.00     0.027 C 
HETATM   26  C   UNK N   1      27.016  20.680   5.009  0.00  0.00     0.002 C 
HETATM   27  C   UNK N   1      26.755  20.573   6.508  0.00  0.00     0.002 C 
HETATM   28  C   UNK N   1      27.760  19.572   7.048  0.00  0.00     0.027 C 
ENDBRANCH   1  24
BRANCH  10  29
HETATM   29  N   UNK N   1      33.158  15.417   5.123  0.00  0.00    -0.385 N 
HETATM   30  H   UNK N   1      33.153  14.665   5.760  0.00  0.00     0.157 HD
HETATM   31  H   UNK N   1      34.016  15.759   4.782  0.00  0.00     0.157 HD
ENDBRANCH  10  29
TORSDOF 3
ENDMDL
MODEL 5
REMARK VINA RESULT:      -7.0      2.220      7.400
REMARK  3 active torsions:
REMARK  status: ('A' for Active; 'I' for Inactive)
REMARK    1  A    between atoms: C_5  and  N_6 
REMARK    2  A    between atoms: C_15  and  N_16 
REMARK    3  A    between atoms: C_18  and  C_19 
ROOT
HETATM    1  N   UNK N   1      36.531  13.865  13.761  0.00  0.00    -0.270 N 
HETATM    2  N   UNK N   1      35.966  14.857  13.075  0.00  0.00    -0.295 N 
ATOM      3  HN  UNK N   1      35.653  15.748  13.461  1.00  0.00     0.187 HD
HETATM    4  C   UNK N   1      36.819  12.869  12.911  0.00  0.00     0.140 A 
HETATM    5  N   UNK N   1      37.380  11.676  13.222  0.00  0.00    -0.337 N 
ATOM      6  HN  UNK N   1      37.644  11.456  14.183  1.00  0.00     0.168 HD
HETATM    7  C   UNK N   1      37.583  10.776  12.218  0.00  0.00     0.183 A 
HETATM    8  N   UNK N   1      37.228  11.079  10.931  0.00  0.00    -0.338 N 
ATOM      9  HN  UNK N   1      37.399  10.398  10.192  1.00  0.00     0.168 HD
HETATM   10  C   UNK N   1      36.653  12.276  10.615  0.00  0.00     0.116 A 
HETATM   11  C   UNK N   1      36.435  13.200  11.647  0.00  0.00     0.082 A 
HETATM   12  C   UNK N   1      35.876  14.479  11.773  0.00  0.00     0.077 A 
ENDROOT
BRANCH  12  13
HETATM   13  C   UNK N   1      35.175  15.298  10.761  0.00  0.00     0.009 A 
HETATM   14  C   UNK N   1      34.003  14.824  10.146  0.00  0.00     0.030 A 
HETATM   15  C   UNK N   1      33.310  15.683   9.312  0.00  0.00     0.010 A 
HETATM   16  C   UNK N   1      32.138  15.511   8.619  0.00  0.00     0.032 A 
HETATM   17  C   UNK N   1      33.750  16.942   9.081  0.00  0.00     0.115 A 
HETATM   18  C   UNK N   1      31.924  16.731   7.972  0.00  0.00     0.090 A 
HETATM   19  N   UNK N   1      32.923  17.605   8.263  0.00  0.00    -0.352 N 
HETATM   20  H   UNK N   1      33.020  18.530   7.939  0.00  0.00     0.166 HD
HETATM   21  N   UNK N   1      34.881  17.432   9.648  0.00  0.00    -0.351 N 
HETATM   22  C   UNK N   1      35.592  16.631  10.503  0.00  0.00     0.103 A 
ATOM     23  HN  UNK N   1      35.196  18.379   9.442  1.00  0.00     0.166 HD
ENDBRANCH  12  13
BRANCH   1  24
HETATM   24  C   UNK N   1      36.713  13.842  15.211  0.00  0.00     0.110 C 
HETATM   25  C   UNK N   1      35.461  13.474  15.973  0.00  0.00     0.027 C 
HETATM   26  C   UNK N   1      35.743  13.959  17.381  0.00  0.00     0.002 C 
HETATM   27  C   UNK N   1      36.805  15.047  17.256  0.00  0.00     0.002 C 
HETATM   28  C   UNK N   1      37.109  15.183  15.775  0.00  0.00     0.027 C 
ENDBRANCH   1  24
BRANCH  10  29
HETATM   29  N   UNK N   1      36.325  12.552   9.274  0.00  0.00    -0.385 N 
HETATM   30  H   UNK N   1      35.406  12.795   9.018  0.00  0.00     0.157 HD
HETATM   31  H   UNK N   1      37.025  12.502   8.584  0.00  0.00     0.157 HD
ENDBRANCH  10  29
TORSDOF 3
ENDMDL
MODEL 6
REMARK VINA RESULT:      -6.9     15.312     19.105
REMARK  3 active torsions:
REMARK  status: ('A' for Active; 'I' for Inactive)
REMARK    1  A    between atoms: C_5  and  N_6 
REMARK    2  A    between atoms: C_15  and  N_16 
REMARK    3  A    between atoms: C_18  and  C_19 
ROOT
HETATM    1  N   UNK N   1      29.021  23.485  -5.119  0.00  0.00    -0.270 N 
HETATM    2  N   UNK N   1      28.969  24.679  -4.530  0.00  0.00    -0.295 N 
ATOM      3  HN  UNK N   1      29.653  25.050  -3.871  1.00  0.00     0.187 HD
HETATM    4  C   UNK N   1      27.960  23.363  -5.929  0.00  0.00     0.140 A 
HETATM    5  N   UNK N   1      27.640  22.287  -6.688  0.00  0.00    -0.337 N 
ATOM      6  HN  UNK N   1      28.233  21.457  -6.695  1.00  0.00     0.168 HD
HETATM    7  C   UNK N   1      26.504  22.342  -7.440  0.00  0.00     0.183 A 
HETATM    8  N   UNK N   1      25.715  23.460  -7.425  0.00  0.00    -0.338 N 
ATOM      9  HN  UNK N   1      24.875  23.486  -8.004  1.00  0.00     0.168 HD
HETATM   10  C   UNK N   1      26.027  24.542  -6.654  0.00  0.00     0.116 A 
HETATM   11  C   UNK N   1      27.190  24.484  -5.872  0.00  0.00     0.082 A 
HETATM   12  C   UNK N   1      27.848  25.317  -4.958  0.00  0.00     0.077 A 
ENDROOT
BRANCH  12  13
HETATM   13  C   UNK N   1      27.418  26.616  -4.395  0.00  0.00     0.009 A 
HETATM   14  C   UNK N   1      27.872  27.822  -4.956  0.00  0.00     0.030 A 
HETATM   15  C   UNK N   1      27.333  29.005  -4.484  0.00  0.00     0.010 A 
HETATM   16  C   UNK N   1      27.553  30.306  -4.860  0.00  0.00     0.032 A 
HETATM   17  C   UNK N   1      26.403  29.008  -3.500  0.00  0.00     0.115 A 
HETATM   18  C   UNK N   1      26.708  31.062  -4.044  0.00  0.00     0.090 A 
HETATM   19  N   UNK N   1      26.005  30.253  -3.209  0.00  0.00    -0.352 N 
HETATM   20  H   UNK N   1      25.343  30.524  -2.533  0.00  0.00     0.166 HD
HETATM   21  N   UNK N   1      25.947  27.865  -2.928  0.00  0.00    -0.351 N 
HETATM   22  C   UNK N   1      26.430  26.664  -3.376  0.00  0.00     0.103 A 
ATOM     23  HN  UNK N   1      25.258  27.900  -2.178  1.00  0.00     0.166 HD
ENDBRANCH  12  13
BRANCH   1  24
HETATM   24  C   UNK N   1      30.021  22.455  -4.846  0.00  0.00     0.110 C 
HETATM   25  C   UNK N   1      30.100  22.058  -3.391  0.00  0.00     0.027 C 
HETATM   26  C   UNK N   1      31.451  21.378  -3.277  0.00  0.00     0.002 C 
HETATM   27  C   UNK N   1      32.295  21.905  -4.434  0.00  0.00     0.002 C 
HETATM   28  C   UNK N   1      31.423  22.893  -5.187  0.00  0.00     0.027 C 
ENDBRANCH   1  24
BRANCH  10  29
HETATM   29  N   UNK N   1      25.197  25.678  -6.689  0.00  0.00    -0.385 N 
HETATM   30  H   UNK N   1      25.570  26.581  -6.564  0.00  0.00     0.157 HD
HETATM   31  H   UNK N   1      24.231  25.568  -6.841  0.00  0.00     0.157 HD
ENDBRANCH  10  29
TORSDOF 3
ENDMDL
MODEL 7
REMARK VINA RESULT:      -6.9      2.088      7.039
REMARK  3 active torsions:
REMARK  status: ('A' for Active; 'I' for Inactive)
REMARK    1  A    between atoms: C_5  and  N_6 
REMARK    2  A    between atoms: C_15  and  N_16 
REMARK    3  A    between atoms: C_18  and  C_19 
ROOT
HETATM    1  N   UNK N   1      35.733  13.370  12.304  0.00  0.00    -0.270 N 
HETATM    2  N   UNK N   1      34.595  13.782  11.749  0.00  0.00    -0.295 N 
ATOM      3  HN  UNK N   1      33.701  13.888  12.228  1.00  0.00     0.187 HD
HETATM    4  C   UNK N   1      36.691  13.377  11.366  0.00  0.00     0.140 A 
HETATM    5  N   UNK N   1      37.984  13.004  11.527  0.00  0.00    -0.337 N 
ATOM      6  HN  UNK N   1      38.327  12.684  12.433  1.00  0.00     0.168 HD
HETATM    7  C   UNK N   1      38.813  13.064  10.446  0.00  0.00     0.183 A 
HETATM    8  N   UNK N   1      38.344  13.496   9.235  0.00  0.00    -0.338 N 
ATOM      9  HN  UNK N   1      38.982  13.545   8.441  1.00  0.00     0.168 HD
HETATM   10  C   UNK N   1      37.040  13.863   9.066  0.00  0.00     0.116 A 
HETATM   11  C   UNK N   1      36.183  13.793  10.174  0.00  0.00     0.082 A 
HETATM   12  C   UNK N   1      34.829  14.039  10.435  0.00  0.00     0.077 A 
ENDROOT
BRANCH  12  13
HETATM   13  C   UNK N   1      33.742  14.390   9.495  0.00  0.00     0.009 A 
HETATM   14  C   UNK N   1      33.320  15.723   9.358  0.00  0.00     0.030 A 
HETATM   15  C   UNK N   1      32.400  16.019   8.368  0.00  0.00     0.010 A 
HETATM   16  C   UNK N   1      31.846  17.214   7.984  0.00  0.00     0.032 A 
HETATM   17  C   UNK N   1      31.907  15.052   7.560  0.00  0.00     0.115 A 
HETATM   18  C   UNK N   1      31.004  16.891   6.916  0.00  0.00     0.090 A 
HETATM   19  N   UNK N   1      31.049  15.557   6.664  0.00  0.00    -0.352 N 
HETATM   20  H   UNK N   1      30.554  15.064   5.970  0.00  0.00     0.166 HD
HETATM   21  N   UNK N   1      32.282  13.753   7.667  0.00  0.00    -0.351 N 
HETATM   22  C   UNK N   1      33.210  13.410   8.615  0.00  0.00     0.103 A 
ATOM     23  HN  UNK N   1      31.881  13.044   7.054  1.00  0.00     0.166 HD
ENDBRANCH  12  13
BRANCH   1  24
HETATM   24  C   UNK N   1      35.876  12.900  13.681  0.00  0.00     0.110 C 
HETATM   25  C   UNK N   1      34.599  12.346  14.267  0.00  0.00     0.027 C 
HETATM   26  C   UNK N   1      34.851  12.370  15.762  0.00  0.00     0.002 C 
HETATM   27  C   UNK N   1      35.933  13.420  15.998  0.00  0.00     0.002 C 
HETATM   28  C   UNK N   1      36.278  13.995  14.636  0.00  0.00     0.027 C 
ENDBRANCH   1  24
BRANCH  10  29
HETATM   29  N   UNK N   1      36.609  14.322   7.807  0.00  0.00    -0.385 N 
HETATM   30  H   UNK N   1      35.696  14.138   7.487  0.00  0.00     0.157 HD
HETATM   31  H   UNK N   1      37.229  14.834   7.239  0.00  0.00     0.157 HD
ENDBRANCH  10  29
TORSDOF 3
ENDMDL
MODEL 8
REMARK VINA RESULT:      -6.8      5.466      8.899
REMARK  3 active torsions:
REMARK  status: ('A' for Active; 'I' for Inactive)
REMARK    1  A    between atoms: C_5  and  N_6 
REMARK    2  A    between atoms: C_15  and  N_16 
REMARK    3  A    between atoms: C_18  and  C_19 
ROOT
HETATM    1  N   UNK N   1      24.198  17.442   5.124  0.00  0.00    -0.270 N 
HETATM    2  N   UNK N   1      25.285  16.899   5.670  0.00  0.00    -0.295 N 
ATOM      3  HN  UNK N   1      25.302  16.079   6.276  1.00  0.00     0.187 HD
HETATM    4  C   UNK N   1      24.575  18.491   4.379  0.00  0.00     0.140 A 
HETATM    5  N   UNK N   1      23.763  19.320   3.679  0.00  0.00    -0.337 N 
ATOM      6  HN  UNK N   1      22.753  19.179   3.670  1.00  0.00     0.168 HD
HETATM    7  C   UNK N   1      24.331  20.350   2.989  0.00  0.00     0.183 A 
HETATM    8  N   UNK N   1      25.688  20.532   3.006  0.00  0.00    -0.338 N 
ATOM      9  HN  UNK N   1      26.095  21.301   2.475  1.00  0.00     0.168 HD
HETATM   10  C   UNK N   1      26.508  19.705   3.718  0.00  0.00     0.116 A 
HETATM   11  C   UNK N   1      25.925  18.651   4.436  0.00  0.00     0.082 A 
HETATM   12  C   UNK N   1      26.366  17.624   5.281  0.00  0.00     0.077 A 
ENDROOT
BRANCH  12  13
HETATM   13  C   UNK N   1      27.721  17.369   5.817  0.00  0.00     0.009 A 
HETATM   14  C   UNK N   1      28.195  18.087   6.928  0.00  0.00     0.030 A 
HETATM   15  C   UNK N   1      29.409  17.715   7.476  0.00  0.00     0.010 A 
HETATM   16  C   UNK N   1      30.091  18.201   8.563  0.00  0.00     0.032 A 
HETATM   17  C   UNK N   1      30.131  16.696   6.953  0.00  0.00     0.115 A 
HETATM   18  C   UNK N   1      31.245  17.415   8.642  0.00  0.00     0.090 A 
HETATM   19  N   UNK N   1      31.259  16.492   7.645  0.00  0.00    -0.352 N 
HETATM   20  H   UNK N   1      31.953  15.817   7.467  0.00  0.00     0.166 HD
HETATM   21  N   UNK N   1      29.710  15.985   5.876  0.00  0.00    -0.351 N 
HETATM   22  C   UNK N   1      28.502  16.297   5.310  0.00  0.00     0.103 A 
ATOM     23  HN  UNK N   1      30.284  15.233   5.495  1.00  0.00     0.166 HD
ENDBRANCH  12  13
BRANCH   1  24
HETATM   24  C   UNK N   1      22.824  17.014   5.379  0.00  0.00     0.110 C 
HETATM   25  C   UNK N   1      21.986  18.056   6.082  0.00  0.00     0.027 C 
HETATM   26  C   UNK N   1      20.822  17.262   6.642  0.00  0.00     0.002 C 
HETATM   27  C   UNK N   1      21.303  15.819   6.759  0.00  0.00     0.002 C 
HETATM   28  C   UNK N   1      22.743  15.806   6.278  0.00  0.00     0.027 C 
ENDBRANCH   1  24
BRANCH  10  29
HETATM   29  N   UNK N   1      27.899  19.918   3.687  0.00  0.00    -0.385 N 
HETATM   30  H   UNK N   1      28.528  19.183   3.871  0.00  0.00     0.157 HD
HETATM   31  H   UNK N   1      28.248  20.815   3.478  0.00  0.00     0.157 HD
ENDBRANCH  10  29
TORSDOF 3
ENDMDL
MODEL 9
REMARK VINA RESULT:      -6.7      7.953     11.418
REMARK  3 active torsions:
REMARK  status: ('A' for Active; 'I' for Inactive)
REMARK    1  A    between atoms: C_5  and  N_6 
REMARK    2  A    between atoms: C_15  and  N_16 
REMARK    3  A    between atoms: C_18  and  C_19 
ROOT
HETATM    1  N   UNK N   1      35.127  10.678  16.173  0.00  0.00    -0.270 N 
HETATM    2  N   UNK N   1      34.887   9.699  17.043  0.00  0.00    -0.295 N 
ATOM      3  HN  UNK N   1      34.743   8.717  16.812  1.00  0.00     0.187 HD
HETATM    4  C   UNK N   1      35.276  11.825  16.851  0.00  0.00     0.140 A 
HETATM    5  N   UNK N   1      35.510  13.052  16.327  0.00  0.00    -0.337 N 
ATOM      6  HN  UNK N   1      35.603  13.181  15.319  1.00  0.00     0.168 HD
HETATM    7  C   UNK N   1      35.618  14.110  17.181  0.00  0.00     0.183 A 
HETATM    8  N   UNK N   1      35.494  13.927  18.531  0.00  0.00    -0.338 N 
ATOM      9  HN  UNK N   1      35.589  14.729  19.154  1.00  0.00     0.168 HD
HETATM   10  C   UNK N   1      35.248  12.695  19.063  0.00  0.00     0.116 A 
HETATM   11  C   UNK N   1      35.128  11.607  18.187  0.00  0.00     0.082 A 
HETATM   12  C   UNK N   1      34.865  10.234  18.292  0.00  0.00     0.077 A 
ENDROOT
BRANCH  12  13
HETATM   13  C   UNK N   1      34.493   9.440  19.483  0.00  0.00     0.009 A 
HETATM   14  C   UNK N   1      33.163   9.030  19.680  0.00  0.00     0.030 A 
HETATM   15  C   UNK N   1      32.892   8.175  20.732  0.00  0.00     0.010 A 
HETATM   16  C   UNK N   1      31.718   7.591  21.136  0.00  0.00     0.032 A 
HETATM   17  C   UNK N   1      33.875   7.751  21.560  0.00  0.00     0.115 A 
HETATM   18  C   UNK N   1      32.068   6.811  22.242  0.00  0.00     0.090 A 
HETATM   19  N   UNK N   1      33.399   6.918  22.495  0.00  0.00    -0.352 N 
HETATM   20  H   UNK N   1      33.907   6.477  23.214  0.00  0.00     0.166 HD
HETATM   21  N   UNK N   1      35.168   8.132  21.409  0.00  0.00    -0.351 N 
HETATM   22  C   UNK N   1      35.495   8.959  20.367  0.00  0.00     0.103 A 
ATOM     23  HN  UNK N   1      35.884   7.808  22.059  1.00  0.00     0.166 HD
ENDBRANCH  12  13
BRANCH   1  24
HETATM   24  C   UNK N   1      35.128  10.530  14.718  0.00  0.00     0.110 C 
HETATM   25  C   UNK N   1      33.778  10.768  14.084  0.00  0.00     0.027 C 
HETATM   26  C   UNK N   1      33.905  10.123  12.718  0.00  0.00     0.002 C 
HETATM   27  C   UNK N   1      35.020   9.088  12.834  0.00  0.00     0.002 C 
HETATM   28  C   UNK N   1      35.508   9.142  14.270  0.00  0.00     0.027 C 
ENDBRANCH   1  24
BRANCH  10  29
HETATM   29  N   UNK N   1      35.151  12.552  20.460  0.00  0.00    -0.385 N 
HETATM   30  H   UNK N   1      34.652  11.802  20.859  0.00  0.00     0.157 HD
HETATM   31  H   UNK N   1      35.588  13.211  21.047  0.00  0.00     0.157 HD
ENDBRANCH  10  29
TORSDOF 3
ENDMDL
