REMARK  5 active torsions:
REMARK  status: ('A' for Active; 'I' for Inactive)
REMARK    1  A    between atoms: C_4  and  N_5 
REMARK    2  A    between atoms: C_14  and  N_15 
REMARK    3  A    between atoms: C_17  and  C_18 
REMARK    4  A    between atoms: C_22  and  O_23 
REMARK    5  A    between atoms: C_25  and  O_26 
ROOT
HETATM    1  N   UNK N   1      -0.359   2.660   0.376  0.00  0.00    -0.270 N 
HETATM    2  N   UNK N   1      -1.100   1.561   0.282  0.00  0.00    -0.295 N 
ATOM      3  HN  UNK N   1      -2.119   1.523   0.326  1.00  0.00     0.187 HD
HETATM    4  C   UNK N   1       0.933   2.318   0.275  0.00  0.00     0.140 A 
HETATM    5  N   UNK N   1       1.994   3.155   0.337  0.00  0.00    -0.337 N 
ATOM      6  HN  UNK N   1       1.861   4.158   0.468  1.00  0.00     0.168 HD
HETATM    7  C   UNK N   1       3.244   2.627   0.219  0.00  0.00     0.183 A 
HETATM    8  N   UNK N   1       3.411   1.280   0.046  0.00  0.00    -0.338 N 
ATOM      9  HN  UNK N   1       4.355   0.903  -0.041  1.00  0.00     0.168 HD
HETATM   10  C   UNK N   1       2.346   0.429  -0.012  0.00  0.00     0.116 A 
HETATM   11  C   UNK N   1       1.053   0.969   0.107  0.00  0.00     0.082 A 
HETATM   12  C   UNK N   1      -0.270   0.494   0.117  0.00  0.00     0.076 A 
ENDROOT
BRANCH  12  13
HETATM   13  C   UNK N   1      -0.782  -0.899   0.018  0.00  0.00    -0.004 A 
HETATM   14  C   UNK N   1       0.084  -1.985  -0.096  0.00  0.00     0.053 A 
HETATM   15  C   UNK N   1      -0.387  -3.307  -0.158  0.00  0.00     0.102 A 
HETATM   16  C   UNK N   1      -1.785  -3.544  -0.102  0.00  0.00     0.101 A 
HETATM   17  C   UNK N   1      -2.652  -2.450   0.012  0.00  0.00     0.040 A 
HETATM   18  C   UNK N   1      -2.159  -1.143   0.074  0.00  0.00     0.017 A 
BRANCH  15  19
HETATM   19  O   UNK N   1       0.488  -4.339  -0.261  0.00  0.00    -0.353 OA
HETATM   20  C   UNK N   1       1.855  -4.178  -0.291  0.00  0.00     0.210 C 
ENDBRANCH  15  19
BRANCH  16  21
HETATM   21  O   UNK N   1      -2.337  -4.786  -0.153  0.00  0.00    -0.353 OA
HETATM   22  C   UNK N   1      -1.641  -5.967  -0.281  0.00  0.00     0.210 C 
ENDBRANCH  16  21
ENDBRANCH  12  13
BRANCH   1  23
HETATM   23  C   UNK N   1      -0.868   4.014   0.618  0.00  0.00     0.110 A 
HETATM   24  C   UNK N   1      -2.348   4.143   0.310  0.00  0.00     0.027 A 
HETATM   25  C   UNK N   1      -2.023   5.095  -0.826  0.00  0.00     0.004 A 
HETATM   26  C   UNK N   1      -0.543   4.944  -0.535  0.00  0.00     0.027 A 
ENDBRANCH   1  23
BRANCH  10  27
HETATM   27  N   UNK N   1       2.578  -0.946  -0.186  0.00  0.00    -0.385 N 
HETATM   28  H   UNK N   1       1.825  -1.569  -0.309  0.00  0.00     0.157 HD
HETATM   29  H   UNK N   1       3.501  -1.290  -0.186  0.00  0.00     0.157 HD
ENDBRANCH  10  27
TORSDOF 5
