MODEL 1
REMARK VINA RESULT:      -6.6      0.000      0.000
REMARK  5 active torsions:
REMARK  status: ('A' for Active; 'I' for Inactive)
REMARK    1  A    between atoms: C_4  and  N_5 
REMARK    2  A    between atoms: C_14  and  N_15 
REMARK    3  A    between atoms: C_17  and  C_18 
REMARK    4  A    between atoms: C_22  and  O_23 
REMARK    5  A    between atoms: C_25  and  O_26 
ROOT
HETATM    1  N   UNK N   1      23.413  19.611   3.854  0.00  0.00    -0.270 N 
HETATM    2  N   UNK N   1      23.307  18.671   4.787  0.00  0.00    -0.295 N 
ATOM      3  HN  UNK N   1      24.012  18.445   5.490  1.00  0.00     0.187 HD
HETATM    4  C   UNK N   1      22.294  19.614   3.117  0.00  0.00     0.140 A 
HETATM    5  N   UNK N   1      22.027  20.418   2.062  0.00  0.00    -0.337 N 
ATOM      6  HN  UNK N   1      22.705  21.115   1.752  1.00  0.00     0.168 HD
HETATM    7  C   UNK N   1      20.832  20.276   1.425  0.00  0.00     0.183 A 
HETATM    8  N   UNK N   1      19.931  19.337   1.848  0.00  0.00    -0.338 N 
ATOM      9  HN  UNK N   1      19.040  19.246   1.358  1.00  0.00     0.168 HD
HETATM   10  C   UNK N   1      20.195  18.519   2.907  0.00  0.00     0.116 A 
HETATM   11  C   UNK N   1      21.427  18.662   3.570  0.00  0.00     0.082 A 
HETATM   12  C   UNK N   1      22.098  18.059   4.648  0.00  0.00     0.076 A 
ENDROOT
BRANCH  12  13
HETATM   13  C   UNK N   1      21.679  16.927   5.517  0.00  0.00    -0.004 A 
HETATM   14  C   UNK N   1      21.078  17.146   6.755  0.00  0.00     0.053 A 
HETATM   15  C   UNK N   1      20.649  16.085   7.570  0.00  0.00     0.102 A 
HETATM   16  C   UNK N   1      20.832  14.752   7.119  0.00  0.00     0.101 A 
HETATM   17  C   UNK N   1      21.438  14.536   5.875  0.00  0.00     0.040 A 
HETATM   18  C   UNK N   1      21.854  15.609   5.081  0.00  0.00     0.017 A 
BRANCH  15  19
HETATM   19  O   UNK N   1      20.060  16.337   8.766  0.00  0.00    -0.353 OA
HETATM   20  C   UNK N   1      19.188  17.381   8.980  0.00  0.00     0.210 C 
ENDBRANCH  15  19
BRANCH  16  21
HETATM   21  O   UNK N   1      20.450  13.659   7.834  0.00  0.00    -0.353 OA
HETATM   22  C   UNK N   1      21.261  12.925   8.670  0.00  0.00     0.210 C 
ENDBRANCH  16  21
ENDBRANCH  12  13
BRANCH   1  23
HETATM   23  C   UNK N   1      24.588  20.458   3.627  0.00  0.00     0.110 A 
HETATM   24  C   UNK N   1      25.563  19.848   2.637  0.00  0.00     0.027 A 
HETATM   25  C   UNK N   1      26.594  19.716   3.742  0.00  0.00     0.004 A 
HETATM   26  C   UNK N   1      25.610  20.301   4.736  0.00  0.00     0.027 A 
ENDBRANCH   1  23
BRANCH  10  27
HETATM   27  N   UNK N   1      19.234  17.569   3.293  0.00  0.00    -0.385 N 
HETATM   28  H   UNK N   1      19.066  17.386   4.247  0.00  0.00     0.157 HD
HETATM   29  H   UNK N   1      18.724  17.082   2.606  0.00  0.00     0.157 HD
ENDBRANCH  10  27
TORSDOF 5
ENDMDL
MODEL 2
REMARK VINA RESULT:      -6.5      6.662      9.896
REMARK  5 active torsions:
REMARK  status: ('A' for Active; 'I' for Inactive)
REMARK    1  A    between atoms: C_4  and  N_5 
REMARK    2  A    between atoms: C_14  and  N_15 
REMARK    3  A    between atoms: C_17  and  C_18 
REMARK    4  A    between atoms: C_22  and  O_23 
REMARK    5  A    between atoms: C_25  and  O_26 
ROOT
HETATM    1  N   UNK N   1      27.916  18.987   5.448  0.00  0.00    -0.270 N 
HETATM    2  N   UNK N   1      28.744  18.491   4.535  0.00  0.00    -0.295 N 
ATOM      3  HN  UNK N   1      28.697  18.663   3.530  1.00  0.00     0.187 HD
HETATM    4  C   UNK N   1      28.290  18.542   6.656  0.00  0.00     0.140 A 
HETATM    5  N   UNK N   1      27.688  18.815   7.836  0.00  0.00    -0.337 N 
ATOM      6  HN  UNK N   1      26.866  19.418   7.875  1.00  0.00     0.168 HD
HETATM    7  C   UNK N   1      28.206  18.268   8.970  0.00  0.00     0.183 A 
HETATM    8  N   UNK N   1      29.308  17.459   8.906  0.00  0.00    -0.338 N 
ATOM      9  HN  UNK N   1      29.682  17.058   9.766  1.00  0.00     0.168 HD
HETATM   10  C   UNK N   1      29.917  17.174   7.718  0.00  0.00     0.116 A 
HETATM   11  C   UNK N   1      29.388  17.738   6.544  0.00  0.00     0.082 A 
HETATM   12  C   UNK N   1      29.667  17.713   5.167  0.00  0.00     0.076 A 
ENDROOT
BRANCH  12  13
HETATM   13  C   UNK N   1      30.721  16.973   4.423  0.00  0.00    -0.004 A 
HETATM   14  C   UNK N   1      30.496  15.690   3.928  0.00  0.00     0.053 A 
HETATM   15  C   UNK N   1      31.473  14.994   3.196  0.00  0.00     0.102 A 
HETATM   16  C   UNK N   1      32.725  15.616   2.953  0.00  0.00     0.101 A 
HETATM   17  C   UNK N   1      32.947  16.906   3.452  0.00  0.00     0.040 A 
HETATM   18  C   UNK N   1      31.958  17.579   4.176  0.00  0.00     0.017 A 
BRANCH  15  19
HETATM   19  O   UNK N   1      31.214  13.749   2.724  0.00  0.00    -0.353 OA
HETATM   20  C   UNK N   1      29.943  13.258   2.527  0.00  0.00     0.210 C 
ENDBRANCH  15  19
BRANCH  16  21
HETATM   21  O   UNK N   1      33.732  15.026   2.255  0.00  0.00    -0.353 OA
HETATM   22  C   UNK N   1      34.630  14.114   2.761  0.00  0.00     0.210 C 
ENDBRANCH  16  21
ENDBRANCH  12  13
BRANCH   1  23
HETATM   23  C   UNK N   1      26.747  19.829   5.172  0.00  0.00     0.110 A 
HETATM   24  C   UNK N   1      25.508  19.015   4.849  0.00  0.00     0.027 A 
HETATM   25  C   UNK N   1      25.516  19.572   3.438  0.00  0.00     0.004 A 
HETATM   26  C   UNK N   1      26.770  20.364   3.753  0.00  0.00     0.027 A 
ENDBRANCH   1  23
BRANCH  10  27
HETATM   27  N   UNK N   1      31.042  16.332   7.712  0.00  0.00    -0.385 N 
HETATM   28  H   UNK N   1      31.141  15.623   8.388  0.00  0.00     0.157 HD
HETATM   29  H   UNK N   1      31.738  16.451   7.025  0.00  0.00     0.157 HD
ENDBRANCH  10  27
TORSDOF 5
ENDMDL
MODEL 3
REMARK VINA RESULT:      -6.3      8.045     10.658
REMARK  5 active torsions:
REMARK  status: ('A' for Active; 'I' for Inactive)
REMARK    1  A    between atoms: C_4  and  N_5 
REMARK    2  A    between atoms: C_14  and  N_15 
REMARK    3  A    between atoms: C_17  and  C_18 
REMARK    4  A    between atoms: C_22  and  O_23 
REMARK    5  A    between atoms: C_25  and  O_26 
ROOT
HETATM    1  N   UNK N   1      28.954  18.025   5.897  0.00  0.00    -0.270 N 
HETATM    2  N   UNK N   1      29.802  17.937   6.916  0.00  0.00    -0.295 N 
ATOM      3  HN  UNK N   1      29.682  18.373   7.831  1.00  0.00     0.187 HD
HETATM    4  C   UNK N   1      29.447  17.325   4.865  0.00  0.00     0.140 A 
HETATM    5  N   UNK N   1      28.881  17.185   3.644  0.00  0.00    -0.337 N 
ATOM      6  HN  UNK N   1      27.988  17.629   3.429  1.00  0.00     0.168 HD
HETATM    7  C   UNK N   1      29.530  16.436   2.711  0.00  0.00     0.183 A 
HETATM    8  N   UNK N   1      30.729  15.847   3.010  0.00  0.00    -0.338 N 
ATOM      9  HN  UNK N   1      31.200  15.289   2.298  1.00  0.00     0.168 HD
HETATM   10  C   UNK N   1      31.308  15.989   4.237  0.00  0.00     0.116 A 
HETATM   11  C   UNK N   1      30.641  16.759   5.206  0.00  0.00     0.082 A 
HETATM   12  C   UNK N   1      30.858  17.167   6.533  0.00  0.00     0.076 A 
ENDROOT
BRANCH  12  13
HETATM   13  C   UNK N   1      32.011  16.902   7.434  0.00  0.00    -0.004 A 
HETATM   14  C   UNK N   1      32.187  15.661   8.044  0.00  0.00     0.053 A 
HETATM   15  C   UNK N   1      33.290  15.390   8.871  0.00  0.00     0.102 A 
HETATM   16  C   UNK N   1      34.253  16.408   9.091  0.00  0.00     0.101 A 
HETATM   17  C   UNK N   1      34.073  17.653   8.477  0.00  0.00     0.040 A 
HETATM   18  C   UNK N   1      32.968  17.899   7.656  0.00  0.00     0.017 A 
BRANCH  15  19
HETATM   19  O   UNK N   1      33.430  14.166   9.441  0.00  0.00    -0.353 OA
HETATM   20  C   UNK N   1      33.782  13.035   8.739  0.00  0.00     0.210 C 
ENDBRANCH  15  19
BRANCH  16  21
HETATM   21  O   UNK N   1      35.354  16.241   9.872  0.00  0.00    -0.353 OA
HETATM   22  C   UNK N   1      35.407  16.439  11.234  0.00  0.00     0.210 C 
ENDBRANCH  16  21
ENDBRANCH  12  13
BRANCH   1  23
HETATM   23  C   UNK N   1      27.717  18.813   5.881  0.00  0.00     0.110 A 
HETATM   24  C   UNK N   1      27.813  20.030   4.980  0.00  0.00     0.027 A 
HETATM   25  C   UNK N   1      27.687  20.932   6.193  0.00  0.00     0.004 A 
HETATM   26  C   UNK N   1      27.618  19.716   7.096  0.00  0.00     0.027 A 
ENDBRANCH   1  23
BRANCH  10  27
HETATM   27  N   UNK N   1      32.543  15.365   4.486  0.00  0.00    -0.385 N 
HETATM   28  H   UNK N   1      33.067  15.595   5.288  0.00  0.00     0.157 HD
HETATM   29  H   UNK N   1      32.887  14.693   3.854  0.00  0.00     0.157 HD
ENDBRANCH  10  27
TORSDOF 5
ENDMDL
MODEL 4
REMARK VINA RESULT:      -6.3      5.630      8.720
REMARK  5 active torsions:
REMARK  status: ('A' for Active; 'I' for Inactive)
REMARK    1  A    between atoms: C_4  and  N_5 
REMARK    2  A    between atoms: C_14  and  N_15 
REMARK    3  A    between atoms: C_17  and  C_18 
REMARK    4  A    between atoms: C_22  and  O_23 
REMARK    5  A    between atoms: C_25  and  O_26 
ROOT
HETATM    1  N   UNK N   1      31.171  17.208   5.287  0.00  0.00    -0.270 N 
HETATM    2  N   UNK N   1      30.148  17.725   4.615  0.00  0.00    -0.295 N 
ATOM      3  HN  UNK N   1      30.118  17.892   3.609  1.00  0.00     0.187 HD
HETATM    4  C   UNK N   1      30.844  17.142   6.585  0.00  0.00     0.140 A 
HETATM    5  N   UNK N   1      31.628  16.686   7.589  0.00  0.00    -0.337 N 
ATOM      6  HN  UNK N   1      32.569  16.340   7.402  1.00  0.00     0.168 HD
HETATM    7  C   UNK N   1      31.129  16.697   8.857  0.00  0.00     0.183 A 
HETATM    8  N   UNK N   1      29.865  17.165   9.097  0.00  0.00    -0.338 N 
ATOM      9  HN  UNK N   1      29.509  17.165  10.053  1.00  0.00     0.168 HD
HETATM   10  C   UNK N   1      29.072  17.631   8.090  0.00  0.00     0.116 A 
HETATM   11  C   UNK N   1      29.581  17.620   6.779  0.00  0.00     0.082 A 
HETATM   12  C   UNK N   1      29.146  17.996   5.497  0.00  0.00     0.076 A 
ENDROOT
BRANCH  12  13
HETATM   13  C   UNK N   1      27.866  18.623   5.072  0.00  0.00    -0.004 A 
HETATM   14  C   UNK N   1      26.680  17.893   5.022  0.00  0.00     0.053 A 
HETATM   15  C   UNK N   1      25.460  18.483   4.653  0.00  0.00     0.102 A 
HETATM   16  C   UNK N   1      25.433  19.862   4.322  0.00  0.00     0.101 A 
HETATM   17  C   UNK N   1      26.627  20.593   4.373  0.00  0.00     0.040 A 
HETATM   18  C   UNK N   1      27.829  19.984   4.745  0.00  0.00     0.017 A 
BRANCH  15  19
HETATM   19  O   UNK N   1      24.324  17.740   4.624  0.00  0.00    -0.353 OA
HETATM   20  C   UNK N   1      24.194  16.577   3.899  0.00  0.00     0.210 C 
ENDBRANCH  15  19
BRANCH  16  21
HETATM   21  O   UNK N   1      24.302  20.523   3.955  0.00  0.00    -0.353 OA
HETATM   22  C   UNK N   1      23.803  20.606   2.675  0.00  0.00     0.210 C 
ENDBRANCH  16  21
ENDBRANCH  12  13
BRANCH   1  23
HETATM   23  C   UNK N   1      32.468  16.834   4.712  0.00  0.00     0.110 A 
HETATM   24  C   UNK N   1      32.535  17.086   3.217  0.00  0.00     0.027 A 
HETATM   25  C   UNK N   1      32.653  15.592   2.977  0.00  0.00     0.004 A 
HETATM   26  C   UNK N   1      32.557  15.340   4.469  0.00  0.00     0.027 A 
ENDBRANCH   1  23
BRANCH  10  27
HETATM   27  N   UNK N   1      27.785  18.104   8.397  0.00  0.00    -0.385 N 
HETATM   28  H   UNK N   1      27.642  18.704   9.165  0.00  0.00     0.157 HD
HETATM   29  H   UNK N   1      27.019  17.835   7.840  0.00  0.00     0.157 HD
ENDBRANCH  10  27
TORSDOF 5
ENDMDL
MODEL 5
REMARK VINA RESULT:      -6.2      7.226      9.988
REMARK  5 active torsions:
REMARK  status: ('A' for Active; 'I' for Inactive)
REMARK    1  A    between atoms: C_4  and  N_5 
REMARK    2  A    between atoms: C_14  and  N_15 
REMARK    3  A    between atoms: C_17  and  C_18 
REMARK    4  A    between atoms: C_22  and  O_23 
REMARK    5  A    between atoms: C_25  and  O_26 
ROOT
HETATM    1  N   UNK N   1      27.951  17.768   4.511  0.00  0.00    -0.270 N 
HETATM    2  N   UNK N   1      28.936  18.191   5.296  0.00  0.00    -0.295 N 
ATOM      3  HN  UNK N   1      29.095  19.156   5.586  1.00  0.00     0.187 HD
HETATM    4  C   UNK N   1      28.067  16.442   4.351  0.00  0.00     0.140 A 
HETATM    5  N   UNK N   1      27.261  15.648   3.610  0.00  0.00    -0.337 N 
ATOM      6  HN  UNK N   1      26.466  16.038   3.103  1.00  0.00     0.168 HD
HETATM    7  C   UNK N   1      27.535  14.314   3.558  0.00  0.00     0.183 A 
HETATM    8  N   UNK N   1      28.605  13.802   4.239  0.00  0.00    -0.338 N 
ATOM      9  HN  UNK N   1      28.794  12.801   4.189  1.00  0.00     0.168 HD
HETATM   10  C   UNK N   1      29.426  14.598   4.984  0.00  0.00     0.116 A 
HETATM   11  C   UNK N   1      29.146  15.975   5.044  0.00  0.00     0.082 A 
HETATM   12  C   UNK N   1      29.699  17.119   5.646  0.00  0.00     0.076 A 
ENDROOT
BRANCH  12  13
HETATM   13  C   UNK N   1      30.915  17.255   6.493  0.00  0.00    -0.004 A 
HETATM   14  C   UNK N   1      32.188  17.010   5.981  0.00  0.00     0.053 A 
HETATM   15  C   UNK N   1      33.345  17.166   6.762  0.00  0.00     0.102 A 
HETATM   16  C   UNK N   1      33.214  17.587   8.111  0.00  0.00     0.101 A 
HETATM   17  C   UNK N   1      31.933  17.832   8.622  0.00  0.00     0.040 A 
HETATM   18  C   UNK N   1      30.796  17.671   7.824  0.00  0.00     0.017 A 
BRANCH  15  19
HETATM   19  O   UNK N   1      34.568  16.925   6.226  0.00  0.00    -0.353 OA
HETATM   20  C   UNK N   1      35.022  15.667   5.902  0.00  0.00     0.210 C 
ENDBRANCH  15  19
BRANCH  16  21
HETATM   21  O   UNK N   1      34.273  17.768   8.945  0.00  0.00    -0.353 OA
HETATM   22  C   UNK N   1      34.866  16.790   9.710  0.00  0.00     0.210 C 
ENDBRANCH  16  21
ENDBRANCH  12  13
BRANCH   1  23
HETATM   23  C   UNK N   1      26.943  18.620   3.873  0.00  0.00     0.110 A 
HETATM   24  C   UNK N   1      27.248  20.099   4.028  0.00  0.00     0.027 A 
HETATM   25  C   UNK N   1      26.003  20.261   4.880  0.00  0.00     0.004 A 
HETATM   26  C   UNK N   1      25.714  18.779   4.747  0.00  0.00     0.027 A 
ENDBRANCH   1  23
BRANCH  10  27
HETATM   27  N   UNK N   1      30.513  14.018   5.659  0.00  0.00    -0.385 N 
HETATM   28  H   UNK N   1      30.407  13.672   6.575  0.00  0.00     0.157 HD
HETATM   29  H   UNK N   1      31.389  13.955   5.213  0.00  0.00     0.157 HD
ENDBRANCH  10  27
TORSDOF 5
ENDMDL
MODEL 6
REMARK VINA RESULT:      -6.1      4.879      7.634
REMARK  5 active torsions:
REMARK  status: ('A' for Active; 'I' for Inactive)
REMARK    1  A    between atoms: C_4  and  N_5 
REMARK    2  A    between atoms: C_14  and  N_15 
REMARK    3  A    between atoms: C_17  and  C_18 
REMARK    4  A    between atoms: C_22  and  O_23 
REMARK    5  A    between atoms: C_25  and  O_26 
ROOT
HETATM    1  N   UNK N   1      24.554  17.467   4.937  0.00  0.00    -0.270 N 
HETATM    2  N   UNK N   1      25.518  16.963   5.700  0.00  0.00    -0.295 N 
ATOM      3  HN  UNK N   1      25.429  16.156   6.319  1.00  0.00     0.187 HD
HETATM    4  C   UNK N   1      25.042  18.521   4.268  0.00  0.00     0.140 A 
HETATM    5  N   UNK N   1      24.364  19.307   3.401  0.00  0.00    -0.337 N 
ATOM      6  HN  UNK N   1      23.381  19.128   3.192  1.00  0.00     0.168 HD
HETATM    7  C   UNK N   1      25.024  20.343   2.813  0.00  0.00     0.183 A 
HETATM    8  N   UNK N   1      26.341  20.576   3.102  0.00  0.00    -0.338 N 
ATOM      9  HN  UNK N   1      26.819  21.356   2.651  1.00  0.00     0.168 HD
HETATM   10  C   UNK N   1      27.030  19.790   3.979  0.00  0.00     0.116 A 
HETATM   11  C   UNK N   1      26.354  18.718   4.587  0.00  0.00     0.082 A 
HETATM   12  C   UNK N   1      26.646  17.704   5.517  0.00  0.00     0.076 A 
ENDROOT
BRANCH  12  13
HETATM   13  C   UNK N   1      27.905  17.427   6.259  0.00  0.00    -0.004 A 
HETATM   14  C   UNK N   1      28.820  16.478   5.807  0.00  0.00     0.053 A 
HETATM   15  C   UNK N   1      30.027  16.231   6.482  0.00  0.00     0.102 A 
HETATM   16  C   UNK N   1      30.324  16.968   7.657  0.00  0.00     0.101 A 
HETATM   17  C   UNK N   1      29.401  17.920   8.108  0.00  0.00     0.040 A 
HETATM   18  C   UNK N   1      28.207  18.150   7.418  0.00  0.00     0.017 A 
BRANCH  15  19
HETATM   19  O   UNK N   1      30.897  15.304   6.006  0.00  0.00    -0.353 OA
HETATM   20  C   UNK N   1      31.861  15.579   5.061  0.00  0.00     0.210 C 
ENDBRANCH  15  19
BRANCH  16  21
HETATM   21  O   UNK N   1      31.465  16.802   8.378  0.00  0.00    -0.353 OA
HETATM   22  C   UNK N   1      32.546  17.655   8.374  0.00  0.00     0.210 C 
ENDBRANCH  16  21
ENDBRANCH  12  13
BRANCH   1  23
HETATM   23  C   UNK N   1      23.168  16.991   4.888  0.00  0.00     0.110 A 
HETATM   24  C   UNK N   1      22.259  17.748   5.839  0.00  0.00     0.027 A 
HETATM   25  C   UNK N   1      22.054  16.479   6.645  0.00  0.00     0.004 A 
HETATM   26  C   UNK N   1      22.984  15.730   5.711  0.00  0.00     0.027 A 
ENDBRANCH   1  23
BRANCH  10  27
HETATM   27  N   UNK N   1      28.380  20.080   4.241  0.00  0.00    -0.385 N 
HETATM   28  H   UNK N   1      28.733  20.989   4.105  0.00  0.00     0.157 HD
HETATM   29  H   UNK N   1      28.979  19.367   4.564  0.00  0.00     0.157 HD
ENDBRANCH  10  27
TORSDOF 5
ENDMDL
MODEL 7
REMARK VINA RESULT:      -6.1     12.748     14.388
REMARK  5 active torsions:
REMARK  status: ('A' for Active; 'I' for Inactive)
REMARK    1  A    between atoms: C_4  and  N_5 
REMARK    2  A    between atoms: C_14  and  N_15 
REMARK    3  A    between atoms: C_17  and  C_18 
REMARK    4  A    between atoms: C_22  and  O_23 
REMARK    5  A    between atoms: C_25  and  O_26 
ROOT
HETATM    1  N   UNK N   1      26.576  26.129  -5.203  0.00  0.00    -0.270 N 
HETATM    2  N   UNK N   1      27.550  25.728  -4.394  0.00  0.00    -0.295 N 
ATOM      3  HN  UNK N   1      27.878  26.222  -3.563  1.00  0.00     0.187 HD
HETATM    4  C   UNK N   1      26.429  25.226  -6.181  0.00  0.00     0.140 A 
HETATM    5  N   UNK N   1      25.548  25.286  -7.206  0.00  0.00    -0.337 N 
ATOM      6  HN  UNK N   1      24.902  26.071  -7.295  1.00  0.00     0.168 HD
HETATM    7  C   UNK N   1      25.543  24.273  -8.117  0.00  0.00     0.183 A 
HETATM    8  N   UNK N   1      26.415  23.226  -7.991  0.00  0.00    -0.338 N 
ATOM      9  HN  UNK N   1      26.396  22.476  -8.682  1.00  0.00     0.168 HD
HETATM   10  C   UNK N   1      27.310  23.161  -6.963  0.00  0.00     0.116 A 
HETATM   11  C   UNK N   1      27.318  24.203  -6.018  0.00  0.00     0.082 A 
HETATM   12  C   UNK N   1      28.038  24.545  -4.860  0.00  0.00     0.076 A 
ENDROOT
BRANCH  12  13
HETATM   13  C   UNK N   1      29.171  23.841  -4.201  0.00  0.00    -0.004 A 
HETATM   14  C   UNK N   1      30.453  23.861  -4.746  0.00  0.00     0.053 A 
HETATM   15  C   UNK N   1      31.537  23.227  -4.116  0.00  0.00     0.102 A 
HETATM   16  C   UNK N   1      31.320  22.547  -2.889  0.00  0.00     0.101 A 
HETATM   17  C   UNK N   1      30.030  22.529  -2.346  0.00  0.00     0.040 A 
HETATM   18  C   UNK N   1      28.967  23.169  -2.991  0.00  0.00     0.017 A 
BRANCH  15  19
HETATM   19  O   UNK N   1      32.774  23.275  -4.673  0.00  0.00    -0.353 OA
HETATM   20  C   UNK N   1      33.345  24.429  -5.159  0.00  0.00     0.210 C 
ENDBRANCH  15  19
BRANCH  16  21
HETATM   21  O   UNK N   1      32.304  21.905  -2.204  0.00  0.00    -0.353 OA
HETATM   22  C   UNK N   1      33.168  20.971  -2.730  0.00  0.00     0.210 C 
ENDBRANCH  16  21
ENDBRANCH  12  13
BRANCH   1  23
HETATM   23  C   UNK N   1      25.831  27.387  -5.082  0.00  0.00     0.110 A 
HETATM   24  C   UNK N   1      26.702  28.605  -5.329  0.00  0.00     0.027 A 
HETATM   25  C   UNK N   1      26.510  29.028  -3.884  0.00  0.00     0.004 A 
HETATM   26  C   UNK N   1      25.663  27.796  -3.632  0.00  0.00     0.027 A 
ENDBRANCH   1  23
BRANCH  10  27
HETATM   27  N   UNK N   1      28.185  22.065  -6.886  0.00  0.00    -0.385 N 
HETATM   28  H   UNK N   1      28.818  21.878  -7.617  0.00  0.00     0.157 HD
HETATM   29  H   UNK N   1      28.166  21.478  -6.095  0.00  0.00     0.157 HD
ENDBRANCH  10  27
TORSDOF 5
ENDMDL
MODEL 8
REMARK VINA RESULT:      -6.1     11.754     14.654
REMARK  5 active torsions:
REMARK  status: ('A' for Active; 'I' for Inactive)
REMARK    1  A    between atoms: C_4  and  N_5 
REMARK    2  A    between atoms: C_14  and  N_15 
REMARK    3  A    between atoms: C_17  and  C_18 
REMARK    4  A    between atoms: C_22  and  O_23 
REMARK    5  A    between atoms: C_25  and  O_26 
ROOT
HETATM    1  N   UNK N   1      34.589  12.125  10.667  0.00  0.00    -0.270 N 
HETATM    2  N   UNK N   1      33.880  12.629   9.663  0.00  0.00    -0.295 N 
ATOM      3  HN  UNK N   1      33.347  12.090   8.979  1.00  0.00     0.187 HD
HETATM    4  C   UNK N   1      35.147  13.134  11.350  0.00  0.00     0.140 A 
HETATM    5  N   UNK N   1      35.952  13.025  12.432  0.00  0.00    -0.337 N 
ATOM      6  HN  UNK N   1      36.191  12.110  12.815  1.00  0.00     0.168 HD
HETATM    7  C   UNK N   1      36.436  14.166  12.997  0.00  0.00     0.183 A 
HETATM    8  N   UNK N   1      36.111  15.388  12.473  0.00  0.00    -0.338 N 
ATOM      9  HN  UNK N   1      36.483  16.231  12.910  1.00  0.00     0.168 HD
HETATM   10  C   UNK N   1      35.305  15.505  11.379  0.00  0.00     0.116 A 
HETATM   11  C   UNK N   1      34.801  14.330  10.792  0.00  0.00     0.082 A 
HETATM   12  C   UNK N   1      33.984  13.986   9.701  0.00  0.00     0.076 A 
ENDROOT
BRANCH  12  13
HETATM   13  C   UNK N   1      33.337  14.858   8.684  0.00  0.00    -0.004 A 
HETATM   14  C   UNK N   1      32.169  15.564   8.970  0.00  0.00     0.053 A 
HETATM   15  C   UNK N   1      31.567  16.415   8.028  0.00  0.00     0.102 A 
HETATM   16  C   UNK N   1      32.165  16.562   6.750  0.00  0.00     0.101 A 
HETATM   17  C   UNK N   1      33.338  15.851   6.467  0.00  0.00     0.040 A 
HETATM   18  C   UNK N   1      33.920  15.011   7.421  0.00  0.00     0.017 A 
BRANCH  15  19
HETATM   19  O   UNK N   1      30.434  17.091   8.346  0.00  0.00    -0.353 OA
HETATM   20  C   UNK N   1      30.430  18.331   8.944  0.00  0.00     0.210 C 
ENDBRANCH  15  19
BRANCH  16  21
HETATM   21  O   UNK N   1      31.659  17.362   5.774  0.00  0.00    -0.353 OA
HETATM   22  C   UNK N   1      32.200  17.535   4.519  0.00  0.00     0.210 C 
ENDBRANCH  16  21
ENDBRANCH  12  13
BRANCH   1  23
HETATM   23  C   UNK N   1      34.782  10.697  10.942  0.00  0.00     0.110 A 
HETATM   24  C   UNK N   1      34.187   9.811   9.864  0.00  0.00     0.027 A 
HETATM   25  C   UNK N   1      33.184   9.273  10.867  0.00  0.00     0.004 A 
HETATM   26  C   UNK N   1      33.761  10.179  11.937  0.00  0.00     0.027 A 
ENDBRANCH   1  23
BRANCH  10  27
HETATM   27  N   UNK N   1      35.009  16.785  10.881  0.00  0.00    -0.385 N 
HETATM   28  H   UNK N   1      35.559  17.184  10.167  0.00  0.00     0.157 HD
HETATM   29  H   UNK N   1      34.246  17.289  11.247  0.00  0.00     0.157 HD
ENDBRANCH  10  27
TORSDOF 5
ENDMDL
MODEL 9
REMARK VINA RESULT:      -6.0      4.145      6.694
REMARK  5 active torsions:
REMARK  status: ('A' for Active; 'I' for Inactive)
REMARK    1  A    between atoms: C_4  and  N_5 
REMARK    2  A    between atoms: C_14  and  N_15 
REMARK    3  A    between atoms: C_17  and  C_18 
REMARK    4  A    between atoms: C_22  and  O_23 
REMARK    5  A    between atoms: C_25  and  O_26 
ROOT
HETATM    1  N   UNK N   1      27.910  17.581   6.132  0.00  0.00    -0.270 N 
HETATM    2  N   UNK N   1      26.949  18.452   5.844  0.00  0.00    -0.295 N 
ATOM      3  HN  UNK N   1      26.727  19.293   6.378  1.00  0.00     0.187 HD
HETATM    4  C   UNK N   1      27.899  16.608   5.210  0.00  0.00     0.140 A 
HETATM    5  N   UNK N   1      28.718  15.531   5.167  0.00  0.00    -0.337 N 
ATOM      6  HN  UNK N   1      29.438  15.394   5.877  1.00  0.00     0.168 HD
HETATM    7  C   UNK N   1      28.559  14.636   4.153  0.00  0.00     0.183 A 
HETATM    8  N   UNK N   1      27.588  14.829   3.208  0.00  0.00    -0.338 N 
ATOM      9  HN  UNK N   1      27.485  14.148   2.455  1.00  0.00     0.168 HD
HETATM   10  C   UNK N   1      26.756  15.909   3.248  0.00  0.00     0.116 A 
HETATM   11  C   UNK N   1      26.917  16.838   4.291  0.00  0.00     0.082 A 
HETATM   12  C   UNK N   1      26.310  18.032   4.717  0.00  0.00     0.076 A 
ENDROOT
BRANCH  12  13
HETATM   13  C   UNK N   1      25.150  18.767   4.145  0.00  0.00    -0.004 A 
HETATM   14  C   UNK N   1      23.839  18.429   4.479  0.00  0.00     0.053 A 
HETATM   15  C   UNK N   1      22.738  19.136   3.970  0.00  0.00     0.102 A 
HETATM   16  C   UNK N   1      22.965  20.227   3.091  0.00  0.00     0.101 A 
HETATM   17  C   UNK N   1      24.283  20.562   2.757  0.00  0.00     0.040 A 
HETATM   18  C   UNK N   1      25.364  19.845   3.279  0.00  0.00     0.017 A 
BRANCH  15  19
HETATM   19  O   UNK N   1      21.477  18.782   4.325  0.00  0.00    -0.353 OA
HETATM   20  C   UNK N   1      21.192  17.870   5.317  0.00  0.00     0.210 C 
ENDBRANCH  15  19
BRANCH  16  21
HETATM   21  O   UNK N   1      21.965  20.972   2.548  0.00  0.00    -0.353 OA
HETATM   22  C   UNK N   1      21.123  20.568   1.537  0.00  0.00     0.210 C 
ENDBRANCH  16  21
ENDBRANCH  12  13
BRANCH   1  23
HETATM   23  C   UNK N   1      28.792  17.639   7.303  0.00  0.00     0.110 A 
HETATM   24  C   UNK N   1      28.194  16.951   8.516  0.00  0.00     0.027 A 
HETATM   25  C   UNK N   1      28.120  18.288   9.230  0.00  0.00     0.004 A 
HETATM   26  C   UNK N   1      28.692  18.978   8.007  0.00  0.00     0.027 A 
ENDBRANCH   1  23
BRANCH  10  27
HETATM   27  N   UNK N   1      25.774  16.053   2.253  0.00  0.00    -0.385 N 
HETATM   28  H   UNK N   1      26.030  16.154   1.307  0.00  0.00     0.157 HD
HETATM   29  H   UNK N   1      24.821  16.052   2.503  0.00  0.00     0.157 HD
ENDBRANCH  10  27
TORSDOF 5
ENDMDL
