REMARK  3 active torsions:
REMARK  status: ('A' for Active; 'I' for Inactive)
REMARK    1  A    between atoms: C_2  and  N_4 
REMARK    2  A    between atoms: C_13  and  N_14 
REMARK    3  A    between atoms: C_16  and  C_17 
ROOT
HETATM    1  N   UNK N   1      -2.642   0.400  -0.169  0.00  0.00    -0.271 N 
HETATM    2  N   UNK N   1      -1.728  -0.564  -0.109  0.00  0.00    -0.295 N 
ATOM      3  HN  UNK N   1      -1.918  -1.566  -0.113  1.00  0.00     0.187 HD
HETATM    4  C   UNK N   1      -2.014   1.585  -0.140  0.00  0.00     0.140 A 
HETATM    5  N   UNK N   1      -2.596   2.807  -0.186  0.00  0.00    -0.337 N 
ATOM      6  HN  UNK N   1      -3.610   2.901  -0.257  1.00  0.00     0.168 HD
HETATM    7  C   UNK N   1      -1.795   3.908  -0.135  0.00  0.00     0.183 A 
HETATM    8  N   UNK N   1      -0.437   3.772  -0.040  0.00  0.00    -0.338 N 
ATOM      9  HN  UNK N   1       0.146   4.608   0.001  1.00  0.00     0.168 HD
HETATM   10  C   UNK N   1       0.157   2.543   0.002  0.00  0.00     0.116 A 
HETATM   11  C   UNK N   1      -0.664   1.405  -0.051  0.00  0.00     0.082 A 
HETATM   12  C   UNK N   1      -0.496   0.010  -0.041  0.00  0.00     0.076 A 
ENDROOT
BRANCH  12  13
HETATM   13  C   UNK N   1       0.744  -0.807   0.001  0.00  0.00    -0.006 A 
HETATM   14  C   UNK N   1       2.013  -0.220   0.012  0.00  0.00     0.027 A 
HETATM   15  C   UNK N   1       3.165  -1.007   0.018  0.00  0.00    -0.009 A 
HETATM   16  C   UNK N   1       4.428  -0.416   0.025  0.00  0.00     0.015 A 
HETATM   17  C   UNK N   1       3.058  -2.412   0.011  0.00  0.00     0.042 A 
HETATM   18  C   UNK N   1       5.566  -1.224   0.025  0.00  0.00     0.018 A 
HETATM   19  C   UNK N   1       5.423  -2.615   0.018  0.00  0.00     0.088 A 
HETATM   20  N   UNK N   1       4.182  -3.178   0.012  0.00  0.00    -0.365 N 
ATOM     21  HN  UNK N   1       4.095  -4.194   0.007  1.00  0.00     0.165 HD
HETATM   22  C   UNK N   1       1.796  -3.009   0.002  0.00  0.00     0.031 A 
HETATM   23  C   UNK N   1       0.646  -2.210  -0.006  0.00  0.00     0.016 A 
ENDBRANCH  12  13
BRANCH   1  24
HETATM   24  C   UNK N   1      -4.089   0.184  -0.276  0.00  0.00     0.102 C 
HETATM   25  C   UNK N   1      -4.830   0.902   0.838  0.00  0.00     0.034 C 
HETATM   26  C   UNK N   1      -4.442  -1.294  -0.227  0.00  0.00     0.034 C 
ENDBRANCH   1  24
BRANCH  10  27
HETATM   27  N   UNK N   1       1.556   2.460   0.107  0.00  0.00    -0.385 N 
HETATM   28  H   UNK N   1       1.996   1.582   0.180  0.00  0.00     0.157 HD
HETATM   29  H   UNK N   1       2.098   3.282   0.107  0.00  0.00     0.157 HD
ENDBRANCH  10  27
TORSDOF 3
