MODEL 1
REMARK VINA RESULT:      -7.3      0.000      0.000
REMARK  3 active torsions:
REMARK  status: ('A' for Active; 'I' for Inactive)
REMARK    1  A    between atoms: C_2  and  N_4 
REMARK    2  A    between atoms: C_13  and  N_14 
REMARK    3  A    between atoms: C_16  and  C_17 
ROOT
HETATM    1  N   UNK N   1      30.344  17.225   5.073  0.00  0.00    -0.271 N 
HETATM    2  N   UNK N   1      29.346  17.673   4.317  0.00  0.00    -0.295 N 
ATOM      3  HN  UNK N   1      29.268  17.563   3.306  1.00  0.00     0.187 HD
HETATM    4  C   UNK N   1      30.096  17.559   6.348  0.00  0.00     0.140 A 
HETATM    5  N   UNK N   1      30.874  17.279   7.421  0.00  0.00    -0.337 N 
ATOM      6  HN  UNK N   1      31.746  16.758   7.313  1.00  0.00     0.168 HD
HETATM    7  C   UNK N   1      30.466  17.710   8.647  0.00  0.00     0.183 A 
HETATM    8  N   UNK N   1      29.297  18.407   8.782  0.00  0.00    -0.338 N 
ATOM      9  HN  UNK N   1      29.010  18.725   9.708  1.00  0.00     0.168 HD
HETATM   10  C   UNK N   1      28.505  18.689   7.706  0.00  0.00     0.116 A 
HETATM   11  C   UNK N   1      28.921  18.247   6.439  0.00  0.00     0.082 A 
HETATM   12  C   UNK N   1      28.444  18.304   5.119  0.00  0.00     0.076 A 
ENDROOT
BRANCH  12  13
HETATM   13  C   UNK N   1      27.191  18.886   4.575  0.00  0.00    -0.006 A 
HETATM   14  C   UNK N   1      25.944  18.296   4.803  0.00  0.00     0.027 A 
HETATM   15  C   UNK N   1      24.783  18.842   4.254  0.00  0.00    -0.009 A 
HETATM   16  C   UNK N   1      23.543  18.246   4.482  0.00  0.00     0.015 A 
HETATM   17  C   UNK N   1      24.858  20.002   3.458  0.00  0.00     0.042 A 
HETATM   18  C   UNK N   1      22.396  18.807   3.918  0.00  0.00     0.018 A 
HETATM   19  C   UNK N   1      22.508  19.959   3.133  0.00  0.00     0.088 A 
HETATM   20  N   UNK N   1      23.726  20.530   2.920  0.00  0.00    -0.365 N 
ATOM     21  HN  UNK N   1      23.790  21.370   2.346  1.00  0.00     0.165 HD
HETATM   22  C   UNK N   1      26.098  20.601   3.226  0.00  0.00     0.031 A 
HETATM   23  C   UNK N   1      27.257  20.044   3.779  0.00  0.00     0.016 A 
ENDBRANCH  12  13
BRANCH   1  24
HETATM   24  C   UNK N   1      31.500  16.469   4.580  0.00  0.00     0.102 C 
HETATM   25  C   UNK N   1      32.610  17.404   4.131  0.00  0.00     0.034 C 
HETATM   26  C   UNK N   1      31.126  15.560   3.421  0.00  0.00     0.034 C 
ENDBRANCH   1  24
BRANCH  10  27
HETATM   27  N   UNK N   1      27.317  19.415   7.899  0.00  0.00    -0.385 N 
HETATM   28  H   UNK N   1      26.444  18.963   7.834  0.00  0.00     0.157 HD
HETATM   29  H   UNK N   1      27.357  20.378   8.100  0.00  0.00     0.157 HD
ENDBRANCH  10  27
TORSDOF 3
ENDMDL
MODEL 2
REMARK VINA RESULT:      -7.1      2.153      6.590
REMARK  3 active torsions:
REMARK  status: ('A' for Active; 'I' for Inactive)
REMARK    1  A    between atoms: C_2  and  N_4 
REMARK    2  A    between atoms: C_13  and  N_14 
REMARK    3  A    between atoms: C_16  and  C_17 
ROOT
HETATM    1  N   UNK N   1      27.967  18.995   5.515  0.00  0.00    -0.271 N 
HETATM    2  N   UNK N   1      28.774  18.481   4.592  0.00  0.00    -0.295 N 
ATOM      3  HN  UNK N   1      28.720  18.658   3.589  1.00  0.00     0.187 HD
HETATM    4  C   UNK N   1      28.347  18.534   6.717  0.00  0.00     0.140 A 
HETATM    5  N   UNK N   1      27.778  18.828   7.910  0.00  0.00    -0.337 N 
ATOM      6  HN  UNK N   1      26.981  19.464   7.966  1.00  0.00     0.168 HD
HETATM    7  C   UNK N   1      28.294  18.255   9.033  0.00  0.00     0.183 A 
HETATM    8  N   UNK N   1      29.362  17.405   8.947  0.00  0.00    -0.338 N 
ATOM      9  HN  UNK N   1      29.733  16.982   9.798  1.00  0.00     0.168 HD
HETATM   10  C   UNK N   1      29.944  17.107   7.748  0.00  0.00     0.116 A 
HETATM   11  C   UNK N   1      29.416  17.696   6.587  0.00  0.00     0.082 A 
HETATM   12  C   UNK N   1      29.685  17.680   5.208  0.00  0.00     0.076 A 
ENDROOT
BRANCH  12  13
HETATM   13  C   UNK N   1      30.754  16.984   4.447  0.00  0.00    -0.006 A 
HETATM   14  C   UNK N   1      30.627  15.649   4.051  0.00  0.00     0.027 A 
HETATM   15  C   UNK N   1      31.657  15.005   3.365  0.00  0.00    -0.009 A 
HETATM   16  C   UNK N   1      31.526  13.673   2.976  0.00  0.00     0.015 A 
HETATM   17  C   UNK N   1      32.846  15.700   3.065  0.00  0.00     0.042 A 
HETATM   18  C   UNK N   1      32.573  13.048   2.296  0.00  0.00     0.018 A 
HETATM   19  C   UNK N   1      33.738  13.768   2.015  0.00  0.00     0.088 A 
HETATM   20  N   UNK N   1      33.851  15.070   2.401  0.00  0.00    -0.365 N 
ATOM     21  HN  UNK N   1      34.708  15.581   2.188  1.00  0.00     0.165 HD
HETATM   22  C   UNK N   1      32.983  17.034   3.454  0.00  0.00     0.031 A 
HETATM   23  C   UNK N   1      31.943  17.671   4.144  0.00  0.00     0.016 A 
ENDBRANCH  12  13
BRANCH   1  24
HETATM   24  C   UNK N   1      26.868  19.929   5.249  0.00  0.00     0.102 C 
HETATM   25  C   UNK N   1      26.595  20.037   3.759  0.00  0.00     0.034 C 
HETATM   26  C   UNK N   1      27.164  21.316   5.795  0.00  0.00     0.034 C 
ENDBRANCH   1  24
BRANCH  10  27
HETATM   27  N   UNK N   1      31.035  16.222   7.715  0.00  0.00    -0.385 N 
HETATM   28  H   UNK N   1      31.677  16.199   8.462  0.00  0.00     0.157 HD
HETATM   29  H   UNK N   1      31.158  15.621   6.944  0.00  0.00     0.157 HD
ENDBRANCH  10  27
TORSDOF 3
ENDMDL
MODEL 3
REMARK VINA RESULT:      -6.8      1.150      3.235
REMARK  3 active torsions:
REMARK  status: ('A' for Active; 'I' for Inactive)
REMARK    1  A    between atoms: C_2  and  N_4 
REMARK    2  A    between atoms: C_13  and  N_14 
REMARK    3  A    between atoms: C_16  and  C_17 
ROOT
HETATM    1  N   UNK N   1      29.272  17.665   7.611  0.00  0.00    -0.271 N 
HETATM    2  N   UNK N   1      28.213  18.343   7.177  0.00  0.00    -0.295 N 
ATOM      3  HN  UNK N   1      27.580  18.893   7.756  1.00  0.00     0.187 HD
HETATM    4  C   UNK N   1      29.856  17.068   6.561  0.00  0.00     0.140 A 
HETATM    5  N   UNK N   1      30.964  16.291   6.590  0.00  0.00    -0.337 N 
ATOM      6  HN  UNK N   1      31.453  16.109   7.468  1.00  0.00     0.168 HD
HETATM    7  C   UNK N   1      31.411  15.756   5.419  0.00  0.00     0.183 A 
HETATM    8  N   UNK N   1      30.749  16.006   4.248  0.00  0.00    -0.338 N 
ATOM      9  HN  UNK N   1      31.097  15.594   3.382  1.00  0.00     0.168 HD
HETATM   10  C   UNK N   1      29.634  16.793   4.211  0.00  0.00     0.116 A 
HETATM   11  C   UNK N   1      29.170  17.347   5.415  0.00  0.00     0.082 A 
HETATM   12  C   UNK N   1      28.116  18.179   5.829  0.00  0.00     0.076 A 
ENDROOT
BRANCH  12  13
HETATM   13  C   UNK N   1      27.050  18.844   5.037  0.00  0.00    -0.006 A 
HETATM   14  C   UNK N   1      25.716  18.433   5.106  0.00  0.00     0.027 A 
HETATM   15  C   UNK N   1      24.736  19.050   4.328  0.00  0.00    -0.009 A 
HETATM   16  C   UNK N   1      23.407  18.633   4.398  0.00  0.00     0.015 A 
HETATM   17  C   UNK N   1      25.087  20.101   3.458  0.00  0.00     0.042 A 
HETATM   18  C   UNK N   1      22.446  19.262   3.606  0.00  0.00     0.018 A 
HETATM   19  C   UNK N   1      22.829  20.302   2.754  0.00  0.00     0.088 A 
HETATM   20  N   UNK N   1      24.131  20.699   2.697  0.00  0.00    -0.365 N 
ATOM     21  HN  UNK N   1      24.394  21.459   2.070  1.00  0.00     0.165 HD
HETATM   22  C   UNK N   1      26.416  20.522   3.383  0.00  0.00     0.031 A 
HETATM   23  C   UNK N   1      27.392  19.894   4.166  0.00  0.00     0.016 A 
ENDBRANCH  12  13
BRANCH   1  24
HETATM   24  C   UNK N   1      29.726  17.613   9.005  0.00  0.00     0.102 C 
HETATM   25  C   UNK N   1      28.635  17.072   9.912  0.00  0.00     0.034 C 
HETATM   26  C   UNK N   1      30.148  18.984   9.510  0.00  0.00     0.034 C 
ENDBRANCH   1  24
BRANCH  10  27
HETATM   27  N   UNK N   1      28.989  17.012   2.981  0.00  0.00    -0.385 N 
HETATM   28  H   UNK N   1      28.606  17.895   2.773  0.00  0.00     0.157 HD
HETATM   29  H   UNK N   1      28.920  16.280   2.326  0.00  0.00     0.157 HD
ENDBRANCH  10  27
TORSDOF 3
ENDMDL
MODEL 4
REMARK VINA RESULT:      -6.8     13.198     15.609
REMARK  3 active torsions:
REMARK  status: ('A' for Active; 'I' for Inactive)
REMARK    1  A    between atoms: C_2  and  N_4 
REMARK    2  A    between atoms: C_13  and  N_14 
REMARK    3  A    between atoms: C_16  and  C_17 
ROOT
HETATM    1  N   UNK N   1      25.567  25.154  -9.727  0.00  0.00    -0.271 N 
HETATM    2  N   UNK N   1      25.576  26.242  -8.962  0.00  0.00    -0.295 N 
ATOM      3  HN  UNK N   1      25.361  27.189  -9.272  1.00  0.00     0.187 HD
HETATM    4  C   UNK N   1      25.901  24.098  -8.971  0.00  0.00     0.140 A 
HETATM    5  N   UNK N   1      25.999  22.811  -9.381  0.00  0.00    -0.337 N 
ATOM      6  HN  UNK N   1      25.806  22.555 -10.350  1.00  0.00     0.168 HD
HETATM    7  C   UNK N   1      26.364  21.867  -8.469  0.00  0.00     0.183 A 
HETATM    8  N   UNK N   1      26.621  22.220  -7.172  0.00  0.00    -0.338 N 
ATOM      9  HN  UNK N   1      26.896  21.499  -6.505  1.00  0.00     0.168 HD
HETATM   10  C   UNK N   1      26.519  23.514  -6.750  0.00  0.00     0.116 A 
HETATM   11  C   UNK N   1      26.143  24.492  -7.686  0.00  0.00     0.082 A 
HETATM   12  C   UNK N   1      25.920  25.879  -7.696  0.00  0.00     0.076 A 
ENDROOT
BRANCH  12  13
HETATM   13  C   UNK N   1      25.983  26.869  -6.591  0.00  0.00    -0.006 A 
HETATM   14  C   UNK N   1      26.985  27.843  -6.531  0.00  0.00     0.027 A 
HETATM   15  C   UNK N   1      27.046  28.742  -5.467  0.00  0.00    -0.009 A 
HETATM   16  C   UNK N   1      28.049  29.709  -5.410  0.00  0.00     0.015 A 
HETATM   17  C   UNK N   1      26.091  28.675  -4.433  0.00  0.00     0.042 A 
HETATM   18  C   UNK N   1      28.093  30.594  -4.332  0.00  0.00     0.018 A 
HETATM   19  C   UNK N   1      27.129  30.499  -3.323  0.00  0.00     0.088 A 
HETATM   20  N   UNK N   1      26.154  29.549  -3.393  0.00  0.00    -0.365 N 
ATOM     21  HN  UNK N   1      25.458  29.493  -2.649  1.00  0.00     0.165 HD
HETATM   22  C   UNK N   1      25.085  27.708  -4.483  0.00  0.00     0.031 A 
HETATM   23  C   UNK N   1      25.034  26.809  -5.555  0.00  0.00     0.016 A 
ENDBRANCH  12  13
BRANCH   1  24
HETATM   24  C   UNK N   1      25.221  25.129 -11.153  0.00  0.00     0.102 C 
HETATM   25  C   UNK N   1      26.461  25.276 -12.016  0.00  0.00     0.034 C 
HETATM   26  C   UNK N   1      24.239  26.233 -11.512  0.00  0.00     0.034 C 
ENDBRANCH   1  24
BRANCH  10  27
HETATM   27  N   UNK N   1      26.801  23.823  -5.409  0.00  0.00    -0.385 N 
HETATM   28  H   UNK N   1      26.284  23.402  -4.684  0.00  0.00     0.157 HD
HETATM   29  H   UNK N   1      27.518  24.463  -5.193  0.00  0.00     0.157 HD
ENDBRANCH  10  27
TORSDOF 3
ENDMDL
MODEL 5
REMARK VINA RESULT:      -6.7     10.841     13.263
REMARK  3 active torsions:
REMARK  status: ('A' for Active; 'I' for Inactive)
REMARK    1  A    between atoms: C_2  and  N_4 
REMARK    2  A    between atoms: C_13  and  N_14 
REMARK    3  A    between atoms: C_16  and  C_17 
ROOT
HETATM    1  N   UNK N   1      29.517  23.048  -5.205  0.00  0.00    -0.271 N 
HETATM    2  N   UNK N   1      29.246  24.197  -4.592  0.00  0.00    -0.295 N 
ATOM      3  HN  UNK N   1      29.801  24.621  -3.849  1.00  0.00     0.187 HD
HETATM    4  C   UNK N   1      28.564  22.820  -6.121  0.00  0.00     0.140 A 
HETATM    5  N   UNK N   1      28.486  21.755  -6.954  0.00  0.00    -0.337 N 
ATOM      6  HN  UNK N   1      29.197  21.023  -6.936  1.00  0.00     0.168 HD
HETATM    7  C   UNK N   1      27.434  21.685  -7.818  0.00  0.00     0.183 A 
HETATM    8  N   UNK N   1      26.486  22.671  -7.836  0.00  0.00    -0.338 N 
ATOM      9  HN  UNK N   1      25.704  22.598  -8.487  1.00  0.00     0.168 HD
HETATM   10  C   UNK N   1      26.561  23.750  -7.002  0.00  0.00     0.116 A 
HETATM   11  C   UNK N   1      27.643  23.827  -6.110  0.00  0.00     0.082 A 
HETATM   12  C   UNK N   1      28.104  24.713  -5.122  0.00  0.00     0.076 A 
ENDROOT
BRANCH  12  13
HETATM   13  C   UNK N   1      27.555  26.018  -4.670  0.00  0.00    -0.006 A 
HETATM   14  C   UNK N   1      28.004  27.230  -5.202  0.00  0.00     0.027 A 
HETATM   15  C   UNK N   1      27.498  28.445  -4.739  0.00  0.00    -0.009 A 
HETATM   16  C   UNK N   1      27.952  29.652  -5.270  0.00  0.00     0.015 A 
HETATM   17  C   UNK N   1      26.522  28.460  -3.723  0.00  0.00     0.042 A 
HETATM   18  C   UNK N   1      27.435  30.855  -4.787  0.00  0.00     0.018 A 
HETATM   19  C   UNK N   1      26.468  30.833  -3.778  0.00  0.00     0.088 A 
HETATM   20  N   UNK N   1      26.033  29.646  -3.269  0.00  0.00    -0.365 N 
ATOM     21  HN  UNK N   1      25.327  29.647  -2.533  1.00  0.00     0.165 HD
HETATM   22  C   UNK N   1      26.064  27.255  -3.186  0.00  0.00     0.031 A 
HETATM   23  C   UNK N   1      26.581  26.041  -3.656  0.00  0.00     0.016 A 
ENDBRANCH  12  13
BRANCH   1  24
HETATM   24  C   UNK N   1      30.682  22.200  -4.930  0.00  0.00     0.102 C 
HETATM   25  C   UNK N   1      30.413  21.270  -3.761  0.00  0.00     0.034 C 
HETATM   26  C   UNK N   1      31.920  23.028  -4.625  0.00  0.00     0.034 C 
ENDBRANCH   1  24
BRANCH  10  27
HETATM   27  N   UNK N   1      25.556  24.730  -7.056  0.00  0.00    -0.385 N 
HETATM   28  H   UNK N   1      24.780  24.679  -6.452  0.00  0.00     0.157 HD
HETATM   29  H   UNK N   1      25.628  25.472  -7.701  0.00  0.00     0.157 HD
ENDBRANCH  10  27
TORSDOF 3
ENDMDL
MODEL 6
REMARK VINA RESULT:      -6.7     10.974     14.273
REMARK  3 active torsions:
REMARK  status: ('A' for Active; 'I' for Inactive)
REMARK    1  A    between atoms: C_2  and  N_4 
REMARK    2  A    between atoms: C_13  and  N_14 
REMARK    3  A    between atoms: C_16  and  C_17 
ROOT
HETATM    1  N   UNK N   1      34.589  11.625  10.978  0.00  0.00    -0.271 N 
HETATM    2  N   UNK N   1      34.487  11.156  12.219  0.00  0.00    -0.295 N 
ATOM      3  HN  UNK N   1      34.028  10.288  12.491  1.00  0.00     0.187 HD
HETATM    4  C   UNK N   1      35.257  12.788  11.016  0.00  0.00     0.140 A 
HETATM    5  N   UNK N   1      35.568  13.573   9.957  0.00  0.00    -0.337 N 
ATOM      6  HN  UNK N   1      35.301  13.303   9.009  1.00  0.00     0.168 HD
HETATM    7  C   UNK N   1      36.246  14.732  10.187  0.00  0.00     0.183 A 
HETATM    8  N   UNK N   1      36.600  15.085  11.461  0.00  0.00    -0.338 N 
ATOM      9  HN  UNK N   1      37.104  15.958  11.614  1.00  0.00     0.168 HD
HETATM   10  C   UNK N   1      36.294  14.296  12.533  0.00  0.00     0.116 A 
HETATM   11  C   UNK N   1      35.596  13.100  12.300  0.00  0.00     0.082 A 
HETATM   12  C   UNK N   1      35.098  12.030  13.064  0.00  0.00     0.076 A 
ENDROOT
BRANCH  12  13
HETATM   13  C   UNK N   1      35.187  11.771  14.524  0.00  0.00    -0.006 A 
HETATM   14  C   UNK N   1      35.015  12.791  15.465  0.00  0.00     0.027 A 
HETATM   15  C   UNK N   1      35.135  12.531  16.831  0.00  0.00    -0.009 A 
HETATM   16  C   UNK N   1      34.967  13.553  17.765  0.00  0.00     0.015 A 
HETATM   17  C   UNK N   1      35.435  11.228  17.276  0.00  0.00     0.042 A 
HETATM   18  C   UNK N   1      35.098  13.271  19.125  0.00  0.00     0.018 A 
HETATM   19  C   UNK N   1      35.396  11.966  19.532  0.00  0.00     0.088 A 
HETATM   20  N   UNK N   1      35.557  10.978  18.608  0.00  0.00    -0.365 N 
ATOM     21  HN  UNK N   1      35.774  10.032  18.921  1.00  0.00     0.165 HD
HETATM   22  C   UNK N   1      35.607  10.202  16.346  0.00  0.00     0.031 A 
HETATM   23  C   UNK N   1      35.486  10.473  14.977  0.00  0.00     0.016 A 
ENDBRANCH  12  13
BRANCH   1  24
HETATM   24  C   UNK N   1      34.075  10.954   9.779  0.00  0.00     0.102 C 
HETATM   25  C   UNK N   1      32.736  10.293  10.058  0.00  0.00     0.034 C 
HETATM   26  C   UNK N   1      35.044   9.902   9.264  0.00  0.00     0.034 C 
ENDBRANCH   1  24
BRANCH  10  27
HETATM   27  N   UNK N   1      36.675  14.709  13.820  0.00  0.00    -0.385 N 
HETATM   28  H   UNK N   1      36.940  15.644  13.983  0.00  0.00     0.157 HD
HETATM   29  H   UNK N   1      36.677  14.063  14.563  0.00  0.00     0.157 HD
ENDBRANCH  10  27
TORSDOF 3
ENDMDL
MODEL 7
REMARK VINA RESULT:      -6.6      2.438      7.357
REMARK  3 active torsions:
REMARK  status: ('A' for Active; 'I' for Inactive)
REMARK    1  A    between atoms: C_2  and  N_4 
REMARK    2  A    between atoms: C_13  and  N_14 
REMARK    3  A    between atoms: C_16  and  C_17 
ROOT
HETATM    1  N   UNK N   1      27.131  18.717   4.273  0.00  0.00    -0.271 N 
HETATM    2  N   UNK N   1      28.329  18.823   4.839  0.00  0.00    -0.295 N 
ATOM      3  HN  UNK N   1      28.674  19.631   5.358  1.00  0.00     0.187 HD
HETATM    4  C   UNK N   1      27.042  17.515   3.684  0.00  0.00     0.140 A 
HETATM    5  N   UNK N   1      25.977  17.027   3.005  0.00  0.00    -0.337 N 
ATOM      6  HN  UNK N   1      25.125  17.579   2.902  1.00  0.00     0.168 HD
HETATM    7  C   UNK N   1      26.072  15.781   2.461  0.00  0.00     0.183 A 
HETATM    8  N   UNK N   1      27.219  15.049   2.605  0.00  0.00    -0.338 N 
ATOM      9  HN  UNK N   1      27.272  14.119   2.187  1.00  0.00     0.168 HD
HETATM   10  C   UNK N   1      28.294  15.533   3.292  0.00  0.00     0.116 A 
HETATM   11  C   UNK N   1      28.202  16.816   3.855  0.00  0.00     0.082 A 
HETATM   12  C   UNK N   1      29.020  17.673   4.611  0.00  0.00     0.076 A 
ENDROOT
BRANCH  12  13
HETATM   13  C   UNK N   1      30.388  17.464   5.150  0.00  0.00    -0.006 A 
HETATM   14  C   UNK N   1      30.612  17.159   6.496  0.00  0.00     0.027 A 
HETATM   15  C   UNK N   1      31.908  17.001   6.988  0.00  0.00    -0.009 A 
HETATM   16  C   UNK N   1      32.124  16.701   8.333  0.00  0.00     0.015 A 
HETATM   17  C   UNK N   1      33.011  17.150   6.125  0.00  0.00     0.042 A 
HETATM   18  C   UNK N   1      33.430  16.552   8.803  0.00  0.00     0.018 A 
HETATM   19  C   UNK N   1      34.502  16.707   7.919  0.00  0.00     0.088 A 
HETATM   20  N   UNK N   1      34.275  17.000   6.607  0.00  0.00    -0.365 N 
ATOM     21  HN  UNK N   1      35.067  17.110   5.975  1.00  0.00     0.165 HD
HETATM   22  C   UNK N   1      32.800  17.453   4.779  0.00  0.00     0.031 A 
HETATM   23  C   UNK N   1      31.496  17.612   4.296  0.00  0.00     0.016 A 
ENDBRANCH  12  13
BRANCH   1  24
HETATM   24  C   UNK N   1      26.083  19.743   4.319  0.00  0.00     0.102 C 
HETATM   25  C   UNK N   1      26.047  20.541   3.027  0.00  0.00     0.034 C 
HETATM   26  C   UNK N   1      26.285  20.701   5.482  0.00  0.00     0.034 C 
ENDBRANCH   1  24
BRANCH  10  27
HETATM   27  N   UNK N   1      29.451  14.742   3.403  0.00  0.00    -0.385 N 
HETATM   28  H   UNK N   1      29.904  14.410   2.594  0.00  0.00     0.157 HD
HETATM   29  H   UNK N   1      29.810  14.519   4.293  0.00  0.00     0.157 HD
ENDBRANCH  10  27
TORSDOF 3
ENDMDL
MODEL 8
REMARK VINA RESULT:      -6.6      2.220      6.814
REMARK  3 active torsions:
REMARK  status: ('A' for Active; 'I' for Inactive)
REMARK    1  A    between atoms: C_2  and  N_4 
REMARK    2  A    between atoms: C_13  and  N_14 
REMARK    3  A    between atoms: C_16  and  C_17 
ROOT
HETATM    1  N   UNK N   1      26.828  16.840   3.695  0.00  0.00    -0.271 N 
HETATM    2  N   UNK N   1      27.872  16.497   4.445  0.00  0.00    -0.295 N 
ATOM      3  HN  UNK N   1      28.372  15.609   4.399  1.00  0.00     0.187 HD
HETATM    4  C   UNK N   1      26.443  18.077   4.042  0.00  0.00     0.140 A 
HETATM    5  N   UNK N   1      25.418  18.782   3.506  0.00  0.00    -0.337 N 
ATOM      6  HN  UNK N   1      24.849  18.389   2.756  1.00  0.00     0.168 HD
HETATM    7  C   UNK N   1      25.165  20.029   3.994  0.00  0.00     0.183 A 
HETATM    8  N   UNK N   1      25.933  20.547   5.000  0.00  0.00    -0.338 N 
ATOM      9  HN  UNK N   1      25.726  21.481   5.355  1.00  0.00     0.168 HD
HETATM   10  C   UNK N   1      26.972  19.844   5.542  0.00  0.00     0.116 A 
HETATM   11  C   UNK N   1      27.237  18.559   5.042  0.00  0.00     0.082 A 
HETATM   12  C   UNK N   1      28.161  17.528   5.284  0.00  0.00     0.076 A 
ENDROOT
BRANCH  12  13
HETATM   13  C   UNK N   1      29.305  17.467   6.230  0.00  0.00    -0.006 A 
HETATM   14  C   UNK N   1      30.630  17.457   5.784  0.00  0.00     0.027 A 
HETATM   15  C   UNK N   1      31.688  17.366   6.688  0.00  0.00    -0.009 A 
HETATM   16  C   UNK N   1      33.008  17.352   6.237  0.00  0.00     0.015 A 
HETATM   17  C   UNK N   1      31.428  17.280   8.070  0.00  0.00     0.042 A 
HETATM   18  C   UNK N   1      34.050  17.254   7.160  0.00  0.00     0.018 A 
HETATM   19  C   UNK N   1      33.755  17.171   8.525  0.00  0.00     0.088 A 
HETATM   20  N   UNK N   1      32.461  17.187   8.951  0.00  0.00    -0.365 N 
ATOM     21  HN  UNK N   1      32.263  17.125   9.949  1.00  0.00     0.165 HD
HETATM   22  C   UNK N   1      30.109  17.291   8.527  0.00  0.00     0.031 A 
HETATM   23  C   UNK N   1      29.054  17.381   7.611  0.00  0.00     0.016 A 
ENDBRANCH  12  13
BRANCH   1  24
HETATM   24  C   UNK N   1      26.230  16.002   2.650  0.00  0.00     0.102 C 
HETATM   25  C   UNK N   1      25.091  15.167   3.208  0.00  0.00     0.034 C 
HETATM   26  C   UNK N   1      27.254  15.075   2.017  0.00  0.00     0.034 C 
ENDBRANCH   1  24
BRANCH  10  27
HETATM   27  N   UNK N   1      27.725  20.421   6.578  0.00  0.00    -0.385 N 
HETATM   28  H   UNK N   1      28.320  21.184   6.393  0.00  0.00     0.157 HD
HETATM   29  H   UNK N   1      27.657  20.063   7.493  0.00  0.00     0.157 HD
ENDBRANCH  10  27
TORSDOF 3
ENDMDL
MODEL 9
REMARK VINA RESULT:      -6.5      1.739      2.253
REMARK  3 active torsions:
REMARK  status: ('A' for Active; 'I' for Inactive)
REMARK    1  A    between atoms: C_2  and  N_4 
REMARK    2  A    between atoms: C_13  and  N_14 
REMARK    3  A    between atoms: C_16  and  C_17 
ROOT
HETATM    1  N   UNK N   1      28.119  16.248   4.184  0.00  0.00    -0.271 N 
HETATM    2  N   UNK N   1      27.064  16.782   3.576  0.00  0.00    -0.295 N 
ATOM      3  HN  UNK N   1      26.637  16.441   2.715  1.00  0.00     0.187 HD
HETATM    4  C   UNK N   1      28.388  16.970   5.282  0.00  0.00     0.140 A 
HETATM    5  N   UNK N   1      29.385  16.744   6.171  0.00  0.00    -0.337 N 
ATOM      6  HN  UNK N   1      30.025  15.958   6.050  1.00  0.00     0.168 HD
HETATM    7  C   UNK N   1      29.514  17.593   7.229  0.00  0.00     0.183 A 
HETATM    8  N   UNK N   1      28.651  18.644   7.382  0.00  0.00    -0.338 N 
ATOM      9  HN  UNK N   1      28.766  19.270   8.179  1.00  0.00     0.168 HD
HETATM   10  C   UNK N   1      27.641  18.874   6.493  0.00  0.00     0.116 A 
HETATM   11  C   UNK N   1      27.503  18.002   5.401  0.00  0.00     0.082 A 
HETATM   12  C   UNK N   1      26.649  17.861   4.294  0.00  0.00     0.076 A 
ENDROOT
BRANCH  12  13
HETATM   13  C   UNK N   1      25.461  18.656   3.892  0.00  0.00    -0.006 A 
HETATM   14  C   UNK N   1      24.159  18.236   4.184  0.00  0.00     0.027 A 
HETATM   15  C   UNK N   1      23.057  18.982   3.767  0.00  0.00    -0.009 A 
HETATM   16  C   UNK N   1      21.761  18.556   4.058  0.00  0.00     0.015 A 
HETATM   17  C   UNK N   1      23.247  20.174   3.040  0.00  0.00     0.042 A 
HETATM   18  C   UNK N   1      20.673  19.316   3.626  0.00  0.00     0.018 A 
HETATM   19  C   UNK N   1      20.899  20.494   2.906  0.00  0.00     0.088 A 
HETATM   20  N   UNK N   1      22.170  20.898   2.630  0.00  0.00    -0.365 N 
ATOM     21  HN  UNK N   1      22.318  21.759   2.105  1.00  0.00     0.165 HD
HETATM   22  C   UNK N   1      24.542  20.604   2.744  0.00  0.00     0.031 A 
HETATM   23  C   UNK N   1      25.642  19.847   3.165  0.00  0.00     0.016 A 
ENDBRANCH  12  13
BRANCH   1  24
HETATM   24  C   UNK N   1      28.839  15.054   3.729  0.00  0.00     0.102 C 
HETATM   25  C   UNK N   1      28.699  14.874   2.228  0.00  0.00     0.034 C 
HETATM   26  C   UNK N   1      28.339  13.797   4.423  0.00  0.00     0.034 C 
ENDBRANCH   1  24
BRANCH  10  27
HETATM   27  N   UNK N   1      26.787  19.973   6.694  0.00  0.00    -0.385 N 
HETATM   28  H   UNK N   1      26.831  20.487   7.532  0.00  0.00     0.157 HD
HETATM   29  H   UNK N   1      26.144  20.229   5.994  0.00  0.00     0.157 HD
ENDBRANCH  10  27
TORSDOF 3
ENDMDL
