REMARK  3 active torsions:
REMARK  status: ('A' for Active; 'I' for Inactive)
REMARK    1  A    between atoms: C_3  and  N_8 
REMARK    2  A    between atoms: N_8  and  C_9 
REMARK    3  A    between atoms: C_13  and  C_20 
ROOT
HETATM    1  C   UNK N   1       1.200   1.356  -0.014  0.00  0.00     0.135 A 
HETATM    2  N   UNK N   1       2.308   0.621  -0.319  0.00  0.00    -0.348 N 
ATOM      3  HN  UNK N   1       3.181   1.102  -0.537  1.00  0.00     0.167 HD
HETATM    4  C   UNK N   1       2.275  -0.747  -0.337  0.00  0.00     0.120 A 
HETATM    5  C   UNK N   1       1.081  -1.432  -0.026  0.00  0.00     0.066 A 
HETATM    6  N   UNK N   1      -0.004  -0.671   0.307  0.00  0.00    -0.301 N 
HETATM    7  C   UNK N   1      -1.250  -1.022   0.677  0.00  0.00     0.189 A 
HETATM    8  N   UNK N   1      -2.003   0.070   0.938  0.00  0.00    -0.359 N 
ATOM      9  HN  UNK N   1      -2.978   0.086   1.236  1.00  0.00     0.166 HD
HETATM   10  C   UNK N   1      -1.202   1.137   0.723  0.00  0.00     0.122 A 
HETATM   11  C   UNK N   1       0.029   0.664   0.324  0.00  0.00     0.100 A 
ENDROOT
BRANCH   1  12
HETATM   12  N   UNK N   1       1.270   2.779  -0.007  0.00  0.00    -0.339 N 
HETATM   13  H   UNK N   1       2.125   3.202   0.236  0.00  0.00     0.167 HD
BRANCH  12  14
HETATM   14  C   UNK N   1       0.170   3.621  -0.333  0.00  0.00     0.055 A 
HETATM   15  C   UNK N   1       0.015   4.862   0.306  0.00  0.00     0.060 A 
HETATM   16 Cl   UNK N   1       1.161   5.402   1.520  0.00  0.00    -0.082 Cl
HETATM   17  C   UNK N   1      -1.085   5.672   0.000  0.00  0.00     0.026 A 
HETATM   18  C   UNK N   1      -2.023   5.258  -0.950  0.00  0.00     0.002 A 
HETATM   19  C   UNK N   1      -1.861   4.037  -1.605  0.00  0.00     0.002 A 
HETATM   20  C   UNK N   1      -0.770   3.223  -1.300  0.00  0.00     0.031 A 
ENDBRANCH  12  14
ENDBRANCH   1  12
BRANCH   5  21
HETATM   21  C   UNK N   1       1.033  -2.923  -0.062  0.00  0.00    -0.007 A 
HETATM   22  C   UNK N   1       2.195  -3.663  -0.338  0.00  0.00     0.014 A 
HETATM   23  C   UNK N   1       2.153  -5.060  -0.381  0.00  0.00     0.001 A 
HETATM   24  C   UNK N   1       0.950  -5.733  -0.157  0.00  0.00     0.000 A 
HETATM   25  C   UNK N   1      -0.212  -5.010   0.114  0.00  0.00     0.001 A 
HETATM   26  C   UNK N   1      -0.169  -3.615   0.163  0.00  0.00     0.014 A 
ENDBRANCH   5  21
TORSDOF 3
