MODEL 1
REMARK VINA RESULT:      -7.6      0.000      0.000
REMARK  3 active torsions:
REMARK  status: ('A' for Active; 'I' for Inactive)
REMARK    1  A    between atoms: C_3  and  N_8 
REMARK    2  A    between atoms: N_8  and  C_9 
REMARK    3  A    between atoms: C_13  and  C_20 
ROOT
HETATM    1  C   UNK N   1      36.499  13.751  12.716  0.00  0.00     0.135 A 
HETATM    2  N   UNK N   1      37.074  14.446  13.739  0.00  0.00    -0.348 N 
ATOM      3  HN  UNK N   1      37.725  15.201  13.524  1.00  0.00     0.167 HD
HETATM    4  C   UNK N   1      36.794  14.155  15.047  0.00  0.00     0.120 A 
HETATM    5  C   UNK N   1      35.886  13.122  15.365  0.00  0.00     0.066 A 
HETATM    6  N   UNK N   1      35.301  12.464  14.320  0.00  0.00    -0.301 N 
HETATM    7  C   UNK N   1      34.388  11.475  14.298  0.00  0.00     0.189 A 
HETATM    8  N   UNK N   1      34.072  11.137  13.028  0.00  0.00    -0.359 N 
ATOM      9  HN  UNK N   1      33.410  10.421  12.731  1.00  0.00     0.166 HD
HETATM   10  C   UNK N   1      34.812  11.939  12.232  0.00  0.00     0.122 A 
HETATM   11  C   UNK N   1      35.575  12.749  13.044  0.00  0.00     0.100 A 
ENDROOT
BRANCH   1  12
HETATM   12  N   UNK N   1      36.814  14.080  11.366  0.00  0.00    -0.339 N 
HETATM   13  H   UNK N   1      37.638  13.707  10.976  0.00  0.00     0.167 HD
BRANCH  12  14
HETATM   14  C   UNK N   1      36.002  14.918  10.552  0.00  0.00     0.055 A 
HETATM   15  C   UNK N   1      35.441  14.422   9.364  0.00  0.00     0.060 A 
HETATM   16 Cl   UNK N   1      35.729  12.769   8.851  0.00  0.00    -0.082 Cl
HETATM   17  C   UNK N   1      34.667  15.261   8.554  0.00  0.00     0.026 A 
HETATM   18  C   UNK N   1      34.437  16.587   8.930  0.00  0.00     0.002 A 
HETATM   19  C   UNK N   1      34.972  17.078  10.121  0.00  0.00     0.002 A 
HETATM   20  C   UNK N   1      35.749  16.249  10.929  0.00  0.00     0.031 A 
ENDBRANCH  12  14
ENDBRANCH   1  12
BRANCH   5  21
HETATM   21  C   UNK N   1      35.591  12.787  16.789  0.00  0.00    -0.007 A 
HETATM   22  C   UNK N   1      35.312  13.807  17.714  0.00  0.00     0.014 A 
HETATM   23  C   UNK N   1      35.044  13.498  19.051  0.00  0.00     0.001 A 
HETATM   24  C   UNK N   1      35.059  12.169  19.481  0.00  0.00     0.000 A 
HETATM   25  C   UNK N   1      35.339  11.147  18.573  0.00  0.00     0.001 A 
HETATM   26  C   UNK N   1      35.601  11.455  17.237  0.00  0.00     0.014 A 
ENDBRANCH   5  21
TORSDOF 3
ENDMDL
MODEL 2
REMARK VINA RESULT:      -7.5      2.303      7.501
REMARK  3 active torsions:
REMARK  status: ('A' for Active; 'I' for Inactive)
REMARK    1  A    between atoms: C_3  and  N_8 
REMARK    2  A    between atoms: N_8  and  C_9 
REMARK    3  A    between atoms: C_13  and  C_20 
ROOT
HETATM    1  C   UNK N   1      36.121  14.388  12.137  0.00  0.00     0.135 A 
HETATM    2  N   UNK N   1      36.003  15.744  12.048  0.00  0.00    -0.348 N 
ATOM      3  HN  UNK N   1      36.437  16.330  12.761  1.00  0.00     0.167 HD
HETATM    4  C   UNK N   1      35.317  16.336  11.022  0.00  0.00     0.120 A 
HETATM    5  C   UNK N   1      34.719  15.544  10.019  0.00  0.00     0.066 A 
HETATM    6  N   UNK N   1      34.881  14.190  10.115  0.00  0.00    -0.301 N 
HETATM    7  C   UNK N   1      34.468  13.191   9.314  0.00  0.00     0.189 A 
HETATM    8  N   UNK N   1      34.874  11.991   9.786  0.00  0.00    -0.359 N 
ATOM      9  HN  UNK N   1      34.697  11.077   9.372  1.00  0.00     0.166 HD
HETATM   10  C   UNK N   1      35.563  12.250  10.920  0.00  0.00     0.122 A 
HETATM   11  C   UNK N   1      35.551  13.614  11.117  0.00  0.00     0.100 A 
ENDROOT
BRANCH   1  12
HETATM   12  N   UNK N   1      36.841  13.806  13.220  0.00  0.00    -0.339 N 
HETATM   13  H   UNK N   1      37.811  13.671  13.115  0.00  0.00     0.167 HD
BRANCH  12  14
HETATM   14  C   UNK N   1      36.233  13.409  14.444  0.00  0.00     0.055 A 
HETATM   15  C   UNK N   1      36.440  14.159  15.612  0.00  0.00     0.060 A 
HETATM   16 Cl   UNK N   1      37.451  15.593  15.598  0.00  0.00    -0.082 Cl
HETATM   17  C   UNK N   1      35.861  13.747  16.818  0.00  0.00     0.026 A 
HETATM   18  C   UNK N   1      35.066  12.598  16.862  0.00  0.00     0.002 A 
HETATM   19  C   UNK N   1      34.838  11.862  15.699  0.00  0.00     0.002 A 
HETATM   20  C   UNK N   1      35.416  12.265  14.496  0.00  0.00     0.031 A 
ENDBRANCH  12  14
ENDBRANCH   1  12
BRANCH   5  21
HETATM   21  C   UNK N   1      33.954  16.181   8.908  0.00  0.00    -0.007 A 
HETATM   22  C   UNK N   1      32.551  16.107   8.880  0.00  0.00     0.014 A 
HETATM   23  C   UNK N   1      31.830  16.696   7.837  0.00  0.00     0.001 A 
HETATM   24  C   UNK N   1      32.501  17.358   6.806  0.00  0.00     0.000 A 
HETATM   25  C   UNK N   1      33.894  17.436   6.820  0.00  0.00     0.001 A 
HETATM   26  C   UNK N   1      34.614  16.853   7.865  0.00  0.00     0.014 A 
ENDBRANCH   5  21
TORSDOF 3
ENDMDL
MODEL 3
REMARK VINA RESULT:      -7.2      7.691     10.859
REMARK  3 active torsions:
REMARK  status: ('A' for Active; 'I' for Inactive)
REMARK    1  A    between atoms: C_3  and  N_8 
REMARK    2  A    between atoms: N_8  and  C_9 
REMARK    3  A    between atoms: C_13  and  C_20 
ROOT
HETATM    1  C   UNK N   1      28.464  17.061   6.255  0.00  0.00     0.135 A 
HETATM    2  N   UNK N   1      29.534  16.538   5.590  0.00  0.00    -0.348 N 
ATOM      3  HN  UNK N   1      29.400  16.154   4.654  1.00  0.00     0.167 HD
HETATM    4  C   UNK N   1      30.783  16.519   6.149  0.00  0.00     0.120 A 
HETATM    5  C   UNK N   1      30.992  17.057   7.437  0.00  0.00     0.066 A 
HETATM    6  N   UNK N   1      29.909  17.603   8.066  0.00  0.00    -0.301 N 
HETATM    7  C   UNK N   1      29.795  18.211   9.262  0.00  0.00     0.189 A 
HETATM    8  N   UNK N   1      28.525  18.623   9.477  0.00  0.00    -0.359 N 
ATOM      9  HN  UNK N   1      28.168  19.108  10.299  1.00  0.00     0.166 HD
HETATM   10  C   UNK N   1      27.824  18.259   8.381  0.00  0.00     0.122 A 
HETATM   11  C   UNK N   1      28.690  17.621   7.520  0.00  0.00     0.100 A 
ENDROOT
BRANCH   1  12
HETATM   12  N   UNK N   1      27.177  17.063   5.644  0.00  0.00    -0.339 N 
HETATM   13  H   UNK N   1      26.603  16.272   5.764  0.00  0.00     0.167 HD
BRANCH  12  14
HETATM   14  C   UNK N   1      26.677  18.147   4.869  0.00  0.00     0.055 A 
HETATM   15  C   UNK N   1      25.307  18.231   4.572  0.00  0.00     0.060 A 
HETATM   16 Cl   UNK N   1      24.183  17.008   5.137  0.00  0.00    -0.082 Cl
HETATM   17  C   UNK N   1      24.827  19.286   3.785  0.00  0.00     0.026 A 
HETATM   18  C   UNK N   1      25.703  20.264   3.307  0.00  0.00     0.002 A 
HETATM   19  C   UNK N   1      27.061  20.198   3.619  0.00  0.00     0.002 A 
HETATM   20  C   UNK N   1      27.546  19.146   4.397  0.00  0.00     0.031 A 
ENDBRANCH  12  14
ENDBRANCH   1  12
BRANCH   5  21
HETATM   21  C   UNK N   1      32.347  17.022   8.060  0.00  0.00    -0.007 A 
HETATM   22  C   UNK N   1      33.249  18.080   7.854  0.00  0.00     0.014 A 
HETATM   23  C   UNK N   1      34.523  18.048   8.430  0.00  0.00     0.001 A 
HETATM   24  C   UNK N   1      34.914  16.957   9.209  0.00  0.00     0.000 A 
HETATM   25  C   UNK N   1      34.029  15.898   9.418  0.00  0.00     0.001 A 
HETATM   26  C   UNK N   1      32.755  15.933   8.849  0.00  0.00     0.014 A 
ENDBRANCH   5  21
TORSDOF 3
ENDMDL
MODEL 4
REMARK VINA RESULT:      -7.2      2.624      8.308
REMARK  3 active torsions:
REMARK  status: ('A' for Active; 'I' for Inactive)
REMARK    1  A    between atoms: C_3  and  N_8 
REMARK    2  A    between atoms: N_8  and  C_9 
REMARK    3  A    between atoms: C_13  and  C_20 
ROOT
HETATM    1  C   UNK N   1      35.281  13.642  10.417  0.00  0.00     0.135 A 
HETATM    2  N   UNK N   1      34.681  12.982   9.385  0.00  0.00    -0.348 N 
ATOM      3  HN  UNK N   1      34.704  11.962   9.365  1.00  0.00     0.167 HD
HETATM    4  C   UNK N   1      34.048  13.657   8.377  0.00  0.00     0.120 A 
HETATM    5  C   UNK N   1      33.994  15.067   8.392  0.00  0.00     0.066 A 
HETATM    6  N   UNK N   1      34.575  15.701   9.455  0.00  0.00    -0.301 N 
HETATM    7  C   UNK N   1      34.659  17.008   9.766  0.00  0.00     0.189 A 
HETATM    8  N   UNK N   1      35.312  17.185  10.937  0.00  0.00    -0.359 N 
ATOM      9  HN  UNK N   1      35.512  18.071  11.399  1.00  0.00     0.166 HD
HETATM   10  C   UNK N   1      35.647  15.949  11.369  0.00  0.00     0.122 A 
HETATM   11  C   UNK N   1      35.193  15.041  10.438  0.00  0.00     0.100 A 
ENDROOT
BRANCH   1  12
HETATM   12  N   UNK N   1      35.933  12.907  11.449  0.00  0.00    -0.339 N 
HETATM   13  H   UNK N   1      36.915  12.853  11.432  0.00  0.00     0.167 HD
BRANCH  12  14
HETATM   14  C   UNK N   1      35.239  12.249  12.503  0.00  0.00     0.055 A 
HETATM   15  C   UNK N   1      35.307  12.747  13.814  0.00  0.00     0.060 A 
HETATM   16 Cl   UNK N   1      36.247  14.180  14.189  0.00  0.00    -0.082 Cl
HETATM   17  C   UNK N   1      34.644  12.078  14.850  0.00  0.00     0.026 A 
HETATM   18  C   UNK N   1      33.903  10.923  14.583  0.00  0.00     0.002 A 
HETATM   19  C   UNK N   1      33.813  10.438  13.278  0.00  0.00     0.002 A 
HETATM   20  C   UNK N   1      34.476  11.097  12.243  0.00  0.00     0.031 A 
ENDBRANCH  12  14
ENDBRANCH   1  12
BRANCH   5  21
HETATM   21  C   UNK N   1      33.322  15.810   7.286  0.00  0.00    -0.007 A 
HETATM   22  C   UNK N   1      31.927  15.979   7.291  0.00  0.00     0.014 A 
HETATM   23  C   UNK N   1      31.292  16.667   6.253  0.00  0.00     0.001 A 
HETATM   24  C   UNK N   1      32.040  17.187   5.195  0.00  0.00     0.000 A 
HETATM   25  C   UNK N   1      33.426  17.023   5.176  0.00  0.00     0.001 A 
HETATM   26  C   UNK N   1      34.061  16.341   6.216  0.00  0.00     0.014 A 
ENDBRANCH   5  21
TORSDOF 3
ENDMDL
MODEL 5
REMARK VINA RESULT:      -6.9      8.201     11.295
REMARK  3 active torsions:
REMARK  status: ('A' for Active; 'I' for Inactive)
REMARK    1  A    between atoms: C_3  and  N_8 
REMARK    2  A    between atoms: N_8  and  C_9 
REMARK    3  A    between atoms: C_13  and  C_20 
ROOT
HETATM    1  C   UNK N   1      27.686  17.406   6.402  0.00  0.00     0.135 A 
HETATM    2  N   UNK N   1      28.028  18.028   7.567  0.00  0.00    -0.348 N 
ATOM      3  HN  UNK N   1      27.337  18.605   8.046  1.00  0.00     0.167 HD
HETATM    4  C   UNK N   1      29.278  17.892   8.108  0.00  0.00     0.120 A 
HETATM    5  C   UNK N   1      30.245  17.088   7.469  0.00  0.00     0.066 A 
HETATM    6  N   UNK N   1      29.864  16.452   6.321  0.00  0.00    -0.301 N 
HETATM    7  C   UNK N   1      30.534  15.608   5.514  0.00  0.00     0.189 A 
HETATM    8  N   UNK N   1      29.754  15.196   4.489  0.00  0.00    -0.359 N 
ATOM      9  HN  UNK N   1      30.014  14.558   3.738  1.00  0.00     0.166 HD
HETATM   10  C   UNK N   1      28.559  15.804   4.661  0.00  0.00     0.122 A 
HETATM   11  C   UNK N   1      28.644  16.585   5.793  0.00  0.00     0.100 A 
ENDROOT
BRANCH   1  12
HETATM   12  N   UNK N   1      26.376  17.572   5.865  0.00  0.00    -0.339 N 
HETATM   13  H   UNK N   1      25.667  16.962   6.172  0.00  0.00     0.167 HD
BRANCH  12  14
HETATM   14  C   UNK N   1      26.039  18.572   4.910  0.00  0.00     0.055 A 
HETATM   15  C   UNK N   1      24.703  18.754   4.517  0.00  0.00     0.060 A 
HETATM   16 Cl   UNK N   1      23.423  17.756   5.183  0.00  0.00    -0.082 Cl
HETATM   17  C   UNK N   1      24.384  19.720   3.557  0.00  0.00     0.026 A 
HETATM   18  C   UNK N   1      25.387  20.516   2.997  0.00  0.00     0.002 A 
HETATM   19  C   UNK N   1      26.712  20.356   3.400  0.00  0.00     0.002 A 
HETATM   20  C   UNK N   1      27.038  19.390   4.353  0.00  0.00     0.031 A 
ENDBRANCH  12  14
ENDBRANCH   1  12
BRANCH   5  21
HETATM   21  C   UNK N   1      31.615  16.950   8.044  0.00  0.00    -0.007 A 
HETATM   22  C   UNK N   1      32.581  17.945   7.819  0.00  0.00     0.014 A 
HETATM   23  C   UNK N   1      33.868  17.817   8.349  0.00  0.00     0.001 A 
HETATM   24  C   UNK N   1      34.208  16.691   9.102  0.00  0.00     0.000 A 
HETATM   25  C   UNK N   1      33.259  15.694   9.329  0.00  0.00     0.001 A 
HETATM   26  C   UNK N   1      31.971  15.825   8.805  0.00  0.00     0.014 A 
ENDBRANCH   5  21
TORSDOF 3
ENDMDL
MODEL 6
REMARK VINA RESULT:      -6.9      7.554     11.048
REMARK  3 active torsions:
REMARK  status: ('A' for Active; 'I' for Inactive)
REMARK    1  A    between atoms: C_3  and  N_8 
REMARK    2  A    between atoms: N_8  and  C_9 
REMARK    3  A    between atoms: C_13  and  C_20 
ROOT
HETATM    1  C   UNK N   1      29.677  17.411   4.611  0.00  0.00     0.135 A 
HETATM    2  N   UNK N   1      29.386  17.519   5.940  0.00  0.00    -0.348 N 
ATOM      3  HN  UNK N   1      28.423  17.694   6.226  1.00  0.00     0.167 HD
HETATM    4  C   UNK N   1      30.357  17.397   6.896  0.00  0.00     0.120 A 
HETATM    5  C   UNK N   1      31.694  17.142   6.521  0.00  0.00     0.066 A 
HETATM    6  N   UNK N   1      31.950  17.006   5.186  0.00  0.00    -0.301 N 
HETATM    7  C   UNK N   1      33.093  16.733   4.528  0.00  0.00     0.189 A 
HETATM    8  N   UNK N   1      32.880  16.668   3.195  0.00  0.00    -0.359 N 
ATOM      9  HN  UNK N   1      33.573  16.477   2.472  1.00  0.00     0.166 HD
HETATM   10  C   UNK N   1      31.563  16.910   3.014  0.00  0.00     0.122 A 
HETATM   11  C   UNK N   1      31.002  17.126   4.253  0.00  0.00     0.100 A 
ENDROOT
BRANCH   1  12
HETATM   12  N   UNK N   1      28.641  17.546   3.643  0.00  0.00    -0.339 N 
HETATM   13  H   UNK N   1      28.717  17.034   2.805  0.00  0.00     0.167 HD
BRANCH  12  14
HETATM   14  C   UNK N   1      27.503  18.381   3.822  0.00  0.00     0.055 A 
HETATM   15  C   UNK N   1      26.209  17.852   3.686  0.00  0.00     0.060 A 
HETATM   16 Cl   UNK N   1      25.961  16.161   3.288  0.00  0.00    -0.082 Cl
HETATM   17  C   UNK N   1      25.094  18.687   3.836  0.00  0.00     0.026 A 
HETATM   18  C   UNK N   1      25.263  20.041   4.135  0.00  0.00     0.002 A 
HETATM   19  C   UNK N   1      26.546  20.567   4.295  0.00  0.00     0.002 A 
HETATM   20  C   UNK N   1      27.660  19.741   4.141  0.00  0.00     0.031 A 
ENDBRANCH  12  14
ENDBRANCH   1  12
BRANCH   5  21
HETATM   21  C   UNK N   1      32.761  17.026   7.558  0.00  0.00    -0.007 A 
HETATM   22  C   UNK N   1      33.689  18.065   7.738  0.00  0.00     0.014 A 
HETATM   23  C   UNK N   1      34.696  17.957   8.703  0.00  0.00     0.001 A 
HETATM   24  C   UNK N   1      34.792  16.808   9.491  0.00  0.00     0.000 A 
HETATM   25  C   UNK N   1      33.879  15.767   9.319  0.00  0.00     0.001 A 
HETATM   26  C   UNK N   1      32.870  15.878   8.360  0.00  0.00     0.014 A 
ENDBRANCH   5  21
TORSDOF 3
ENDMDL
MODEL 7
REMARK VINA RESULT:      -6.9      7.020     11.392
REMARK  3 active torsions:
REMARK  status: ('A' for Active; 'I' for Inactive)
REMARK    1  A    between atoms: C_3  and  N_8 
REMARK    2  A    between atoms: N_8  and  C_9 
REMARK    3  A    between atoms: C_13  and  C_20 
ROOT
HETATM    1  C   UNK N   1      30.901  17.132   7.827  0.00  0.00     0.135 A 
HETATM    2  N   UNK N   1      31.043  16.909   6.489  0.00  0.00    -0.348 N 
ATOM      3  HN  UNK N   1      31.875  16.425   6.149  1.00  0.00     0.167 HD
HETATM    4  C   UNK N   1      30.094  17.318   5.592  0.00  0.00     0.120 A 
HETATM    5  C   UNK N   1      28.930  17.977   6.042  0.00  0.00     0.066 A 
HETATM    6  N   UNK N   1      28.800  18.158   7.390  0.00  0.00    -0.301 N 
HETATM    7  C   UNK N   1      27.810  18.711   8.116  0.00  0.00     0.189 A 
HETATM    8  N   UNK N   1      28.092  18.659   9.437  0.00  0.00    -0.359 N 
ATOM      9  HN  UNK N   1      27.513  19.006  10.202  1.00  0.00     0.166 HD
HETATM   10  C   UNK N   1      29.296  18.055   9.539  0.00  0.00     0.122 A 
HETATM   11  C   UNK N   1      29.727  17.759   8.265  0.00  0.00     0.100 A 
ENDROOT
BRANCH   1  12
HETATM   12  N   UNK N   1      31.911  16.694   8.732  0.00  0.00    -0.339 N 
HETATM   13  H   UNK N   1      31.916  17.071   9.642  0.00  0.00     0.167 HD
BRANCH  12  14
HETATM   14  C   UNK N   1      32.912  15.741   8.392  0.00  0.00     0.055 A 
HETATM   15  C   UNK N   1      34.175  16.169   7.952  0.00  0.00     0.060 A 
HETATM   16 Cl   UNK N   1      34.550  17.877   7.804  0.00  0.00    -0.082 Cl
HETATM   17  C   UNK N   1      35.145  15.225   7.592  0.00  0.00     0.026 A 
HETATM   18  C   UNK N   1      34.867  13.859   7.682  0.00  0.00     0.002 A 
HETATM   19  C   UNK N   1      33.622  13.429   8.141  0.00  0.00     0.002 A 
HETATM   20  C   UNK N   1      32.649  14.364   8.496  0.00  0.00     0.031 A 
ENDBRANCH  12  14
ENDBRANCH   1  12
BRANCH   5  21
HETATM   21  C   UNK N   1      27.900  18.442   5.068  0.00  0.00    -0.007 A 
HETATM   22  C   UNK N   1      27.888  19.778   4.633  0.00  0.00     0.014 A 
HETATM   23  C   UNK N   1      26.920  20.220   3.726  0.00  0.00     0.001 A 
HETATM   24  C   UNK N   1      25.948  19.337   3.251  0.00  0.00     0.000 A 
HETATM   25  C   UNK N   1      25.946  18.009   3.678  0.00  0.00     0.001 A 
HETATM   26  C   UNK N   1      26.917  17.565   4.579  0.00  0.00     0.014 A 
ENDBRANCH   5  21
TORSDOF 3
ENDMDL
MODEL 8
REMARK VINA RESULT:      -6.8      4.477      7.244
REMARK  3 active torsions:
REMARK  status: ('A' for Active; 'I' for Inactive)
REMARK    1  A    between atoms: C_3  and  N_8 
REMARK    2  A    between atoms: N_8  and  C_9 
REMARK    3  A    between atoms: C_13  and  C_20 
ROOT
HETATM    1  C   UNK N   1      32.089  15.803   7.743  0.00  0.00     0.135 A 
HETATM    2  N   UNK N   1      32.058  14.484   8.088  0.00  0.00    -0.348 N 
ATOM      3  HN  UNK N   1      31.320  13.887   7.713  1.00  0.00     0.167 HD
HETATM    4  C   UNK N   1      32.995  13.942   8.926  0.00  0.00     0.120 A 
HETATM    5  C   UNK N   1      34.031  14.747   9.446  0.00  0.00     0.066 A 
HETATM    6  N   UNK N   1      34.056  16.057   9.057  0.00  0.00    -0.301 N 
HETATM    7  C   UNK N   1      34.917  17.049   9.349  0.00  0.00     0.189 A 
HETATM    8  N   UNK N   1      34.567  18.194   8.722  0.00  0.00    -0.359 N 
ATOM      9  HN  UNK N   1      35.048  19.092   8.771  1.00  0.00     0.166 HD
HETATM   10  C   UNK N   1      33.451  17.908   8.016  0.00  0.00     0.122 A 
HETATM   11  C   UNK N   1      33.141  16.584   8.240  0.00  0.00     0.100 A 
ENDROOT
BRANCH   1  12
HETATM   12  N   UNK N   1      31.095  16.334   6.870  0.00  0.00    -0.339 N 
HETATM   13  H   UNK N   1      31.154  16.117   5.912  0.00  0.00     0.167 HD
BRANCH  12  14
HETATM   14  C   UNK N   1      30.023  17.159   7.311  0.00  0.00     0.055 A 
HETATM   15  C   UNK N   1      29.211  17.822   6.377  0.00  0.00     0.060 A 
HETATM   16 Cl   UNK N   1      29.497  17.659   4.654  0.00  0.00    -0.082 Cl
HETATM   17  C   UNK N   1      28.176  18.655   6.819  0.00  0.00     0.026 A 
HETATM   18  C   UNK N   1      27.937  18.818   8.186  0.00  0.00     0.002 A 
HETATM   19  C   UNK N   1      28.726  18.142   9.118  0.00  0.00     0.002 A 
HETATM   20  C   UNK N   1      29.762  17.316   8.684  0.00  0.00     0.031 A 
ENDBRANCH  12  14
ENDBRANCH   1  12
BRANCH   5  21
HETATM   21  C   UNK N   1      35.045  14.167  10.374  0.00  0.00    -0.007 A 
HETATM   22  C   UNK N   1      34.846  14.220  11.764  0.00  0.00     0.014 A 
HETATM   23  C   UNK N   1      35.798  13.685  12.638  0.00  0.00     0.001 A 
HETATM   24  C   UNK N   1      36.962  13.100  12.135  0.00  0.00     0.000 A 
HETATM   25  C   UNK N   1      37.174  13.045  10.757  0.00  0.00     0.001 A 
HETATM   26  C   UNK N   1      36.221  13.573   9.884  0.00  0.00     0.014 A 
ENDBRANCH   5  21
TORSDOF 3
ENDMDL
MODEL 9
REMARK VINA RESULT:      -6.7      2.881      7.663
REMARK  3 active torsions:
REMARK  status: ('A' for Active; 'I' for Inactive)
REMARK    1  A    between atoms: C_3  and  N_8 
REMARK    2  A    between atoms: N_8  and  C_9 
REMARK    3  A    between atoms: C_13  and  C_20 
ROOT
HETATM    1  C   UNK N   1      35.281  12.349  15.843  0.00  0.00     0.135 A 
HETATM    2  N   UNK N   1      36.310  13.236  15.719  0.00  0.00    -0.348 N 
ATOM      3  HN  UNK N   1      36.711  13.655  16.559  1.00  0.00     0.167 HD
HETATM    4  C   UNK N   1      36.818  13.575  14.494  0.00  0.00     0.120 A 
HETATM    5  C   UNK N   1      36.286  12.998  13.321  0.00  0.00     0.066 A 
HETATM    6  N   UNK N   1      35.278  12.089  13.477  0.00  0.00    -0.301 N 
HETATM    7  C   UNK N   1      34.600  11.357  12.574  0.00  0.00     0.189 A 
HETATM    8  N   UNK N   1      33.691  10.561  13.180  0.00  0.00    -0.359 N 
ATOM      9  HN  UNK N   1      33.049   9.909  12.729  1.00  0.00     0.166 HD
HETATM   10  C   UNK N   1      33.804  10.804  14.504  0.00  0.00     0.122 A 
HETATM   11  C   UNK N   1      34.783  11.759  14.673  0.00  0.00     0.100 A 
ENDROOT
BRANCH   1  12
HETATM   12  N   UNK N   1      34.776  12.020  17.134  0.00  0.00    -0.339 N 
HETATM   13  H   UNK N   1      33.884  12.353  17.383  0.00  0.00     0.167 HD
BRANCH  12  14
HETATM   14  C   UNK N   1      35.493  11.237  18.082  0.00  0.00     0.055 A 
HETATM   15  C   UNK N   1      35.573  11.648  19.422  0.00  0.00     0.060 A 
HETATM   16 Cl   UNK N   1      34.803  13.130  19.961  0.00  0.00    -0.082 Cl
HETATM   17  C   UNK N   1      36.304  10.887  20.343  0.00  0.00     0.026 A 
HETATM   18  C   UNK N   1      36.942   9.711  19.937  0.00  0.00     0.002 A 
HETATM   19  C   UNK N   1      36.846   9.287  18.611  0.00  0.00     0.002 A 
HETATM   20  C   UNK N   1      36.124  10.044  17.688  0.00  0.00     0.031 A 
ENDBRANCH  12  14
ENDBRANCH   1  12
BRANCH   5  21
HETATM   21  C   UNK N   1      36.822  13.377  11.982  0.00  0.00    -0.007 A 
HETATM   22  C   UNK N   1      37.894  12.664  11.419  0.00  0.00     0.014 A 
HETATM   23  C   UNK N   1      38.405  13.021  10.168  0.00  0.00     0.001 A 
HETATM   24  C   UNK N   1      37.858  14.099   9.468  0.00  0.00     0.000 A 
HETATM   25  C   UNK N   1      36.796  14.818  10.017  0.00  0.00     0.001 A 
HETATM   26  C   UNK N   1      36.281  14.458  11.264  0.00  0.00     0.014 A 
ENDBRANCH   5  21
TORSDOF 3
ENDMDL
