MODEL 1
REMARK VINA RESULT:      -8.1      0.000      0.000
REMARK  3 active torsions:
REMARK  status: ('A' for Active; 'I' for Inactive)
REMARK    1  A    between atoms: C_6  and  N_9 
REMARK    2  A    between atoms: N_9  and  C_10 
REMARK    3  A    between atoms: C_17  and  C_21 
ROOT
HETATM    1  C   UNK N   1      36.125  14.175  12.820  0.00  0.00     0.135 A 
HETATM    2  C   UNK N   1      35.418  13.419  11.879  0.00  0.00     0.100 A 
HETATM    3  C   UNK N   1      35.016  12.103  11.924  0.00  0.00     0.122 A 
HETATM    4  N   UNK N   1      34.362  11.838  10.767  0.00  0.00    -0.359 N 
ATOM      5  HN  UNK N   1      33.941  10.950  10.493  1.00  0.00     0.166 HD
HETATM    6  C   UNK N   1      34.379  12.986  10.047  0.00  0.00     0.189 A 
HETATM    7  N   UNK N   1      35.022  13.960  10.716  0.00  0.00    -0.301 N 
HETATM    8  C   UNK N   1      35.283  15.264  10.392  0.00  0.00     0.066 A 
HETATM    9  C   UNK N   1      35.991  16.027  11.331  0.00  0.00     0.120 A 
HETATM   10  N   UNK N   1      36.387  15.466  12.506  0.00  0.00    -0.348 N 
ATOM     11  HN  UNK N   1      36.901  16.040  13.175  1.00  0.00     0.167 HD
ENDROOT
BRANCH   1  12
HETATM   12  N   UNK N   1      36.542  13.590  14.054  0.00  0.00    -0.340 N 
HETATM   13  H   UNK N   1      37.210  12.879  13.927  0.00  0.00     0.167 HD
BRANCH  12  14
HETATM   14  C   UNK N   1      36.212  13.799  15.445  0.00  0.00     0.045 A 
HETATM   15  C   UNK N   1      36.672  14.876  16.281  0.00  0.00    -0.035 A 
HETATM   16  C   UNK N   1      37.573  15.972  15.867  0.00  0.00     0.050 C 
HETATM   17  C   UNK N   1      36.262  14.941  17.615  0.00  0.00     0.009 A 
HETATM   18  C   UNK N   1      35.415  13.986  18.159  0.00  0.00     0.001 A 
HETATM   19  C   UNK N   1      34.961  12.940  17.368  0.00  0.00     0.009 A 
HETATM   20  C   UNK N   1      35.349  12.842  16.031  0.00  0.00    -0.035 A 
HETATM   21  C   UNK N   1      34.826  11.694  15.234  0.00  0.00     0.050 C 
ENDBRANCH  12  14
ENDBRANCH   1  12
BRANCH   8  22
HETATM   22  C   UNK N   1      34.863  15.904   9.115  0.00  0.00    -0.007 A 
HETATM   23  C   UNK N   1      35.062  15.285   7.871  0.00  0.00     0.014 A 
HETATM   24  C   UNK N   1      34.654  15.918   6.692  0.00  0.00     0.001 A 
HETATM   25  C   UNK N   1      34.042  17.174   6.743  0.00  0.00     0.000 A 
HETATM   26  C   UNK N   1      33.838  17.799   7.974  0.00  0.00     0.001 A 
HETATM   27  C   UNK N   1      34.245  17.168   9.150  0.00  0.00     0.014 A 
ENDBRANCH   8  22
TORSDOF 3
ENDMDL
MODEL 2
REMARK VINA RESULT:      -8.0      0.135      1.783
REMARK  3 active torsions:
REMARK  status: ('A' for Active; 'I' for Inactive)
REMARK    1  A    between atoms: C_6  and  N_9 
REMARK    2  A    between atoms: N_9  and  C_10 
REMARK    3  A    between atoms: C_17  and  C_21 
ROOT
HETATM    1  C   UNK N   1      36.177  14.256  12.807  0.00  0.00     0.135 A 
HETATM    2  C   UNK N   1      35.456  13.481  11.893  0.00  0.00     0.100 A 
HETATM    3  C   UNK N   1      35.067  12.163  11.966  0.00  0.00     0.122 A 
HETATM    4  N   UNK N   1      34.389  11.876  10.827  0.00  0.00    -0.359 N 
ATOM      5  HN  UNK N   1      33.969  10.981  10.574  1.00  0.00     0.166 HD
HETATM    6  C   UNK N   1      34.379  13.015  10.091  0.00  0.00     0.189 A 
HETATM    7  N   UNK N   1      35.029  14.003  10.733  0.00  0.00    -0.301 N 
HETATM    8  C   UNK N   1      35.271  15.304  10.385  0.00  0.00     0.066 A 
HETATM    9  C   UNK N   1      35.994  16.086  11.297  0.00  0.00     0.120 A 
HETATM   10  N   UNK N   1      36.421  15.545  12.470  0.00  0.00    -0.348 N 
ATOM     11  HN  UNK N   1      36.945  16.132  13.119  1.00  0.00     0.167 HD
ENDROOT
BRANCH   1  12
HETATM   12  N   UNK N   1      36.628  13.691  14.039  0.00  0.00    -0.340 N 
HETATM   13  H   UNK N   1      37.474  13.197  13.941  0.00  0.00     0.167 HD
BRANCH  12  14
HETATM   14  C   UNK N   1      36.132  13.676  15.396  0.00  0.00     0.045 A 
HETATM   15  C   UNK N   1      35.225  12.714  15.965  0.00  0.00    -0.035 A 
HETATM   16  C   UNK N   1      34.632  11.558  15.259  0.00  0.00     0.050 C 
HETATM   17  C   UNK N   1      34.836  12.834  17.301  0.00  0.00     0.009 A 
HETATM   18  C   UNK N   1      35.305  13.867  18.100  0.00  0.00     0.001 A 
HETATM   19  C   UNK N   1      36.180  14.804  17.570  0.00  0.00     0.009 A 
HETATM   20  C   UNK N   1      36.591  14.717  16.239  0.00  0.00    -0.035 A 
HETATM   21  C   UNK N   1      37.533  15.755  15.728  0.00  0.00     0.050 C 
ENDBRANCH  12  14
ENDBRANCH   1  12
BRANCH   8  22
HETATM   22  C   UNK N   1      34.816  15.923   9.109  0.00  0.00    -0.007 A 
HETATM   23  C   UNK N   1      35.054  15.323   7.864  0.00  0.00     0.014 A 
HETATM   24  C   UNK N   1      34.611  15.934   6.686  0.00  0.00     0.001 A 
HETATM   25  C   UNK N   1      33.926  17.151   6.741  0.00  0.00     0.000 A 
HETATM   26  C   UNK N   1      33.683  17.759   7.974  0.00  0.00     0.001 A 
HETATM   27  C   UNK N   1      34.124  17.149   9.148  0.00  0.00     0.014 A 
ENDBRANCH   8  22
TORSDOF 3
ENDMDL
MODEL 3
REMARK VINA RESULT:      -7.9      1.724      7.514
REMARK  3 active torsions:
REMARK  status: ('A' for Active; 'I' for Inactive)
REMARK    1  A    between atoms: C_6  and  N_9 
REMARK    2  A    between atoms: N_9  and  C_10 
REMARK    3  A    between atoms: C_17  and  C_21 
ROOT
HETATM    1  C   UNK N   1      36.314  14.495  12.918  0.00  0.00     0.135 A 
HETATM    2  C   UNK N   1      35.519  13.350  13.034  0.00  0.00     0.100 A 
HETATM    3  C   UNK N   1      34.832  12.650  12.069  0.00  0.00     0.122 A 
HETATM    4  N   UNK N   1      34.211  11.613  12.684  0.00  0.00    -0.359 N 
ATOM      5  HN  UNK N   1      33.621  10.906  12.244  1.00  0.00     0.166 HD
HETATM    6  C   UNK N   1      34.529  11.703  13.999  0.00  0.00     0.189 A 
HETATM    7  N   UNK N   1      35.329  12.762  14.225  0.00  0.00    -0.301 N 
HETATM    8  C   UNK N   1      35.893  13.241  15.375  0.00  0.00     0.066 A 
HETATM    9  C   UNK N   1      36.692  14.389  15.265  0.00  0.00     0.120 A 
HETATM   10  N   UNK N   1      36.877  14.976  14.052  0.00  0.00    -0.348 N 
ATOM     11  HN  UNK N   1      37.461  15.811  13.995  1.00  0.00     0.167 HD
ENDROOT
BRANCH   1  12
HETATM   12  N   UNK N   1      36.510  15.115  11.647  0.00  0.00    -0.340 N 
HETATM   13  H   UNK N   1      36.628  16.090  11.716  0.00  0.00     0.167 HD
BRANCH  12  14
HETATM   14  C   UNK N   1      36.577  14.645  10.282  0.00  0.00     0.045 A 
HETATM   15  C   UNK N   1      37.559  13.748   9.732  0.00  0.00    -0.035 A 
HETATM   16  C   UNK N   1      38.688  13.141  10.469  0.00  0.00     0.050 C 
HETATM   17  C   UNK N   1      37.489  13.384   8.385  0.00  0.00     0.009 A 
HETATM   18  C   UNK N   1      36.487  13.869   7.557  0.00  0.00     0.001 A 
HETATM   19  C   UNK N   1      35.531  14.735   8.069  0.00  0.00     0.009 A 
HETATM   20  C   UNK N   1      35.568  15.121   9.410  0.00  0.00    -0.035 A 
HETATM   21  C   UNK N   1      34.512  16.053   9.899  0.00  0.00     0.050 C 
ENDBRANCH  12  14
ENDBRANCH   1  12
BRANCH   8  22
HETATM   22  C   UNK N   1      35.709  12.619  16.716  0.00  0.00    -0.007 A 
HETATM   23  C   UNK N   1      35.972  11.261  16.949  0.00  0.00     0.014 A 
HETATM   24  C   UNK N   1      35.786  10.712  18.222  0.00  0.00     0.001 A 
HETATM   25  C   UNK N   1      35.337  11.514  19.275  0.00  0.00     0.000 A 
HETATM   26  C   UNK N   1      35.072  12.867  19.056  0.00  0.00     0.001 A 
HETATM   27  C   UNK N   1      35.256  13.414  17.786  0.00  0.00     0.014 A 
ENDBRANCH   8  22
TORSDOF 3
ENDMDL
MODEL 4
REMARK VINA RESULT:      -7.7      1.925      4.009
REMARK  3 active torsions:
REMARK  status: ('A' for Active; 'I' for Inactive)
REMARK    1  A    between atoms: C_6  and  N_9 
REMARK    2  A    between atoms: N_9  and  C_10 
REMARK    3  A    between atoms: C_17  and  C_21 
ROOT
HETATM    1  C   UNK N   1      34.609  13.623  10.645  0.00  0.00     0.135 A 
HETATM    2  C   UNK N   1      34.806  14.996  10.468  0.00  0.00     0.100 A 
HETATM    3  C   UNK N   1      35.637  15.864  11.141  0.00  0.00     0.122 A 
HETATM    4  N   UNK N   1      35.466  17.093  10.597  0.00  0.00    -0.359 N 
ATOM      5  HN  UNK N   1      35.938  17.955  10.872  1.00  0.00     0.166 HD
HETATM    6  C   UNK N   1      34.544  16.952   9.613  0.00  0.00     0.189 A 
HETATM    7  N   UNK N   1      34.133  15.673   9.525  0.00  0.00    -0.301 N 
HETATM    8  C   UNK N   1      33.229  15.067   8.696  0.00  0.00     0.066 A 
HETATM    9  C   UNK N   1      33.027  13.690   8.869  0.00  0.00     0.120 A 
HETATM   10  N   UNK N   1      33.715  13.015   9.829  0.00  0.00    -0.348 N 
ATOM     11  HN  UNK N   1      33.552  12.014   9.937  1.00  0.00     0.167 HD
ENDROOT
BRANCH   1  12
HETATM   12  N   UNK N   1      35.330  12.911  11.651  0.00  0.00    -0.340 N 
HETATM   13  H   UNK N   1      36.297  12.877  11.470  0.00  0.00     0.167 HD
BRANCH  12  14
HETATM   14  C   UNK N   1      34.971  12.230  12.874  0.00  0.00     0.045 A 
HETATM   15  C   UNK N   1      34.245  10.992  12.983  0.00  0.00    -0.035 A 
HETATM   16  C   UNK N   1      33.730  10.186  11.855  0.00  0.00     0.050 C 
HETATM   17  C   UNK N   1      33.974  10.455  14.244  0.00  0.00     0.009 A 
HETATM   18  C   UNK N   1      34.390  11.092  15.404  0.00  0.00     0.001 A 
HETATM   19  C   UNK N   1      35.091  12.286  15.320  0.00  0.00     0.009 A 
HETATM   20  C   UNK N   1      35.381  12.852  14.078  0.00  0.00    -0.035 A 
HETATM   21  C   UNK N   1      36.138  14.137  14.054  0.00  0.00     0.050 C 
ENDBRANCH  12  14
ENDBRANCH   1  12
BRANCH   8  22
HETATM   22  C   UNK N   1      32.461  15.779   7.638  0.00  0.00    -0.007 A 
HETATM   23  C   UNK N   1      31.237  16.412   7.905  0.00  0.00     0.014 A 
HETATM   24  C   UNK N   1      30.544  17.072   6.884  0.00  0.00     0.001 A 
HETATM   25  C   UNK N   1      31.066  17.106   5.588  0.00  0.00     0.000 A 
HETATM   26  C   UNK N   1      32.282  16.481   5.310  0.00  0.00     0.001 A 
HETATM   27  C   UNK N   1      32.974  15.823   6.328  0.00  0.00     0.014 A 
ENDBRANCH   8  22
TORSDOF 3
ENDMDL
MODEL 5
REMARK VINA RESULT:      -7.6      7.620     11.157
REMARK  3 active torsions:
REMARK  status: ('A' for Active; 'I' for Inactive)
REMARK    1  A    between atoms: C_6  and  N_9 
REMARK    2  A    between atoms: N_9  and  C_10 
REMARK    3  A    between atoms: C_17  and  C_21 
ROOT
HETATM    1  C   UNK N   1      28.818  17.213   5.765  0.00  0.00     0.135 A 
HETATM    2  C   UNK N   1      28.209  16.653   4.637  0.00  0.00     0.100 A 
HETATM    3  C   UNK N   1      28.552  15.536   3.910  0.00  0.00     0.122 A 
HETATM    4  N   UNK N   1      27.649  15.411   2.908  0.00  0.00    -0.359 N 
ATOM      5  HN  UNK N   1      27.625  14.683   2.193  1.00  0.00     0.166 HD
HETATM    6  C   UNK N   1      26.782  16.444   3.043  0.00  0.00     0.189 A 
HETATM    7  N   UNK N   1      27.114  17.211   4.098  0.00  0.00    -0.301 N 
HETATM    8  C   UNK N   1      26.541  18.342   4.612  0.00  0.00     0.066 A 
HETATM    9  C   UNK N   1      27.148  18.908   5.743  0.00  0.00     0.120 A 
HETATM   10  N   UNK N   1      28.257  18.333   6.281  0.00  0.00    -0.348 N 
ATOM     11  HN  UNK N   1      28.682  18.761   7.104  1.00  0.00     0.167 HD
ENDROOT
BRANCH   1  12
HETATM   12  N   UNK N   1      29.983  16.613   6.332  0.00  0.00    -0.340 N 
HETATM   13  H   UNK N   1      29.825  15.686   6.625  0.00  0.00     0.167 HD
BRANCH  12  14
HETATM   14  C   UNK N   1      31.339  17.048   6.577  0.00  0.00     0.045 A 
HETATM   15  C   UNK N   1      32.409  17.095   5.616  0.00  0.00    -0.035 A 
HETATM   16  C   UNK N   1      32.315  16.704   4.193  0.00  0.00     0.050 C 
HETATM   17  C   UNK N   1      33.673  17.543   6.008  0.00  0.00     0.009 A 
HETATM   18  C   UNK N   1      33.925  17.946   7.312  0.00  0.00     0.001 A 
HETATM   19  C   UNK N   1      32.906  17.907   8.252  0.00  0.00     0.009 A 
HETATM   20  C   UNK N   1      31.630  17.466   7.898  0.00  0.00    -0.035 A 
HETATM   21  C   UNK N   1      30.578  17.448   8.955  0.00  0.00     0.050 C 
ENDBRANCH  12  14
ENDBRANCH   1  12
BRANCH   8  22
HETATM   22  C   UNK N   1      25.328  18.993   4.045  0.00  0.00    -0.007 A 
HETATM   23  C   UNK N   1      25.408  20.115   3.207  0.00  0.00     0.014 A 
HETATM   24  C   UNK N   1      24.246  20.700   2.693  0.00  0.00     0.001 A 
HETATM   25  C   UNK N   1      22.993  20.170   3.011  0.00  0.00     0.000 A 
HETATM   26  C   UNK N   1      22.899  19.054   3.844  0.00  0.00     0.001 A 
HETATM   27  C   UNK N   1      24.058  18.471   4.357  0.00  0.00     0.014 A 
ENDBRANCH   8  22
TORSDOF 3
ENDMDL
MODEL 6
REMARK VINA RESULT:      -7.5      7.648     11.188
REMARK  3 active torsions:
REMARK  status: ('A' for Active; 'I' for Inactive)
REMARK    1  A    between atoms: C_6  and  N_9 
REMARK    2  A    between atoms: N_9  and  C_10 
REMARK    3  A    between atoms: C_17  and  C_21 
ROOT
HETATM    1  C   UNK N   1      29.041  17.161   5.271  0.00  0.00     0.135 A 
HETATM    2  C   UNK N   1      28.287  16.553   4.262  0.00  0.00     0.100 A 
HETATM    3  C   UNK N   1      28.523  15.393   3.559  0.00  0.00     0.122 A 
HETATM    4  N   UNK N   1      27.498  15.230   2.688  0.00  0.00    -0.359 N 
ATOM      5  HN  UNK N   1      27.376  14.466   2.023  1.00  0.00     0.166 HD
HETATM    6  C   UNK N   1      26.664  16.282   2.877  0.00  0.00     0.189 A 
HETATM    7  N   UNK N   1      27.137  17.099   3.837  0.00  0.00    -0.301 N 
HETATM    8  C   UNK N   1      26.645  18.264   4.359  0.00  0.00     0.066 A 
HETATM    9  C   UNK N   1      27.397  18.878   5.371  0.00  0.00     0.120 A 
HETATM   10  N   UNK N   1      28.561  18.315   5.792  0.00  0.00    -0.348 N 
ATOM     11  HN  UNK N   1      29.091  18.780   6.530  1.00  0.00     0.167 HD
ENDROOT
BRANCH   1  12
HETATM   12  N   UNK N   1      30.263  16.573   5.716  0.00  0.00    -0.340 N 
HETATM   13  H   UNK N   1      30.330  15.619   5.484  0.00  0.00     0.167 HD
BRANCH  12  14
HETATM   14  C   UNK N   1      31.425  17.052   6.428  0.00  0.00     0.045 A 
HETATM   15  C   UNK N   1      31.492  17.397   7.824  0.00  0.00    -0.035 A 
HETATM   16  C   UNK N   1      30.375  17.323   8.790  0.00  0.00     0.050 C 
HETATM   17  C   UNK N   1      32.697  17.848   8.370  0.00  0.00     0.009 A 
HETATM   18  C   UNK N   1      33.840  17.972   7.593  0.00  0.00     0.001 A 
HETATM   19  C   UNK N   1      33.795  17.644   6.246  0.00  0.00     0.009 A 
HETATM   20  C   UNK N   1      32.610  17.190   5.665  0.00  0.00    -0.035 A 
HETATM   21  C   UNK N   1      32.628  16.854   4.212  0.00  0.00     0.050 C 
ENDBRANCH  12  14
ENDBRANCH   1  12
BRANCH   8  22
HETATM   22  C   UNK N   1      25.374  18.903   3.917  0.00  0.00    -0.007 A 
HETATM   23  C   UNK N   1      24.119  18.387   4.271  0.00  0.00     0.014 A 
HETATM   24  C   UNK N   1      22.947  19.015   3.837  0.00  0.00     0.001 A 
HETATM   25  C   UNK N   1      23.017  20.165   3.046  0.00  0.00     0.000 A 
HETATM   26  C   UNK N   1      24.260  20.688   2.687  0.00  0.00     0.001 A 
HETATM   27  C   UNK N   1      25.429  20.062   3.120  0.00  0.00     0.014 A 
ENDBRANCH   8  22
TORSDOF 3
ENDMDL
MODEL 7
REMARK VINA RESULT:      -7.5      1.630      2.513
REMARK  3 active torsions:
REMARK  status: ('A' for Active; 'I' for Inactive)
REMARK    1  A    between atoms: C_6  and  N_9 
REMARK    2  A    between atoms: N_9  and  C_10 
REMARK    3  A    between atoms: C_17  and  C_21 
ROOT
HETATM    1  C   UNK N   1      35.898  12.989  11.985  0.00  0.00     0.135 A 
HETATM    2  C   UNK N   1      36.827  13.375  11.012  0.00  0.00     0.100 A 
HETATM    3  C   UNK N   1      38.131  12.977  10.829  0.00  0.00     0.122 A 
HETATM    4  N   UNK N   1      38.609  13.638   9.746  0.00  0.00    -0.359 N 
ATOM      5  HN  UNK N   1      39.546  13.564   9.349  1.00  0.00     0.166 HD
HETATM    6  C   UNK N   1      37.596  14.418   9.296  0.00  0.00     0.189 A 
HETATM    7  N   UNK N   1      36.500  14.265  10.062  0.00  0.00    -0.301 N 
HETATM    8  C   UNK N   1      35.259  14.837   9.993  0.00  0.00     0.066 A 
HETATM    9  C   UNK N   1      34.323  14.453  10.965  0.00  0.00     0.120 A 
HETATM   10  N   UNK N   1      34.667  13.550  11.923  0.00  0.00    -0.348 N 
ATOM     11  HN  UNK N   1      33.971  13.286  12.620  1.00  0.00     0.167 HD
ENDROOT
BRANCH   1  12
HETATM   12  N   UNK N   1      36.255  12.041  12.991  0.00  0.00    -0.340 N 
HETATM   13  H   UNK N   1      36.935  11.401  12.682  0.00  0.00     0.167 HD
BRANCH  12  14
HETATM   14  C   UNK N   1      35.850  11.803  14.357  0.00  0.00     0.045 A 
HETATM   15  C   UNK N   1      36.095  12.663  15.485  0.00  0.00    -0.035 A 
HETATM   16  C   UNK N   1      36.811  13.957  15.450  0.00  0.00     0.050 C 
HETATM   17  C   UNK N   1      35.638  12.293  16.752  0.00  0.00     0.009 A 
HETATM   18  C   UNK N   1      34.947  11.106  16.952  0.00  0.00     0.001 A 
HETATM   19  C   UNK N   1      34.702  10.264  15.877  0.00  0.00     0.009 A 
HETATM   20  C   UNK N   1      35.143  10.600  14.597  0.00  0.00    -0.035 A 
HETATM   21  C   UNK N   1      34.847   9.652  13.484  0.00  0.00     0.050 C 
ENDBRANCH  12  14
ENDBRANCH   1  12
BRANCH   8  22
HETATM   22  C   UNK N   1      34.854  15.827   8.957  0.00  0.00    -0.007 A 
HETATM   23  C   UNK N   1      34.763  17.199   9.235  0.00  0.00     0.014 A 
HETATM   24  C   UNK N   1      34.379  18.100   8.236  0.00  0.00     0.001 A 
HETATM   25  C   UNK N   1      34.084  17.640   6.950  0.00  0.00     0.000 A 
HETATM   26  C   UNK N   1      34.172  16.277   6.661  0.00  0.00     0.001 A 
HETATM   27  C   UNK N   1      34.554  15.379   7.657  0.00  0.00     0.014 A 
ENDBRANCH   8  22
TORSDOF 3
ENDMDL
MODEL 8
REMARK VINA RESULT:      -7.4      8.103     11.916
REMARK  3 active torsions:
REMARK  status: ('A' for Active; 'I' for Inactive)
REMARK    1  A    between atoms: C_6  and  N_9 
REMARK    2  A    between atoms: N_9  and  C_10 
REMARK    3  A    between atoms: C_17  and  C_21 
ROOT
HETATM    1  C   UNK N   1      28.178  17.280   5.499  0.00  0.00     0.135 A 
HETATM    2  C   UNK N   1      27.663  18.454   6.058  0.00  0.00     0.100 A 
HETATM    3  C   UNK N   1      28.124  19.208   7.113  0.00  0.00     0.122 A 
HETATM    4  N   UNK N   1      27.276  20.253   7.268  0.00  0.00    -0.359 N 
ATOM      5  HN  UNK N   1      27.340  20.996   7.965  1.00  0.00     0.166 HD
HETATM    6  C   UNK N   1      26.323  20.117   6.313  0.00  0.00     0.189 A 
HETATM    7  N   UNK N   1      26.549  19.020   5.566  0.00  0.00    -0.301 N 
HETATM    8  C   UNK N   1      25.866  18.488   4.507  0.00  0.00     0.066 A 
HETATM    9  C   UNK N   1      26.378  17.311   3.943  0.00  0.00     0.120 A 
HETATM   10  N   UNK N   1      27.508  16.747   4.450  0.00  0.00    -0.348 N 
ATOM     11  HN  UNK N   1      27.863  15.891   4.024  1.00  0.00     0.167 HD
ENDROOT
BRANCH   1  12
HETATM   12  N   UNK N   1      29.364  16.686   6.029  0.00  0.00    -0.340 N 
HETATM   13  H   UNK N   1      29.173  15.906   6.599  0.00  0.00     0.167 HD
BRANCH  12  14
HETATM   14  C   UNK N   1      30.778  16.962   5.923  0.00  0.00     0.045 A 
HETATM   15  C   UNK N   1      31.550  17.022   4.711  0.00  0.00    -0.035 A 
HETATM   16  C   UNK N   1      31.033  16.811   3.341  0.00  0.00     0.050 C 
HETATM   17  C   UNK N   1      32.918  17.301   4.772  0.00  0.00     0.009 A 
HETATM   18  C   UNK N   1      33.556  17.524   5.985  0.00  0.00     0.001 A 
HETATM   19  C   UNK N   1      32.828  17.470   7.164  0.00  0.00     0.009 A 
HETATM   20  C   UNK N   1      31.460  17.194   7.142  0.00  0.00    -0.035 A 
HETATM   21  C   UNK N   1      30.734  17.150   8.445  0.00  0.00     0.050 C 
ENDBRANCH  12  14
ENDBRANCH   1  12
BRANCH   8  22
HETATM   22  C   UNK N   1      24.628  19.082   3.931  0.00  0.00    -0.007 A 
HETATM   23  C   UNK N   1      24.653  20.264   3.175  0.00  0.00     0.014 A 
HETATM   24  C   UNK N   1      23.469  20.793   2.650  0.00  0.00     0.001 A 
HETATM   25  C   UNK N   1      22.250  20.147   2.875  0.00  0.00     0.000 A 
HETATM   26  C   UNK N   1      22.213  18.971   3.625  0.00  0.00     0.001 A 
HETATM   27  C   UNK N   1      23.393  18.444   4.149  0.00  0.00     0.014 A 
ENDBRANCH   8  22
TORSDOF 3
ENDMDL
MODEL 9
REMARK VINA RESULT:      -7.4      6.686     11.387
REMARK  3 active torsions:
REMARK  status: ('A' for Active; 'I' for Inactive)
REMARK    1  A    between atoms: C_6  and  N_9 
REMARK    2  A    between atoms: N_9  and  C_10 
REMARK    3  A    between atoms: C_17  and  C_21 
ROOT
HETATM    1  C   UNK N   1      28.425  17.175   6.242  0.00  0.00     0.135 A 
HETATM    2  C   UNK N   1      28.635  17.687   7.527  0.00  0.00     0.100 A 
HETATM    3  C   UNK N   1      27.747  18.267   8.403  0.00  0.00     0.122 A 
HETATM    4  N   UNK N   1      28.437  18.600   9.521  0.00  0.00    -0.359 N 
ATOM      5  HN  UNK N   1      28.065  19.047  10.359  1.00  0.00     0.166 HD
HETATM    6  C   UNK N   1      29.720  18.219   9.306  0.00  0.00     0.189 A 
HETATM    7  N   UNK N   1      29.854  17.659   8.089  0.00  0.00    -0.301 N 
HETATM    8  C   UNK N   1      30.943  17.136   7.446  0.00  0.00     0.066 A 
HETATM    9  C   UNK N   1      30.738  16.622   6.158  0.00  0.00     0.120 A 
HETATM   10  N   UNK N   1      29.498  16.656   5.599  0.00  0.00    -0.348 N 
ATOM     11  HN  UNK N   1      29.372  16.275   4.661  1.00  0.00     0.167 HD
ENDROOT
BRANCH   1  12
HETATM   12  N   UNK N   1      27.125  17.209   5.653  0.00  0.00    -0.340 N 
HETATM   13  H   UNK N   1      26.631  16.368   5.780  0.00  0.00     0.167 HD
BRANCH  12  14
HETATM   14  C   UNK N   1      26.366  18.191   4.913  0.00  0.00     0.045 A 
HETATM   15  C   UNK N   1      26.850  19.454   4.420  0.00  0.00    -0.035 A 
HETATM   16  C   UNK N   1      28.222  19.981   4.583  0.00  0.00     0.050 C 
HETATM   17  C   UNK N   1      25.989  20.300   3.717  0.00  0.00     0.009 A 
HETATM   18  C   UNK N   1      24.667  19.950   3.480  0.00  0.00     0.001 A 
HETATM   19  C   UNK N   1      24.182  18.737   3.946  0.00  0.00     0.009 A 
HETATM   20  C   UNK N   1      25.013  17.866   4.653  0.00  0.00    -0.035 A 
HETATM   21  C   UNK N   1      24.432  16.577   5.128  0.00  0.00     0.050 C 
ENDBRANCH  12  14
ENDBRANCH   1  12
BRANCH   8  22
HETATM   22  C   UNK N   1      32.310  17.086   8.032  0.00  0.00    -0.007 A 
HETATM   23  C   UNK N   1      33.238  18.122   7.849  0.00  0.00     0.014 A 
HETATM   24  C   UNK N   1      34.514  18.039   8.415  0.00  0.00     0.001 A 
HETATM   25  C   UNK N   1      34.877  16.920   9.170  0.00  0.00     0.000 A 
HETATM   26  C   UNK N   1      33.963  15.882   9.360  0.00  0.00     0.001 A 
HETATM   27  C   UNK N   1      32.690  15.965   8.795  0.00  0.00     0.014 A 
ENDBRANCH   8  22
TORSDOF 3
ENDMDL
