REMARK  3 active torsions:
REMARK  status: ('A' for Active; 'I' for Inactive)
REMARK    1  A    between atoms: C_6  and  N_9 
REMARK    2  A    between atoms: N_9  and  C_10 
REMARK    3  A    between atoms: C_17  and  C_21 
ROOT
HETATM    1  C   UNK N   1      -0.434  -0.769   0.000  0.00  0.00     0.135 A 
HETATM    2  C   UNK N   1      -1.681  -0.135  -0.000  0.00  0.00     0.100 A 
HETATM    3  C   UNK N   1      -2.947  -0.675  -0.000  0.00  0.00     0.122 A 
HETATM    4  N   UNK N   1      -3.828   0.355  -0.000  0.00  0.00    -0.359 N 
ATOM      5  HN  UNK N   1      -4.846   0.289  -0.000  1.00  0.00     0.166 HD
HETATM    6  C   UNK N   1      -3.088   1.491  -0.000  0.00  0.00     0.189 A 
HETATM    7  N   UNK N   1      -1.773   1.204  -0.000  0.00  0.00    -0.301 N 
HETATM    8  C   UNK N   1      -0.669   2.012   0.000  0.00  0.00     0.066 A 
HETATM    9  C   UNK N   1       0.584   1.382   0.000  0.00  0.00     0.120 A 
HETATM   10  N   UNK N   1       0.664   0.024   0.000  0.00  0.00    -0.348 N 
ATOM     11  HN  UNK N   1       1.586  -0.413   0.000  1.00  0.00     0.167 HD
ENDROOT
BRANCH   1  12
HETATM   12  N   UNK N   1      -0.346  -2.194   0.000  0.00  0.00    -0.340 N 
HETATM   13  H   UNK N   1      -1.230  -2.627  -0.000  0.00  0.00     0.167 HD
BRANCH  12  14
HETATM   14  C   UNK N   1       0.738  -3.149  -0.000  0.00  0.00     0.045 A 
HETATM   15  C   UNK N   1       2.145  -2.847  -0.000  0.00  0.00    -0.035 A 
HETATM   16  C   UNK N   1       2.742  -1.494  -0.000  0.00  0.00     0.050 C 
HETATM   17  C   UNK N   1       3.078  -3.887  -0.000  0.00  0.00     0.009 A 
HETATM   18  C   UNK N   1       2.678  -5.216  -0.000  0.00  0.00     0.001 A 
HETATM   19  C   UNK N   1       1.326  -5.527   0.000  0.00  0.00     0.009 A 
HETATM   20  C   UNK N   1       0.365  -4.515   0.000  0.00  0.00    -0.035 A 
HETATM   21  C   UNK N   1      -1.072  -4.915   0.000  0.00  0.00     0.050 C 
ENDBRANCH  12  14
ENDBRANCH   1  12
BRANCH   8  22
HETATM   22  C   UNK N   1      -0.726   3.500   0.000  0.00  0.00    -0.007 A 
HETATM   23  C   UNK N   1      -1.943   4.198  -0.000  0.00  0.00     0.014 A 
HETATM   24  C   UNK N   1      -1.957   5.597  -0.000  0.00  0.00     0.001 A 
HETATM   25  C   UNK N   1      -0.756   6.312  -0.000  0.00  0.00     0.000 A 
HETATM   26  C   UNK N   1       0.461   5.629   0.000  0.00  0.00     0.001 A 
HETATM   27  C   UNK N   1       0.475   4.234   0.000  0.00  0.00     0.014 A 
ENDBRANCH   8  22
TORSDOF 3
