REMARK  3 active torsions:
REMARK  status: ('A' for Active; 'I' for Inactive)
REMARK    1  A    between atoms: C_8  and  N_9 
REMARK    2  A    between atoms: N_9  and  C_10 
REMARK    3  A    between atoms: C_20  and  N_25 
ROOT
HETATM    1  C   UNK N   1      -2.433   1.740   0.034  0.00  0.00     0.135 A 
HETATM    2  C   UNK N   1      -3.038   0.496   0.224  0.00  0.00     0.100 A 
HETATM    3  C   UNK N   1      -4.344   0.172   0.518  0.00  0.00     0.122 A 
HETATM    4  N   UNK N   1      -4.414  -1.179   0.621  0.00  0.00    -0.359 N 
ATOM      5  HN  UNK N   1      -5.246  -1.734   0.820  1.00  0.00     0.166 HD
HETATM    6  N   UNK N   1      -1.112   1.766  -0.315  0.00  0.00    -0.339 N 
ATOM      7  HN  UNK N   1      -0.672   2.659  -0.540  1.00  0.00     0.167 HD
HETATM    8  C   UNK N   1      -0.370   0.624  -0.370  0.00  0.00     0.061 A 
HETATM    9  C   UNK N   1       0.997   0.676  -0.659  0.00  0.00     0.034 A 
HETATM   10  C   UNK N   1       1.763  -0.495  -0.603  0.00  0.00     0.031 A 
HETATM   11  C   UNK N   1       1.163  -1.716  -0.243  0.00  0.00     0.032 A 
HETATM   12  C   UNK N   1      -0.219  -1.768  -0.019  0.00  0.00     0.061 A 
HETATM   13  C   UNK N   1      -0.984  -0.613  -0.088  0.00  0.00     0.069 A 
HETATM   14  N   UNK N   1      -2.318  -0.624   0.157  0.00  0.00    -0.301 N 
HETATM   15  C   UNK N   1      -3.159  -1.642   0.406  0.00  0.00     0.189 A 
ENDROOT
BRANCH   1  16
HETATM   16  N   UNK N   1      -3.177   2.937   0.189  0.00  0.00    -0.339 N 
HETATM   17  H   UNK N   1      -4.142   2.847   0.363  0.00  0.00     0.167 HD
BRANCH  16  18
HETATM   18  C   UNK N   1      -2.648   4.261   0.114  0.00  0.00     0.061 A 
HETATM   19  C   UNK N   1      -1.388   4.647   0.667  0.00  0.00     0.061 A 
HETATM   20 Cl   UNK N   1      -0.376   3.602   1.659  0.00  0.00    -0.082 Cl
HETATM   21  C   UNK N   1      -0.937   5.959   0.499  0.00  0.00     0.026 A 
HETATM   22  C   UNK N   1      -1.706   6.895  -0.188  0.00  0.00     0.002 A 
HETATM   23  C   UNK N   1      -2.958   6.540  -0.681  0.00  0.00     0.009 A 
HETATM   24  C   UNK N   1      -3.432   5.237  -0.528  0.00  0.00    -0.034 A 
HETATM   25  C   UNK N   1      -4.782   4.896  -1.064  0.00  0.00     0.050 C 
ENDBRANCH  16  18
ENDBRANCH   1  16
BRANCH  11  26
HETATM   26  N   UNK N   1       1.949  -2.873   0.005  0.00  0.00    -0.377 N 
HETATM   27  C   UNK N   1       3.332  -2.961  -0.425  0.00  0.00     0.142 C 
HETATM   28  C   UNK N   1       3.867  -4.374  -0.161  0.00  0.00     0.134 C 
HETATM   29  N   UNK N   1       2.862  -5.362  -0.572  0.00  0.00    -0.414 N 
HETATM   30  C   UNK N   1       1.628  -5.282   0.232  0.00  0.00     0.090 C 
HETATM   31  H   UNK N   1       3.002  -6.031  -1.330  0.00  0.00     0.153 HD
HETATM   32  C   UNK N   1       0.436  -5.592  -0.649  0.00  0.00     0.033 C 
HETATM   33  C   UNK N   1       1.420  -3.913   0.862  0.00  0.00     0.147 C 
ENDBRANCH  11  26
TORSDOF 3
