MODEL 1
REMARK VINA RESULT:      -8.5      0.000      0.000
REMARK  3 active torsions:
REMARK  status: ('A' for Active; 'I' for Inactive)
REMARK    1  A    between atoms: C_8  and  N_9 
REMARK    2  A    between atoms: N_9  and  C_10 
REMARK    3  A    between atoms: C_20  and  N_25 
ROOT
HETATM    1  C   UNK N   1      36.495  13.744  13.192  0.00  0.00     0.135 A 
HETATM    2  C   UNK N   1      36.261  12.688  12.309  0.00  0.00     0.100 A 
HETATM    3  C   UNK N   1      36.472  11.335  12.458  0.00  0.00     0.122 A 
HETATM    4  N   UNK N   1      36.099  10.736  11.298  0.00  0.00    -0.359 N 
ATOM      5  HN  UNK N   1      36.123   9.738  11.092  1.00  0.00     0.166 HD
HETATM    6  N   UNK N   1      36.129  15.002  12.801  0.00  0.00    -0.339 N 
ATOM      7  HN  UNK N   1      36.213  15.775  13.462  1.00  0.00     0.167 HD
HETATM    8  C   UNK N   1      35.651  15.244  11.548  0.00  0.00     0.061 A 
HETATM    9  C   UNK N   1      35.349  16.547  11.141  0.00  0.00     0.034 A 
HETATM   10  C   UNK N   1      34.964  16.789   9.816  0.00  0.00     0.031 A 
HETATM   11  C   UNK N   1      34.898  15.728   8.894  0.00  0.00     0.032 A 
HETATM   12  C   UNK N   1      35.140  14.418   9.329  0.00  0.00     0.061 A 
HETATM   13  C   UNK N   1      35.507  14.172  10.644  0.00  0.00     0.069 A 
HETATM   14  N   UNK N   1      35.781  12.920  11.087  0.00  0.00    -0.301 N 
HETATM   15  C   UNK N   1      35.690  11.729  10.472  0.00  0.00     0.189 A 
ENDROOT
BRANCH   1  16
HETATM   16  N   UNK N   1      37.085  13.510  14.459  0.00  0.00    -0.339 N 
HETATM   17  H   UNK N   1      38.020  13.201  14.470  0.00  0.00     0.167 HD
BRANCH  16  18
HETATM   18  C   UNK N   1      36.441  13.684  15.722  0.00  0.00     0.061 A 
HETATM   19  C   UNK N   1      35.527  12.741  16.285  0.00  0.00     0.061 A 
HETATM   20 Cl   UNK N   1      34.932  11.311  15.447  0.00  0.00    -0.082 Cl
HETATM   21  C   UNK N   1      34.985  12.981  17.551  0.00  0.00     0.026 A 
HETATM   22  C   UNK N   1      35.315  14.132  18.261  0.00  0.00     0.002 A 
HETATM   23  C   UNK N   1      36.162  15.081  17.695  0.00  0.00     0.009 A 
HETATM   24  C   UNK N   1      36.717  14.866  16.433  0.00  0.00    -0.034 A 
HETATM   25  C   UNK N   1      37.615  15.908  15.856  0.00  0.00     0.050 C 
ENDBRANCH  16  18
ENDBRANCH   1  16
BRANCH  11  26
HETATM   26  N   UNK N   1      34.697  15.972   7.510  0.00  0.00    -0.377 N 
HETATM   27  C   UNK N   1      34.031  17.171   7.036  0.00  0.00     0.142 C 
HETATM   28  C   UNK N   1      33.822  17.082   5.519  0.00  0.00     0.134 C 
HETATM   29  N   UNK N   1      33.343  15.739   5.170  0.00  0.00    -0.414 N 
HETATM   30  C   UNK N   1      34.336  14.690   5.464  0.00  0.00     0.090 C 
HETATM   31  H   UNK N   1      32.424  15.552   4.767  0.00  0.00     0.153 HD
HETATM   32  C   UNK N   1      33.620  13.436   5.922  0.00  0.00     0.033 C 
HETATM   33  C   UNK N   1      35.329  15.100   6.542  0.00  0.00     0.147 C 
ENDBRANCH  11  26
TORSDOF 3
ENDMDL
MODEL 2
REMARK VINA RESULT:      -8.4      1.094      1.681
REMARK  3 active torsions:
REMARK  status: ('A' for Active; 'I' for Inactive)
REMARK    1  A    between atoms: C_8  and  N_9 
REMARK    2  A    between atoms: N_9  and  C_10 
REMARK    3  A    between atoms: C_20  and  N_25 
ROOT
HETATM    1  C   UNK N   1      36.472  13.498  13.175  0.00  0.00     0.135 A 
HETATM    2  C   UNK N   1      36.198  12.492  12.247  0.00  0.00     0.100 A 
HETATM    3  C   UNK N   1      36.374  11.128  12.327  0.00  0.00     0.122 A 
HETATM    4  N   UNK N   1      35.970  10.596  11.147  0.00  0.00    -0.359 N 
ATOM      5  HN  UNK N   1      35.963   9.609  10.892  1.00  0.00     0.166 HD
HETATM    6  N   UNK N   1      36.134  14.782  12.851  0.00  0.00    -0.339 N 
ATOM      7  HN  UNK N   1      36.249  15.520  13.546  1.00  0.00     0.167 HD
HETATM    8  C   UNK N   1      35.646  15.097  11.618  0.00  0.00     0.061 A 
HETATM    9  C   UNK N   1      35.373  16.426  11.278  0.00  0.00     0.034 A 
HETATM   10  C   UNK N   1      34.977  16.741   9.973  0.00  0.00     0.031 A 
HETATM   11  C   UNK N   1      34.869  15.727   9.002  0.00  0.00     0.032 A 
HETATM   12  C   UNK N   1      35.082  14.392   9.370  0.00  0.00     0.061 A 
HETATM   13  C   UNK N   1      35.460  14.074  10.666  0.00  0.00     0.069 A 
HETATM   14  N   UNK N   1      35.707  12.795  11.045  0.00  0.00    -0.301 N 
HETATM   15  C   UNK N   1      35.576  11.638  10.375  0.00  0.00     0.189 A 
ENDROOT
BRANCH   1  16
HETATM   16  N   UNK N   1      37.074  13.188  14.421  0.00  0.00    -0.339 N 
HETATM   17  H   UNK N   1      37.967  12.773  14.398  0.00  0.00     0.167 HD
BRANCH  16  18
HETATM   18  C   UNK N   1      36.496  13.424  15.705  0.00  0.00     0.061 A 
HETATM   19  C   UNK N   1      36.597  14.664  16.408  0.00  0.00     0.061 A 
HETATM   20 Cl   UNK N   1      37.578  16.028  15.880  0.00  0.00    -0.082 Cl
HETATM   21  C   UNK N   1      35.956  14.810  17.641  0.00  0.00     0.026 A 
HETATM   22  C   UNK N   1      35.232  13.758  18.197  0.00  0.00     0.002 A 
HETATM   23  C   UNK N   1      35.175  12.531  17.544  0.00  0.00     0.009 A 
HETATM   24  C   UNK N   1      35.806  12.358  16.312  0.00  0.00    -0.034 A 
HETATM   25  C   UNK N   1      35.729  11.025  15.645  0.00  0.00     0.050 C 
ENDBRANCH  16  18
ENDBRANCH   1  16
BRANCH  11  26
HETATM   26  N   UNK N   1      34.656  16.043   7.634  0.00  0.00    -0.377 N 
HETATM   27  C   UNK N   1      34.065  17.304   7.226  0.00  0.00     0.142 C 
HETATM   28  C   UNK N   1      33.816  17.294   5.713  0.00  0.00     0.134 C 
HETATM   29  N   UNK N   1      33.238  16.002   5.321  0.00  0.00    -0.414 N 
HETATM   30  C   UNK N   1      34.163  14.876   5.548  0.00  0.00     0.090 C 
HETATM   31  H   UNK N   1      32.299  15.896   4.934  0.00  0.00     0.153 HD
HETATM   32  C   UNK N   1      33.371  13.657   5.971  0.00  0.00     0.033 C 
HETATM   33  C   UNK N   1      35.204  15.171   6.617  0.00  0.00     0.147 C 
ENDBRANCH  11  26
TORSDOF 3
ENDMDL
MODEL 3
REMARK VINA RESULT:      -7.9      4.457      9.592
REMARK  3 active torsions:
REMARK  status: ('A' for Active; 'I' for Inactive)
REMARK    1  A    between atoms: C_8  and  N_9 
REMARK    2  A    between atoms: N_9  and  C_10 
REMARK    3  A    between atoms: C_20  and  N_25 
ROOT
HETATM    1  C   UNK N   1      30.036  16.360   6.558  0.00  0.00     0.135 A 
HETATM    2  C   UNK N   1      30.561  15.167   6.059  0.00  0.00     0.100 A 
HETATM    3  C   UNK N   1      30.006  14.227   5.219  0.00  0.00     0.122 A 
HETATM    4  N   UNK N   1      30.921  13.239   5.054  0.00  0.00    -0.359 N 
ATOM      5  HN  UNK N   1      30.820  12.402   4.480  1.00  0.00     0.166 HD
HETATM    6  N   UNK N   1      30.843  17.143   7.334  0.00  0.00    -0.339 N 
ATOM      7  HN  UNK N   1      30.508  18.058   7.640  1.00  0.00     0.167 HD
HETATM    8  C   UNK N   1      32.086  16.729   7.708  0.00  0.00     0.061 A 
HETATM    9  C   UNK N   1      32.871  17.511   8.562  0.00  0.00     0.034 A 
HETATM   10  C   UNK N   1      34.098  17.019   9.021  0.00  0.00     0.031 A 
HETATM   11  C   UNK N   1      34.534  15.736   8.638  0.00  0.00     0.032 A 
HETATM   12  C   UNK N   1      33.771  14.989   7.732  0.00  0.00     0.061 A 
HETATM   13  C   UNK N   1      32.561  15.479   7.263  0.00  0.00     0.069 A 
HETATM   14  N   UNK N   1      31.783  14.765   6.412  0.00  0.00    -0.301 N 
HETATM   15  C   UNK N   1      31.996  13.587   5.802  0.00  0.00     0.189 A 
ENDROOT
BRANCH   1  16
HETATM   16  N   UNK N   1      28.706  16.747   6.254  0.00  0.00    -0.339 N 
HETATM   17  H   UNK N   1      28.028  16.034   6.213  0.00  0.00     0.167 HD
BRANCH  16  18
HETATM   18  C   UNK N   1      28.265  18.082   6.000  0.00  0.00     0.061 A 
HETATM   19  C   UNK N   1      28.032  19.050   7.025  0.00  0.00     0.061 A 
HETATM   20 Cl   UNK N   1      28.092  18.707   8.750  0.00  0.00    -0.082 Cl
HETATM   21  C   UNK N   1      27.647  20.346   6.670  0.00  0.00     0.026 A 
HETATM   22  C   UNK N   1      27.476  20.698   5.333  0.00  0.00     0.002 A 
HETATM   23  C   UNK N   1      27.648  19.745   4.334  0.00  0.00     0.009 A 
HETATM   24  C   UNK N   1      28.033  18.444   4.661  0.00  0.00    -0.034 A 
HETATM   25  C   UNK N   1      28.202  17.448   3.563  0.00  0.00     0.050 C 
ENDBRANCH  16  18
ENDBRANCH   1  16
BRANCH  11  26
HETATM   26  N   UNK N   1      35.676  15.142   9.238  0.00  0.00    -0.377 N 
HETATM   27  C   UNK N   1      36.519  14.209   8.513  0.00  0.00     0.142 C 
HETATM   28  C   UNK N   1      37.570  13.618   9.461  0.00  0.00     0.134 C 
HETATM   29  N   UNK N   1      36.935  13.261  10.735  0.00  0.00    -0.414 N 
HETATM   30  C   UNK N   1      36.413  14.437  11.456  0.00  0.00     0.090 C 
HETATM   31  H   UNK N   1      36.863  12.304  11.084  0.00  0.00     0.153 HD
HETATM   32  C   UNK N   1      35.137  14.055  12.178  0.00  0.00     0.033 C 
HETATM   33  C   UNK N   1      36.114  15.611  10.536  0.00  0.00     0.147 C 
ENDBRANCH  11  26
TORSDOF 3
ENDMDL
MODEL 4
REMARK VINA RESULT:      -7.7      9.182     13.258
REMARK  3 active torsions:
REMARK  status: ('A' for Active; 'I' for Inactive)
REMARK    1  A    between atoms: C_8  and  N_9 
REMARK    2  A    between atoms: N_9  and  C_10 
REMARK    3  A    between atoms: C_20  and  N_25 
ROOT
HETATM    1  C   UNK N   1      27.809  17.006   5.524  0.00  0.00     0.135 A 
HETATM    2  C   UNK N   1      27.439  18.340   5.706  0.00  0.00     0.100 A 
HETATM    3  C   UNK N   1      28.115  19.383   6.299  0.00  0.00     0.122 A 
HETATM    4  N   UNK N   1      27.311  20.475   6.238  0.00  0.00    -0.359 N 
ATOM      5  HN  UNK N   1      27.526  21.411   6.581  1.00  0.00     0.166 HD
HETATM    6  N   UNK N   1      26.956  16.190   4.835  0.00  0.00    -0.339 N 
ATOM      7  HN  UNK N   1      27.244  15.235   4.618  1.00  0.00     0.167 HD
HETATM    8  C   UNK N   1      25.730  16.625   4.430  0.00  0.00     0.061 A 
HETATM    9  C   UNK N   1      24.842  15.757   3.789  0.00  0.00     0.034 A 
HETATM   10  C   UNK N   1      23.547  16.192   3.479  0.00  0.00     0.031 A 
HETATM   11  C   UNK N   1      23.137  17.493   3.824  0.00  0.00     0.032 A 
HETATM   12  C   UNK N   1      24.056  18.376   4.407  0.00  0.00     0.061 A 
HETATM   13  C   UNK N   1      25.343  17.953   4.702  0.00  0.00     0.069 A 
HETATM   14  N   UNK N   1      26.245  18.773   5.298  0.00  0.00    -0.301 N 
HETATM   15  C   UNK N   1      26.169  20.072   5.630  0.00  0.00     0.189 A 
ENDROOT
BRANCH   1  16
HETATM   16  N   UNK N   1      29.041  16.522   6.032  0.00  0.00    -0.339 N 
HETATM   17  H   UNK N   1      29.002  15.932   6.820  0.00  0.00     0.167 HD
BRANCH  16  18
HETATM   18  C   UNK N   1      30.333  16.816   5.501  0.00  0.00     0.061 A 
HETATM   19  C   UNK N   1      30.629  16.858   4.104  0.00  0.00     0.061 A 
HETATM   20 Cl   UNK N   1      29.498  16.397   2.835  0.00  0.00    -0.082 Cl
HETATM   21  C   UNK N   1      31.916  17.202   3.683  0.00  0.00     0.026 A 
HETATM   22  C   UNK N   1      32.915  17.492   4.610  0.00  0.00     0.002 A 
HETATM   23  C   UNK N   1      32.648  17.400   5.972  0.00  0.00     0.009 A 
HETATM   24  C   UNK N   1      31.371  17.059   6.419  0.00  0.00    -0.034 A 
HETATM   25  C   UNK N   1      31.126  16.963   7.888  0.00  0.00     0.050 C 
ENDBRANCH  16  18
ENDBRANCH   1  16
BRANCH  11  26
HETATM   26  N   UNK N   1      21.780  17.892   3.694  0.00  0.00    -0.377 N 
HETATM   27  C   UNK N   1      20.776  17.006   3.134  0.00  0.00     0.142 C 
HETATM   28  C   UNK N   1      19.451  17.761   2.975  0.00  0.00     0.134 C 
HETATM   29  N   UNK N   1      19.711  19.093   2.414  0.00  0.00    -0.414 N 
HETATM   30  C   UNK N   1      20.509  19.942   3.318  0.00  0.00     0.090 C 
HETATM   31  H   UNK N   1      19.375  19.398   1.500  0.00  0.00     0.153 HD
HETATM   32  C   UNK N   1      21.432  20.817   2.497  0.00  0.00     0.033 C 
HETATM   33  C   UNK N   1      21.351  19.136   4.297  0.00  0.00     0.147 C 
ENDBRANCH  11  26
TORSDOF 3
ENDMDL
MODEL 5
REMARK VINA RESULT:      -7.6      5.838     11.006
REMARK  3 active torsions:
REMARK  status: ('A' for Active; 'I' for Inactive)
REMARK    1  A    between atoms: C_8  and  N_9 
REMARK    2  A    between atoms: N_9  and  C_10 
REMARK    3  A    between atoms: C_20  and  N_25 
ROOT
HETATM    1  C   UNK N   1      29.281  18.099   5.537  0.00  0.00     0.135 A 
HETATM    2  C   UNK N   1      28.927  18.213   6.883  0.00  0.00     0.100 A 
HETATM    3  C   UNK N   1      27.843  18.824   7.474  0.00  0.00     0.122 A 
HETATM    4  N   UNK N   1      27.972  18.671   8.816  0.00  0.00    -0.359 N 
ATOM      5  HN  UNK N   1      27.327  19.001   9.533  1.00  0.00     0.166 HD
HETATM    6  N   UNK N   1      30.396  17.373   5.225  0.00  0.00    -0.339 N 
ATOM      7  HN  UNK N   1      30.626  17.207   4.245  1.00  0.00     0.167 HD
HETATM    8  C   UNK N   1      31.206  16.865   6.196  0.00  0.00     0.061 A 
HETATM    9  C   UNK N   1      32.381  16.186   5.859  0.00  0.00     0.034 A 
HETATM   10  C   UNK N   1      33.255  15.768   6.871  0.00  0.00     0.031 A 
HETATM   11  C   UNK N   1      32.960  16.043   8.219  0.00  0.00     0.032 A 
HETATM   12  C   UNK N   1      31.749  16.666   8.548  0.00  0.00     0.061 A 
HETATM   13  C   UNK N   1      30.874  17.069   7.550  0.00  0.00     0.069 A 
HETATM   14  N   UNK N   1      29.710  17.705   7.834  0.00  0.00    -0.301 N 
HETATM   15  C   UNK N   1      29.128  17.992   9.011  0.00  0.00     0.189 A 
ENDROOT
BRANCH   1  16
HETATM   16  N   UNK N   1      28.495  18.712   4.528  0.00  0.00    -0.339 N 
HETATM   17  H   UNK N   1      28.905  19.456   4.030  0.00  0.00     0.167 HD
BRANCH  16  18
HETATM   18  C   UNK N   1      27.162  18.344   4.173  0.00  0.00     0.061 A 
HETATM   19  C   UNK N   1      26.795  17.048   3.695  0.00  0.00     0.061 A 
HETATM   20 Cl   UNK N   1      27.942  15.767   3.316  0.00  0.00    -0.082 Cl
HETATM   21  C   UNK N   1      25.453  16.772   3.419  0.00  0.00     0.026 A 
HETATM   22  C   UNK N   1      24.475  17.748   3.592  0.00  0.00     0.002 A 
HETATM   23  C   UNK N   1      24.833  19.028   4.005  0.00  0.00     0.009 A 
HETATM   24  C   UNK N   1      26.165  19.330   4.288  0.00  0.00    -0.034 A 
HETATM   25  C   UNK N   1      26.511  20.714   4.722  0.00  0.00     0.050 C 
ENDBRANCH  16  18
ENDBRANCH   1  16
BRANCH  11  26
HETATM   26  N   UNK N   1      33.915  15.800   9.242  0.00  0.00    -0.377 N 
HETATM   27  C   UNK N   1      34.746  16.863   9.775  0.00  0.00     0.142 C 
HETATM   28  C   UNK N   1      35.780  16.274  10.744  0.00  0.00     0.134 C 
HETATM   29  N   UNK N   1      36.356  15.055  10.163  0.00  0.00    -0.414 N 
HETATM   30  C   UNK N   1      35.358  13.982   9.996  0.00  0.00     0.090 C 
HETATM   31  H   UNK N   1      37.338  14.960   9.903  0.00  0.00     0.153 HD
HETATM   32  C   UNK N   1      35.671  13.198   8.739  0.00  0.00     0.033 C 
HETATM   33  C   UNK N   1      33.934  14.508   9.895  0.00  0.00     0.147 C 
ENDBRANCH  11  26
TORSDOF 3
ENDMDL
MODEL 6
REMARK VINA RESULT:      -7.5      2.963      8.618
REMARK  3 active torsions:
REMARK  status: ('A' for Active; 'I' for Inactive)
REMARK    1  A    between atoms: C_8  and  N_9 
REMARK    2  A    between atoms: N_9  and  C_10 
REMARK    3  A    between atoms: C_20  and  N_25 
ROOT
HETATM    1  C   UNK N   1      33.290  16.427   7.572  0.00  0.00     0.135 A 
HETATM    2  C   UNK N   1      33.170  15.037   7.525  0.00  0.00     0.100 A 
HETATM    3  C   UNK N   1      32.514  14.225   6.626  0.00  0.00     0.122 A 
HETATM    4  N   UNK N   1      32.685  12.943   7.036  0.00  0.00    -0.359 N 
ATOM      5  HN  UNK N   1      32.330  12.103   6.579  1.00  0.00     0.166 HD
HETATM    6  N   UNK N   1      34.065  16.973   8.556  0.00  0.00    -0.339 N 
ATOM      7  HN  UNK N   1      34.233  17.979   8.559  1.00  0.00     0.167 HD
HETATM    8  C   UNK N   1      34.619  16.201   9.533  0.00  0.00     0.061 A 
HETATM    9  C   UNK N   1      35.350  16.783  10.573  0.00  0.00     0.034 A 
HETATM   10  C   UNK N   1      35.818  15.985  11.624  0.00  0.00     0.031 A 
HETATM   11  C   UNK N   1      35.540  14.606  11.643  0.00  0.00     0.032 A 
HETATM   12  C   UNK N   1      34.863  14.022  10.564  0.00  0.00     0.061 A 
HETATM   13  C   UNK N   1      34.411  14.807   9.513  0.00  0.00     0.069 A 
HETATM   14  N   UNK N   1      33.723  14.277   8.471  0.00  0.00    -0.301 N 
HETATM   15  C   UNK N   1      33.419  13.003   8.173  0.00  0.00     0.189 A 
ENDROOT
BRANCH   1  16
HETATM   16  N   UNK N   1      32.632  17.242   6.616  0.00  0.00    -0.339 N 
HETATM   17  H   UNK N   1      33.188  17.877   6.108  0.00  0.00     0.167 HD
BRANCH  16  18
HETATM   18  C   UNK N   1      31.234  17.222   6.327  0.00  0.00     0.061 A 
HETATM   19  C   UNK N   1      30.214  17.219   7.329  0.00  0.00     0.061 A 
HETATM   20 Cl   UNK N   1      30.519  17.076   9.057  0.00  0.00    -0.082 Cl
HETATM   21  C   UNK N   1      28.872  17.247   6.942  0.00  0.00     0.026 A 
HETATM   22  C   UNK N   1      28.517  17.264   5.595  0.00  0.00     0.002 A 
HETATM   23  C   UNK N   1      29.504  17.212   4.615  0.00  0.00     0.009 A 
HETATM   24  C   UNK N   1      30.852  17.184   4.974  0.00  0.00    -0.034 A 
HETATM   25  C   UNK N   1      31.881  17.121   3.895  0.00  0.00     0.050 C 
ENDBRANCH  16  18
ENDBRANCH   1  16
BRANCH  11  26
HETATM   26  N   UNK N   1      35.837  13.814  12.784  0.00  0.00    -0.377 N 
HETATM   27  C   UNK N   1      36.394  14.396  13.991  0.00  0.00     0.142 C 
HETATM   28  C   UNK N   1      36.752  13.284  14.984  0.00  0.00     0.134 C 
HETATM   29  N   UNK N   1      37.419  12.188  14.271  0.00  0.00    -0.414 N 
HETATM   30  C   UNK N   1      36.536  11.531  13.290  0.00  0.00     0.090 C 
HETATM   31  H   UNK N   1      38.387  11.910  14.437  0.00  0.00     0.153 HD
HETATM   32  C   UNK N   1      37.352  11.108  12.087  0.00  0.00     0.033 C 
HETATM   33  C   UNK N   1      35.406  12.432  12.814  0.00  0.00     0.147 C 
ENDBRANCH  11  26
TORSDOF 3
ENDMDL
MODEL 7
REMARK VINA RESULT:      -7.4     11.324     14.819
REMARK  3 active torsions:
REMARK  status: ('A' for Active; 'I' for Inactive)
REMARK    1  A    between atoms: C_8  and  N_9 
REMARK    2  A    between atoms: N_9  and  C_10 
REMARK    3  A    between atoms: C_20  and  N_25 
ROOT
HETATM    1  C   UNK N   1      24.173  16.607   4.668  0.00  0.00     0.135 A 
HETATM    2  C   UNK N   1      23.039  17.100   5.317  0.00  0.00     0.100 A 
HETATM    3  C   UNK N   1      22.399  18.315   5.200  0.00  0.00     0.122 A 
HETATM    4  N   UNK N   1      21.354  18.308   6.065  0.00  0.00    -0.359 N 
ATOM      5  HN  UNK N   1      20.677  19.056   6.211  1.00  0.00     0.166 HD
HETATM    6  N   UNK N   1      24.558  15.323   4.935  0.00  0.00    -0.339 N 
ATOM      7  HN  UNK N   1      25.332  14.914   4.410  1.00  0.00     0.167 HD
HETATM    8  C   UNK N   1      23.928  14.576   5.885  0.00  0.00     0.061 A 
HETATM    9  C   UNK N   1      24.380  13.289   6.195  0.00  0.00     0.034 A 
HETATM   10  C   UNK N   1      23.789  12.581   7.249  0.00  0.00     0.031 A 
HETATM   11  C   UNK N   1      22.755  13.167   8.002  0.00  0.00     0.032 A 
HETATM   12  C   UNK N   1      22.267  14.430   7.642  0.00  0.00     0.061 A 
HETATM   13  C   UNK N   1      22.839  15.129   6.589  0.00  0.00     0.069 A 
HETATM   14  N   UNK N   1      22.412  16.367   6.237  0.00  0.00    -0.301 N 
HETATM   15  C   UNK N   1      21.390  17.109   6.695  0.00  0.00     0.189 A 
ENDROOT
BRANCH   1  16
HETATM   16  N   UNK N   1      24.892  17.416   3.753  0.00  0.00    -0.339 N 
HETATM   17  H   UNK N   1      24.631  17.362   2.804  0.00  0.00     0.167 HD
BRANCH  16  18
HETATM   18  C   UNK N   1      25.960  18.302   4.086  0.00  0.00     0.061 A 
HETATM   19  C   UNK N   1      27.165  17.887   4.734  0.00  0.00     0.061 A 
HETATM   20 Cl   UNK N   1      27.448  16.267   5.363  0.00  0.00    -0.082 Cl
HETATM   21  C   UNK N   1      28.173  18.825   4.976  0.00  0.00     0.026 A 
HETATM   22  C   UNK N   1      28.011  20.157   4.604  0.00  0.00     0.002 A 
HETATM   23  C   UNK N   1      26.819  20.578   4.023  0.00  0.00     0.009 A 
HETATM   24  C   UNK N   1      25.797  19.663   3.770  0.00  0.00    -0.034 A 
HETATM   25  C   UNK N   1      24.530  20.153   3.152  0.00  0.00     0.050 C 
ENDBRANCH  16  18
ENDBRANCH   1  16
BRANCH  11  26
HETATM   26  N   UNK N   1      22.273  12.551   9.187  0.00  0.00    -0.377 N 
HETATM   27  C   UNK N   1      21.055  12.998   9.838  0.00  0.00     0.142 C 
HETATM   28  C   UNK N   1      20.876  12.255  11.168  0.00  0.00     0.134 C 
HETATM   29  N   UNK N   1      22.161  12.205  11.876  0.00  0.00    -0.414 N 
HETATM   30  C   UNK N   1      23.177  11.418  11.152  0.00  0.00     0.090 C 
HETATM   31  H   UNK N   1      22.333  12.663  12.772  0.00  0.00     0.153 HD
HETATM   32  C   UNK N   1      24.539  12.046  11.360  0.00  0.00     0.033 C 
HETATM   33  C   UNK N   1      22.906  11.336   9.657  0.00  0.00     0.147 C 
ENDBRANCH  11  26
TORSDOF 3
ENDMDL
MODEL 8
REMARK VINA RESULT:      -7.4      2.224      3.603
REMARK  3 active torsions:
REMARK  status: ('A' for Active; 'I' for Inactive)
REMARK    1  A    between atoms: C_8  and  N_9 
REMARK    2  A    between atoms: N_9  and  C_10 
REMARK    3  A    between atoms: C_20  and  N_25 
ROOT
HETATM    1  C   UNK N   1      35.909  11.496  12.469  0.00  0.00     0.135 A 
HETATM    2  C   UNK N   1      36.183  12.770  12.971  0.00  0.00     0.100 A 
HETATM    3  C   UNK N   1      36.865  13.158  14.104  0.00  0.00     0.122 A 
HETATM    4  N   UNK N   1      36.834  14.513  14.152  0.00  0.00    -0.359 N 
ATOM      5  HN  UNK N   1      37.259  15.109  14.863  1.00  0.00     0.166 HD
HETATM    6  N   UNK N   1      35.257  11.404  11.272  0.00  0.00    -0.339 N 
ATOM      7  HN  UNK N   1      35.121  10.486  10.847  1.00  0.00     0.167 HD
HETATM    8  C   UNK N   1      34.784  12.512  10.634  0.00  0.00     0.061 A 
HETATM    9  C   UNK N   1      34.056  12.393   9.446  0.00  0.00     0.034 A 
HETATM   10  C   UNK N   1      33.487  13.533   8.865  0.00  0.00     0.031 A 
HETATM   11  C   UNK N   1      33.633  14.790   9.481  0.00  0.00     0.032 A 
HETATM   12  C   UNK N   1      34.419  14.906  10.636  0.00  0.00     0.061 A 
HETATM   13  C   UNK N   1      34.997  13.782  11.206  0.00  0.00     0.069 A 
HETATM   14  N   UNK N   1      35.735  13.857  12.342  0.00  0.00    -0.301 N 
HETATM   15  C   UNK N   1      36.128  14.917  13.068  0.00  0.00     0.189 A 
ENDROOT
BRANCH   1  16
HETATM   16  N   UNK N   1      36.310  10.337  13.180  0.00  0.00    -0.339 N 
HETATM   17  H   UNK N   1      36.777   9.636  12.670  0.00  0.00     0.167 HD
BRANCH  16  18
HETATM   18  C   UNK N   1      36.096  10.099  14.572  0.00  0.00     0.061 A 
HETATM   19  C   UNK N   1      34.818  10.187  15.206  0.00  0.00     0.061 A 
HETATM   20 Cl   UNK N   1      33.353  10.757  14.415  0.00  0.00    -0.082 Cl
HETATM   21  C   UNK N   1      34.705   9.888  16.567  0.00  0.00     0.026 A 
HETATM   22  C   UNK N   1      35.823   9.520  17.311  0.00  0.00     0.002 A 
HETATM   23  C   UNK N   1      37.078   9.485  16.712  0.00  0.00     0.009 A 
HETATM   24  C   UNK N   1      37.219   9.778  15.355  0.00  0.00    -0.034 A 
HETATM   25  C   UNK N   1      38.582   9.738  14.750  0.00  0.00     0.050 C 
ENDBRANCH  16  18
ENDBRANCH   1  16
BRANCH  11  26
HETATM   26  N   UNK N   1      32.910  15.921   9.018  0.00  0.00    -0.377 N 
HETATM   27  C   UNK N   1      31.460  15.944   9.001  0.00  0.00     0.142 C 
HETATM   28  C   UNK N   1      30.970  17.221   8.307  0.00  0.00     0.134 C 
HETATM   29  N   UNK N   1      31.765  17.454   7.095  0.00  0.00    -0.414 N 
HETATM   30  C   UNK N   1      33.185  17.720   7.392  0.00  0.00     0.090 C 
HETATM   31  H   UNK N   1      31.377  17.435   6.151  0.00  0.00     0.153 HD
HETATM   32  C   UNK N   1      34.045  17.119   6.300  0.00  0.00     0.033 C 
HETATM   33  C   UNK N   1      33.628  17.145   8.728  0.00  0.00     0.147 C 
ENDBRANCH  11  26
TORSDOF 3
ENDMDL
MODEL 9
REMARK VINA RESULT:      -7.3      8.933     13.214
REMARK  3 active torsions:
REMARK  status: ('A' for Active; 'I' for Inactive)
REMARK    1  A    between atoms: C_8  and  N_9 
REMARK    2  A    between atoms: N_9  and  C_10 
REMARK    3  A    between atoms: C_20  and  N_25 
ROOT
HETATM    1  C   UNK N   1      28.284  18.123   4.270  0.00  0.00     0.135 A 
HETATM    2  C   UNK N   1      27.471  19.180   4.682  0.00  0.00     0.100 A 
HETATM    3  C   UNK N   1      27.800  20.404   5.223  0.00  0.00     0.122 A 
HETATM    4  N   UNK N   1      26.641  21.064   5.470  0.00  0.00    -0.359 N 
ATOM      5  HN  UNK N   1      26.543  22.001   5.861  1.00  0.00     0.166 HD
HETATM    6  N   UNK N   1      27.684  17.034   3.702  0.00  0.00    -0.339 N 
ATOM      7  HN  UNK N   1      28.264  16.287   3.319  1.00  0.00     0.167 HD
HETATM    8  C   UNK N   1      26.327  16.925   3.637  0.00  0.00     0.061 A 
HETATM    9  C   UNK N   1      25.729  15.773   3.117  0.00  0.00     0.034 A 
HETATM   10  C   UNK N   1      24.336  15.635   3.159  0.00  0.00     0.031 A 
HETATM   11  C   UNK N   1      23.543  16.645   3.735  0.00  0.00     0.032 A 
HETATM   12  C   UNK N   1      24.147  17.823   4.193  0.00  0.00     0.061 A 
HETATM   13  C   UNK N   1      25.525  17.970   4.140  0.00  0.00     0.069 A 
HETATM   14  N   UNK N   1      26.144  19.083   4.606  0.00  0.00    -0.301 N 
HETATM   15  C   UNK N   1      25.641  20.230   5.093  0.00  0.00     0.189 A 
ENDROOT
BRANCH   1  16
HETATM   16  N   UNK N   1      29.691  18.188   4.429  0.00  0.00    -0.339 N 
HETATM   17  H   UNK N   1      30.161  18.927   3.978  0.00  0.00     0.167 HD
BRANCH  16  18
HETATM   18  C   UNK N   1      30.487  17.276   5.186  0.00  0.00     0.061 A 
HETATM   19  C   UNK N   1      30.364  17.095   6.598  0.00  0.00     0.061 A 
HETATM   20 Cl   UNK N   1      29.339  18.077   7.640  0.00  0.00    -0.082 Cl
HETATM   21  C   UNK N   1      31.158  16.141   7.241  0.00  0.00     0.026 A 
HETATM   22  C   UNK N   1      32.074  15.376   6.523  0.00  0.00     0.002 A 
HETATM   23  C   UNK N   1      32.237  15.585   5.157  0.00  0.00     0.009 A 
HETATM   24  C   UNK N   1      31.457  16.530   4.491  0.00  0.00    -0.034 A 
HETATM   25  C   UNK N   1      31.665  16.731   3.027  0.00  0.00     0.050 C 
ENDBRANCH  16  18
ENDBRANCH   1  16
BRANCH  11  26
HETATM   26  N   UNK N   1      22.154  16.446   3.960  0.00  0.00    -0.377 N 
HETATM   27  C   UNK N   1      21.590  15.117   4.111  0.00  0.00     0.142 C 
HETATM   28  C   UNK N   1      20.061  15.210   4.183  0.00  0.00     0.134 C 
HETATM   29  N   UNK N   1      19.579  16.146   3.159  0.00  0.00    -0.414 N 
HETATM   30  C   UNK N   1      20.041  17.527   3.394  0.00  0.00     0.090 C 
HETATM   31  H   UNK N   1      18.990  15.872   2.373  0.00  0.00     0.153 HD
HETATM   32  C   UNK N   1      20.302  18.200   2.062  0.00  0.00     0.033 C 
HETATM   33  C   UNK N   1      21.313  17.593   4.226  0.00  0.00     0.147 C 
ENDBRANCH  11  26
TORSDOF 3
ENDMDL
