MODEL 1
REMARK VINA RESULT:      -8.6      0.000      0.000
REMARK  3 active torsions:
REMARK  status: ('A' for Active; 'I' for Inactive)
REMARK       I    between atoms: N_7  and  C_8 
REMARK    1  A    between atoms: C_8  and  C_10 
REMARK    2  A    between atoms: C_16  and  C_17 
REMARK    3  A    between atoms: C_17  and  C_18 
ROOT
HETATM    1  C   UNK N   1      32.581  17.373   6.972  0.00  0.00     0.071 A 
HETATM    2  C   UNK N   1      31.201  17.229   7.251  0.00  0.00     0.027 A 
HETATM    3  C   UNK N   1      32.990  17.259   5.612  0.00  0.00     0.132 A 
HETATM    4  F   UNK N   1      34.280  17.213   5.232  0.00  0.00    -0.205 F 
HETATM    5  C   UNK N   1      32.046  17.109   4.601  0.00  0.00     0.044 A 
HETATM    6  C   UNK N   1      30.696  17.040   4.900  0.00  0.00     0.010 A 
HETATM    7  C   UNK N   1      30.263  17.051   6.226  0.00  0.00    -0.051 A 
ENDROOT
BRANCH   7   8
HETATM    8  C   UNK N   1      28.794  16.920   6.542  0.00  0.00     0.098 C 
BRANCH   8   9
HETATM    9  C   UNK N   1      28.078  18.236   6.802  0.00  0.00     0.041 A 
HETATM   10  C   UNK N   1      27.500  18.962   5.746  0.00  0.00     0.004 A 
HETATM   11  C   UNK N   1      27.612  18.535   4.414  0.00  0.00     0.014 A 
HETATM   12  C   UNK N   1      26.773  20.138   6.040  0.00  0.00     0.045 A 
HETATM   13  C   UNK N   1      27.016  19.271   3.386  0.00  0.00     0.001 A 
HETATM   14  C   UNK N   1      26.297  20.432   3.679  0.00  0.00     0.001 A 
HETATM   15  C   UNK N   1      26.172  20.864   5.001  0.00  0.00     0.018 A 
HETATM   16  C   UNK N   1      26.655  20.548   7.372  0.00  0.00     0.271 A 
HETATM   17  O   UNK N   1      26.024  21.548   7.667  0.00  0.00    -0.266 OA
HETATM   18  N   UNK N   1      27.258  19.815   8.355  0.00  0.00    -0.266 N 
HETATM   19  N   UNK N   1      27.940  18.704   8.074  0.00  0.00    -0.301 N 
HETATM   20  H   UNK N   1      27.187  20.114   9.290  0.00  0.00     0.190 HD
ATOM     21  HN  UNK N   1      28.374  18.186   8.839  1.00  0.00     0.186 HD
ENDBRANCH   8   9
ENDBRANCH   7   8
BRANCH   1  22
HETATM   22  C   UNK N   1      33.499  17.590   8.158  0.00  0.00     0.256 C 
HETATM   23  N   UNK N   1      34.160  16.595   8.850  0.00  0.00    -0.346 N 
HETATM   24  C   UNK N   1      34.136  15.208   8.423  0.00  0.00     0.127 C 
HETATM   25  C   UNK N   1      35.030  16.992   9.958  0.00  0.00     0.145 C 
HETATM   26  C   UNK N   1      33.500  14.303   9.479  0.00  0.00     0.039 C 
HETATM   27  C   UNK N   1      34.512  13.883  10.530  0.00  0.00     0.115 C 
HETATM   28  N   UNK N   1      34.865  15.011  11.376  0.00  0.00    -0.420 N 
HETATM   29  C   UNK N   1      35.791  15.848  10.628  0.00  0.00     0.133 C 
HETATM   30  H   UNK N   1      34.526  15.184  12.322  0.00  0.00     0.153 HD
HETATM   31  O   UNK N   1      33.708  18.754   8.479  0.00  0.00    -0.267 OA
ENDBRANCH   1  22
TORSDOF 3
ENDMDL
MODEL 2
REMARK VINA RESULT:      -8.4     12.044     15.238
REMARK  3 active torsions:
REMARK  status: ('A' for Active; 'I' for Inactive)
REMARK       I    between atoms: N_7  and  C_8 
REMARK    1  A    between atoms: C_8  and  C_10 
REMARK    2  A    between atoms: C_16  and  C_17 
REMARK    3  A    between atoms: C_17  and  C_18 
ROOT
HETATM    1  C   UNK N   1      26.724  25.056  -4.011  0.00  0.00     0.071 A 
HETATM    2  C   UNK N   1      26.670  26.400  -3.572  0.00  0.00     0.027 A 
HETATM    3  C   UNK N   1      25.952  24.708  -5.157  0.00  0.00     0.132 A 
HETATM    4  F   UNK N   1      25.787  23.441  -5.577  0.00  0.00    -0.205 F 
HETATM    5  C   UNK N   1      25.256  25.685  -5.861  0.00  0.00     0.044 A 
HETATM    6  C   UNK N   1      25.278  27.006  -5.447  0.00  0.00     0.010 A 
HETATM    7  C   UNK N   1      25.943  27.369  -4.276  0.00  0.00    -0.051 A 
ENDROOT
BRANCH   7   8
HETATM    8  C   UNK N   1      25.914  28.802  -3.804  0.00  0.00     0.098 C 
BRANCH   8   9
HETATM    9  C   UNK N   1      27.244  29.331  -3.293  0.00  0.00     0.041 A 
HETATM   10  C   UNK N   1      28.194  29.869  -4.179  0.00  0.00     0.004 A 
HETATM   11  C   UNK N   1      27.979  29.883  -5.565  0.00  0.00     0.014 A 
HETATM   12  C   UNK N   1      29.383  30.425  -3.654  0.00  0.00     0.045 A 
HETATM   13  C   UNK N   1      28.936  30.436  -6.421  0.00  0.00     0.001 A 
HETATM   14  C   UNK N   1      30.110  30.986  -5.900  0.00  0.00     0.001 A 
HETATM   15  C   UNK N   1      30.333  30.985  -4.521  0.00  0.00     0.018 A 
HETATM   16  C   UNK N   1      29.582  30.419  -2.270  0.00  0.00     0.271 A 
HETATM   17  O   UNK N   1      30.587  30.903  -1.778  0.00  0.00    -0.266 OA
HETATM   18  N   UNK N   1      28.634  29.861  -1.458  0.00  0.00    -0.266 N 
HETATM   19  N   UNK N   1      27.512  29.341  -1.957  0.00  0.00    -0.301 N 
HETATM   20  H   UNK N   1      28.783  29.844  -0.486  0.00  0.00     0.190 HD
ATOM     21  HN  UNK N   1      26.830  28.935  -1.315  1.00  0.00     0.186 HD
ENDBRANCH   8   9
ENDBRANCH   7   8
BRANCH   1  22
HETATM   22  C   UNK N   1      27.566  24.102  -3.188  0.00  0.00     0.256 C 
HETATM   23  N   UNK N   1      28.785  23.578  -3.570  0.00  0.00    -0.346 N 
HETATM   24  C   UNK N   1      29.461  23.996  -4.785  0.00  0.00     0.127 C 
HETATM   25  C   UNK N   1      29.474  22.690  -2.632  0.00  0.00     0.145 C 
HETATM   26  C   UNK N   1      29.649  22.829  -5.755  0.00  0.00     0.039 C 
HETATM   27  C   UNK N   1      30.898  22.031  -5.425  0.00  0.00     0.115 C 
HETATM   28  N   UNK N   1      30.712  21.280  -4.195  0.00  0.00    -0.420 N 
HETATM   29  C   UNK N   1      30.853  22.210  -3.086  0.00  0.00     0.133 C 
HETATM   30  H   UNK N   1      30.517  20.281  -4.123  0.00  0.00     0.153 HD
HETATM   31  O   UNK N   1      27.146  23.830  -2.069  0.00  0.00    -0.267 OA
ENDBRANCH   1  22
TORSDOF 3
ENDMDL
MODEL 3
REMARK VINA RESULT:      -8.2      5.022      9.708
REMARK  3 active torsions:
REMARK  status: ('A' for Active; 'I' for Inactive)
REMARK       I    between atoms: N_7  and  C_8 
REMARK    1  A    between atoms: C_8  and  C_10 
REMARK    2  A    between atoms: C_16  and  C_17 
REMARK    3  A    between atoms: C_17  and  C_18 
ROOT
HETATM    1  C   UNK N   1      23.511  18.755   4.301  0.00  0.00     0.071 A 
HETATM    2  C   UNK N   1      24.882  18.503   4.551  0.00  0.00     0.027 A 
HETATM    3  C   UNK N   1      23.191  19.833   3.427  0.00  0.00     0.132 A 
HETATM    4  F   UNK N   1      21.937  20.279   3.234  0.00  0.00    -0.205 F 
HETATM    5  C   UNK N   1      24.200  20.537   2.776  0.00  0.00     0.044 A 
HETATM    6  C   UNK N   1      25.531  20.221   2.987  0.00  0.00     0.010 A 
HETATM    7  C   UNK N   1      25.888  19.238   3.910  0.00  0.00    -0.051 A 
ENDROOT
BRANCH   7   8
HETATM    8  C   UNK N   1      27.343  18.941   4.173  0.00  0.00     0.098 C 
BRANCH   8   9
HETATM    9  C   UNK N   1      27.705  18.777   5.640  0.00  0.00     0.041 A 
HETATM   10  C   UNK N   1      28.782  17.963   6.031  0.00  0.00     0.004 A 
HETATM   11  C   UNK N   1      29.523  17.228   5.093  0.00  0.00     0.014 A 
HETATM   12  C   UNK N   1      29.136  17.902   7.397  0.00  0.00     0.045 A 
HETATM   13  C   UNK N   1      30.598  16.436   5.508  0.00  0.00     0.001 A 
HETATM   14  C   UNK N   1      30.946  16.378   6.860  0.00  0.00     0.001 A 
HETATM   15  C   UNK N   1      30.221  17.111   7.803  0.00  0.00     0.018 A 
HETATM   16  C   UNK N   1      28.400  18.649   8.323  0.00  0.00     0.271 A 
HETATM   17  O   UNK N   1      28.684  18.635   9.509  0.00  0.00    -0.266 OA
HETATM   18  N   UNK N   1      27.348  19.405   7.889  0.00  0.00    -0.266 N 
HETATM   19  N   UNK N   1      27.019  19.463   6.598  0.00  0.00    -0.301 N 
HETATM   20  H   UNK N   1      26.822  19.918   8.544  0.00  0.00     0.190 HD
ATOM     21  HN  UNK N   1      26.226  20.041   6.318  1.00  0.00     0.186 HD
ENDBRANCH   8   9
ENDBRANCH   7   8
BRANCH   1  22
HETATM   22  C   UNK N   1      22.513  17.879   5.029  0.00  0.00     0.256 C 
HETATM   23  N   UNK N   1      21.844  16.802   4.480  0.00  0.00    -0.346 N 
HETATM   24  C   UNK N   1      22.130  16.314   3.143  0.00  0.00     0.127 C 
HETATM   25  C   UNK N   1      20.931  16.050   5.341  0.00  0.00     0.145 C 
HETATM   26  C   UNK N   1      20.905  16.413   2.232  0.00  0.00     0.039 C 
HETATM   27  C   UNK N   1      19.995  15.210   2.395  0.00  0.00     0.115 C 
HETATM   28  N   UNK N   1      19.325  15.250   3.685  0.00  0.00    -0.420 N 
HETATM   29  C   UNK N   1      20.286  14.826   4.691  0.00  0.00     0.133 C 
HETATM   30  H   UNK N   1      18.358  15.525   3.853  0.00  0.00     0.153 HD
HETATM   31  O   UNK N   1      22.339  18.120   6.218  0.00  0.00    -0.267 OA
ENDBRANCH   1  22
TORSDOF 3
ENDMDL
MODEL 4
REMARK VINA RESULT:      -8.2      2.698      8.717
REMARK  3 active torsions:
REMARK  status: ('A' for Active; 'I' for Inactive)
REMARK       I    between atoms: N_7  and  C_8 
REMARK    1  A    between atoms: C_8  and  C_10 
REMARK    2  A    between atoms: C_16  and  C_17 
REMARK    3  A    between atoms: C_17  and  C_18 
ROOT
HETATM    1  C   UNK N   1      28.808  17.531   7.524  0.00  0.00     0.071 A 
HETATM    2  C   UNK N   1      30.116  17.117   7.177  0.00  0.00     0.027 A 
HETATM    3  C   UNK N   1      28.654  18.280   8.726  0.00  0.00     0.132 A 
HETATM    4  F   UNK N   1      27.456  18.592   9.251  0.00  0.00    -0.205 F 
HETATM    5  C   UNK N   1      29.768  18.665   9.464  0.00  0.00     0.044 A 
HETATM    6  C   UNK N   1      31.042  18.304   9.062  0.00  0.00     0.010 A 
HETATM    7  C   UNK N   1      31.227  17.488   7.945  0.00  0.00    -0.051 A 
ENDROOT
BRANCH   7   8
HETATM    8  C   UNK N   1      32.617  17.055   7.548  0.00  0.00     0.098 C 
BRANCH   8   9
HETATM    9  C   UNK N   1      33.504  16.623   8.703  0.00  0.00     0.041 A 
HETATM   10  C   UNK N   1      33.684  15.261   9.004  0.00  0.00     0.004 A 
HETATM   11  C   UNK N   1      33.009  14.258   8.292  0.00  0.00     0.014 A 
HETATM   12  C   UNK N   1      34.581  14.899  10.034  0.00  0.00     0.045 A 
HETATM   13  C   UNK N   1      33.217  12.911   8.604  0.00  0.00     0.001 A 
HETATM   14  C   UNK N   1      34.106  12.555   9.622  0.00  0.00     0.001 A 
HETATM   15  C   UNK N   1      34.789  13.544  10.333  0.00  0.00     0.018 A 
HETATM   16  C   UNK N   1      35.260  15.906  10.728  0.00  0.00     0.271 A 
HETATM   17  O   UNK N   1      36.053  15.633  11.613  0.00  0.00    -0.266 OA
HETATM   18  N   UNK N   1      35.028  17.214  10.409  0.00  0.00    -0.266 N 
HETATM   19  N   UNK N   1      34.183  17.552   9.434  0.00  0.00    -0.301 N 
HETATM   20  H   UNK N   1      35.494  17.922  10.909  0.00  0.00     0.190 HD
ATOM     21  HN  UNK N   1      34.040  18.541   9.227  1.00  0.00     0.186 HD
ENDBRANCH   8   9
ENDBRANCH   7   8
BRANCH   1  22
HETATM   22  C   UNK N   1      27.687  17.094   6.603  0.00  0.00     0.256 C 
HETATM   23  N   UNK N   1      27.318  17.730   5.434  0.00  0.00    -0.346 N 
HETATM   24  C   UNK N   1      28.070  18.847   4.891  0.00  0.00     0.127 C 
HETATM   25  C   UNK N   1      26.225  17.150   4.653  0.00  0.00     0.145 C 
HETATM   26  C   UNK N   1      27.218  20.115   4.813  0.00  0.00     0.039 C 
HETATM   27  C   UNK N   1      26.393  20.150   3.540  0.00  0.00     0.115 C 
HETATM   28  N   UNK N   1      25.328  19.161   3.596  0.00  0.00    -0.420 N 
HETATM   29  C   UNK N   1      25.923  17.860   3.333  0.00  0.00     0.133 C 
HETATM   30  H   UNK N   1      24.343  19.346   3.786  0.00  0.00     0.153 HD
HETATM   31  O   UNK N   1      27.108  16.056   6.902  0.00  0.00    -0.267 OA
ENDBRANCH   1  22
TORSDOF 3
ENDMDL
MODEL 5
REMARK VINA RESULT:      -8.2      1.670      2.066
REMARK  3 active torsions:
REMARK  status: ('A' for Active; 'I' for Inactive)
REMARK       I    between atoms: N_7  and  C_8 
REMARK    1  A    between atoms: C_8  and  C_10 
REMARK    2  A    between atoms: C_16  and  C_17 
REMARK    3  A    between atoms: C_17  and  C_18 
ROOT
HETATM    1  C   UNK N   1      32.706  17.477   7.274  0.00  0.00     0.071 A 
HETATM    2  C   UNK N   1      31.365  17.339   7.704  0.00  0.00     0.027 A 
HETATM    3  C   UNK N   1      32.961  17.372   5.877  0.00  0.00     0.132 A 
HETATM    4  F   UNK N   1      34.200  17.322   5.355  0.00  0.00    -0.205 F 
HETATM    5  C   UNK N   1      31.909  17.238   4.976  0.00  0.00     0.044 A 
HETATM    6  C   UNK N   1      30.600  17.175   5.423  0.00  0.00     0.010 A 
HETATM    7  C   UNK N   1      30.318  17.176   6.788  0.00  0.00    -0.051 A 
ENDROOT
BRANCH   7   8
HETATM    8  C   UNK N   1      28.892  17.052   7.265  0.00  0.00     0.098 C 
BRANCH   8   9
HETATM    9  C   UNK N   1      27.840  17.395   6.223  0.00  0.00     0.041 A 
HETATM   10  C   UNK N   1      27.432  18.725   6.022  0.00  0.00     0.004 A 
HETATM   11  C   UNK N   1      27.932  19.773   6.810  0.00  0.00     0.014 A 
HETATM   12  C   UNK N   1      26.512  19.012   4.988  0.00  0.00     0.045 A 
HETATM   13  C   UNK N   1      27.518  21.088   6.579  0.00  0.00     0.001 A 
HETATM   14  C   UNK N   1      26.610  21.369   5.555  0.00  0.00     0.001 A 
HETATM   15  C   UNK N   1      26.109  20.336   4.759  0.00  0.00     0.018 A 
HETATM   16  C   UNK N   1      26.029  17.963   4.199  0.00  0.00     0.271 A 
HETATM   17  O   UNK N   1      25.246  18.172   3.288  0.00  0.00    -0.266 OA
HETATM   18  N   UNK N   1      26.443  16.686   4.455  0.00  0.00    -0.266 N 
HETATM   19  N   UNK N   1      27.314  16.420   5.429  0.00  0.00    -0.301 N 
HETATM   20  H   UNK N   1      26.091  15.947   3.909  0.00  0.00     0.190 HD
ATOM     21  HN  UNK N   1      27.597  15.452   5.586  1.00  0.00     0.186 HD
ENDBRANCH   8   9
ENDBRANCH   7   8
BRANCH   1  22
HETATM   22  C   UNK N   1      33.752  17.677   8.353  0.00  0.00     0.256 C 
HETATM   23  N   UNK N   1      34.356  16.669   9.078  0.00  0.00    -0.346 N 
HETATM   24  C   UNK N   1      34.131  15.265   8.788  0.00  0.00     0.127 C 
HETATM   25  C   UNK N   1      35.368  17.047  10.066  0.00  0.00     0.145 C 
HETATM   26  C   UNK N   1      33.497  14.538   9.975  0.00  0.00     0.039 C 
HETATM   27  C   UNK N   1      34.549  14.085  10.971  0.00  0.00     0.115 C 
HETATM   28  N   UNK N   1      35.110  15.227  11.674  0.00  0.00    -0.420 N 
HETATM   29  C   UNK N   1      36.050  15.877  10.775  0.00  0.00     0.133 C 
HETATM   30  H   UNK N   1      34.884  15.520  12.625  0.00  0.00     0.153 HD
HETATM   31  O   UNK N   1      34.125  18.829   8.544  0.00  0.00    -0.267 OA
ENDBRANCH   1  22
TORSDOF 3
ENDMDL
MODEL 6
REMARK VINA RESULT:      -8.2      5.318      8.139
REMARK  3 active torsions:
REMARK  status: ('A' for Active; 'I' for Inactive)
REMARK       I    between atoms: N_7  and  C_8 
REMARK    1  A    between atoms: C_8  and  C_10 
REMARK    2  A    between atoms: C_16  and  C_17 
REMARK    3  A    between atoms: C_17  and  C_18 
ROOT
HETATM    1  C   UNK N   1      25.002  14.054   6.435  0.00  0.00     0.071 A 
HETATM    2  C   UNK N   1      25.577  15.345   6.352  0.00  0.00     0.027 A 
HETATM    3  C   UNK N   1      25.738  12.971   5.875  0.00  0.00     0.132 A 
HETATM    4  F   UNK N   1      25.236  11.730   5.742  0.00  0.00    -0.205 F 
HETATM    5  C   UNK N   1      27.013  13.177   5.359  0.00  0.00     0.044 A 
HETATM    6  C   UNK N   1      27.579  14.441   5.354  0.00  0.00     0.010 A 
HETATM    7  C   UNK N   1      26.852  15.542   5.805  0.00  0.00    -0.051 A 
ENDROOT
BRANCH   7   8
HETATM    8  C   UNK N   1      27.457  16.923   5.744  0.00  0.00     0.098 C 
BRANCH   8   9
HETATM    9  C   UNK N   1      28.119  17.385   7.032  0.00  0.00     0.041 A 
HETATM   10  C   UNK N   1      29.519  17.373   7.167  0.00  0.00     0.004 A 
HETATM   11  C   UNK N   1      30.350  16.881   6.149  0.00  0.00     0.014 A 
HETATM   12  C   UNK N   1      30.098  17.887   8.349  0.00  0.00     0.045 A 
HETATM   13  C   UNK N   1      31.738  16.892   6.306  0.00  0.00     0.001 A 
HETATM   14  C   UNK N   1      32.309  17.403   7.475  0.00  0.00     0.001 A 
HETATM   15  C   UNK N   1      31.493  17.902   8.493  0.00  0.00     0.018 A 
HETATM   16  C   UNK N   1      29.262  18.388   9.352  0.00  0.00     0.271 A 
HETATM   17  O   UNK N   1      29.724  18.855  10.379  0.00  0.00    -0.266 OA
HETATM   18  N   UNK N   1      27.907  18.354   9.175  0.00  0.00    -0.266 N 
HETATM   19  N   UNK N   1      27.365  17.871   8.058  0.00  0.00    -0.301 N 
HETATM   20  H   UNK N   1      27.320  18.693   9.889  0.00  0.00     0.190 HD
ATOM     21  HN  UNK N   1      26.348  17.864   7.967  1.00  0.00     0.186 HD
ENDBRANCH   8   9
ENDBRANCH   7   8
BRANCH   1  22
HETATM   22  C   UNK N   1      23.632  13.957   7.074  0.00  0.00     0.256 C 
HETATM   23  N   UNK N   1      23.382  13.584   8.380  0.00  0.00    -0.346 N 
HETATM   24  C   UNK N   1      24.449  13.357   9.337  0.00  0.00     0.127 C 
HETATM   25  C   UNK N   1      21.992  13.572   8.836  0.00  0.00     0.145 C 
HETATM   26  C   UNK N   1      24.446  11.917   9.853  0.00  0.00     0.039 C 
HETATM   27  C   UNK N   1      23.477  11.745  11.008  0.00  0.00     0.115 C 
HETATM   28  N   UNK N   1      22.104  11.823  10.536  0.00  0.00    -0.420 N 
HETATM   29  C   UNK N   1      21.796  13.226  10.312  0.00  0.00     0.133 C 
HETATM   30  H   UNK N   1      21.472  11.035  10.388  0.00  0.00     0.153 HD
HETATM   31  O   UNK N   1      22.681  14.299   6.379  0.00  0.00    -0.267 OA
ENDBRANCH   1  22
TORSDOF 3
ENDMDL
MODEL 7
REMARK VINA RESULT:      -8.1     12.057     15.357
REMARK  3 active torsions:
REMARK  status: ('A' for Active; 'I' for Inactive)
REMARK       I    between atoms: N_7  and  C_8 
REMARK    1  A    between atoms: C_8  and  C_10 
REMARK    2  A    between atoms: C_16  and  C_17 
REMARK    3  A    between atoms: C_17  and  C_18 
ROOT
HETATM    1  C   UNK N   1      26.684  25.101  -4.041  0.00  0.00     0.071 A 
HETATM    2  C   UNK N   1      26.723  26.469  -3.680  0.00  0.00     0.027 A 
HETATM    3  C   UNK N   1      25.836  24.733  -5.124  0.00  0.00     0.132 A 
HETATM    4  F   UNK N   1      25.583  23.455  -5.461  0.00  0.00    -0.205 F 
HETATM    5  C   UNK N   1      25.155  25.706  -5.849  0.00  0.00     0.044 A 
HETATM    6  C   UNK N   1      25.268  27.045  -5.515  0.00  0.00     0.010 A 
HETATM    7  C   UNK N   1      26.011  27.436  -4.402  0.00  0.00    -0.051 A 
ENDROOT
BRANCH   7   8
HETATM    8  C   UNK N   1      26.082  28.892  -4.014  0.00  0.00     0.098 C 
BRANCH   8   9
HETATM    9  C   UNK N   1      27.429  29.551  -4.257  0.00  0.00     0.041 A 
HETATM   10  C   UNK N   1      28.289  29.849  -3.185  0.00  0.00     0.004 A 
HETATM   11  C   UNK N   1      27.915  29.607  -1.855  0.00  0.00     0.014 A 
HETATM   12  C   UNK N   1      29.567  30.387  -3.460  0.00  0.00     0.045 A 
HETATM   13  C   UNK N   1      28.796  29.901  -0.810  0.00  0.00     0.001 A 
HETATM   14  C   UNK N   1      30.059  30.432  -1.085  0.00  0.00     0.001 A 
HETATM   15  C   UNK N   1      30.446  30.672  -2.405  0.00  0.00     0.018 A 
HETATM   16  C   UNK N   1      29.936  30.613  -4.790  0.00  0.00     0.271 A 
HETATM   17  O   UNK N   1      31.035  31.062  -5.069  0.00  0.00    -0.266 OA
HETATM   18  N   UNK N   1      29.050  30.326  -5.790  0.00  0.00    -0.266 N 
HETATM   19  N   UNK N   1      27.847  29.816  -5.527  0.00  0.00    -0.301 N 
HETATM   20  H   UNK N   1      29.306  30.500  -6.725  0.00  0.00     0.190 HD
ATOM     21  HN  UNK N   1      27.216  29.615  -6.304  1.00  0.00     0.186 HD
ENDBRANCH   8   9
ENDBRANCH   7   8
BRANCH   1  22
HETATM   22  C   UNK N   1      27.518  24.151  -3.206  0.00  0.00     0.256 C 
HETATM   23  N   UNK N   1      28.748  23.638  -3.567  0.00  0.00    -0.346 N 
HETATM   24  C   UNK N   1      29.444  24.067  -4.767  0.00  0.00     0.127 C 
HETATM   25  C   UNK N   1      29.426  22.751  -2.621  0.00  0.00     0.145 C 
HETATM   26  C   UNK N   1      29.660  22.905  -5.739  0.00  0.00     0.039 C 
HETATM   27  C   UNK N   1      30.908  22.116  -5.389  0.00  0.00     0.115 C 
HETATM   28  N   UNK N   1      30.704  21.357  -4.166  0.00  0.00    -0.420 N 
HETATM   29  C   UNK N   1      30.817  22.284  -3.050  0.00  0.00     0.133 C 
HETATM   30  H   UNK N   1      30.516  20.357  -4.101  0.00  0.00     0.153 HD
HETATM   31  O   UNK N   1      27.078  23.870  -2.097  0.00  0.00    -0.267 OA
ENDBRANCH   1  22
TORSDOF 3
ENDMDL
MODEL 8
REMARK VINA RESULT:      -8.0     12.008     15.548
REMARK  3 active torsions:
REMARK  status: ('A' for Active; 'I' for Inactive)
REMARK       I    between atoms: N_7  and  C_8 
REMARK    1  A    between atoms: C_8  and  C_10 
REMARK    2  A    between atoms: C_16  and  C_17 
REMARK    3  A    between atoms: C_17  and  C_18 
ROOT
HETATM    1  C   UNK N   1      26.718  25.377  -4.289  0.00  0.00     0.071 A 
HETATM    2  C   UNK N   1      26.612  24.933  -5.629  0.00  0.00     0.027 A 
HETATM    3  C   UNK N   1      26.194  26.665  -3.981  0.00  0.00     0.132 A 
HETATM    4  F   UNK N   1      26.374  27.269  -2.793  0.00  0.00    -0.205 F 
HETATM    5  C   UNK N   1      25.520  27.402  -4.949  0.00  0.00     0.044 A 
HETATM    6  C   UNK N   1      25.371  26.911  -6.235  0.00  0.00     0.010 A 
HETATM    7  C   UNK N   1      25.955  25.698  -6.601  0.00  0.00    -0.051 A 
ENDROOT
BRANCH   7   8
HETATM    8  C   UNK N   1      25.834  25.199  -8.020  0.00  0.00     0.098 C 
BRANCH   8   9
HETATM    9  C   UNK N   1      25.783  23.687  -8.161  0.00  0.00     0.041 A 
HETATM   10  C   UNK N   1      26.943  22.952  -8.463  0.00  0.00     0.004 A 
HETATM   11  C   UNK N   1      28.172  23.586  -8.702  0.00  0.00     0.014 A 
HETATM   12  C   UNK N   1      26.870  21.541  -8.505  0.00  0.00     0.045 A 
HETATM   13  C   UNK N   1      29.312  22.829  -8.987  0.00  0.00     0.001 A 
HETATM   14  C   UNK N   1      29.237  21.435  -9.027  0.00  0.00     0.001 A 
HETATM   15  C   UNK N   1      28.022  20.791  -8.784  0.00  0.00     0.018 A 
HETATM   16  C   UNK N   1      25.644  20.917  -8.252  0.00  0.00     0.271 A 
HETATM   17  O   UNK N   1      25.544  19.702  -8.264  0.00  0.00    -0.266 OA
HETATM   18  N   UNK N   1      24.544  21.684  -7.987  0.00  0.00    -0.266 N 
HETATM   19  N   UNK N   1      24.618  23.014  -7.945  0.00  0.00    -0.301 N 
HETATM   20  H   UNK N   1      23.679  21.244  -7.824  0.00  0.00     0.190 HD
ATOM     21  HN  UNK N   1      23.772  23.548  -7.743  1.00  0.00     0.186 HD
ENDBRANCH   8   9
ENDBRANCH   7   8
BRANCH   1  22
HETATM   22  C   UNK N   1      27.425  24.452  -3.318  0.00  0.00     0.256 C 
HETATM   23  N   UNK N   1      28.727  24.010  -3.438  0.00  0.00    -0.346 N 
HETATM   24  C   UNK N   1      29.618  24.498  -4.476  0.00  0.00     0.127 C 
HETATM   25  C   UNK N   1      29.256  23.139  -2.388  0.00  0.00     0.145 C 
HETATM   26  C   UNK N   1      30.080  23.370  -5.399  0.00  0.00     0.039 C 
HETATM   27  C   UNK N   1      31.277  22.638  -4.822  0.00  0.00     0.115 C 
HETATM   28  N   UNK N   1      30.882  21.845  -3.670  0.00  0.00    -0.420 N 
HETATM   29  C   UNK N   1      30.727  22.752  -2.544  0.00  0.00     0.133 C 
HETATM   30  H   UNK N   1      30.739  20.835  -3.654  0.00  0.00     0.153 HD
HETATM   31  O   UNK N   1      26.795  24.127  -2.318  0.00  0.00    -0.267 OA
ENDBRANCH   1  22
TORSDOF 3
ENDMDL
MODEL 9
REMARK VINA RESULT:      -8.0      3.872      9.901
REMARK  3 active torsions:
REMARK  status: ('A' for Active; 'I' for Inactive)
REMARK       I    between atoms: N_7  and  C_8 
REMARK    1  A    between atoms: C_8  and  C_10 
REMARK    2  A    between atoms: C_16  and  C_17 
REMARK    3  A    between atoms: C_17  and  C_18 
ROOT
HETATM    1  C   UNK N   1      35.229  15.271   9.057  0.00  0.00     0.071 A 
HETATM    2  C   UNK N   1      35.688  14.882  10.338  0.00  0.00     0.027 A 
HETATM    3  C   UNK N   1      35.759  14.577   7.932  0.00  0.00     0.132 A 
HETATM    4  F   UNK N   1      35.532  14.953   6.660  0.00  0.00    -0.205 F 
HETATM    5  C   UNK N   1      36.617  13.497   8.110  0.00  0.00     0.044 A 
HETATM    6  C   UNK N   1      36.994  13.095   9.379  0.00  0.00     0.010 A 
HETATM    7  C   UNK N   1      36.574  13.809  10.501  0.00  0.00    -0.051 A 
ENDROOT
BRANCH   7   8
HETATM    8  C   UNK N   1      37.036  13.396  11.877  0.00  0.00     0.098 C 
BRANCH   8   9
HETATM    9  C   UNK N   1      35.996  12.657  12.703  0.00  0.00     0.041 A 
HETATM   10  C   UNK N   1      35.830  12.938  14.071  0.00  0.00     0.004 A 
HETATM   11  C   UNK N   1      36.653  13.860  14.735  0.00  0.00     0.014 A 
HETATM   12  C   UNK N   1      34.797  12.288  14.783  0.00  0.00     0.045 A 
HETATM   13  C   UNK N   1      36.457  14.128  16.093  0.00  0.00     0.001 A 
HETATM   14  C   UNK N   1      35.434  13.486  16.795  0.00  0.00     0.001 A 
HETATM   15  C   UNK N   1      34.604  12.571  16.144  0.00  0.00     0.018 A 
HETATM   16  C   UNK N   1      33.973  11.381  14.109  0.00  0.00     0.271 A 
HETATM   17  O   UNK N   1      33.062  10.812  14.686  0.00  0.00    -0.266 OA
HETATM   18  N   UNK N   1      34.196  11.130  12.784  0.00  0.00    -0.266 N 
HETATM   19  N   UNK N   1      35.169  11.747  12.114  0.00  0.00    -0.301 N 
HETATM   20  H   UNK N   1      33.625  10.480  12.315  0.00  0.00     0.190 HD
ATOM     21  HN  UNK N   1      35.300  11.531  11.125  1.00  0.00     0.186 HD
ENDBRANCH   8   9
ENDBRANCH   7   8
BRANCH   1  22
HETATM   22  C   UNK N   1      34.249  16.426   9.005  0.00  0.00     0.256 C 
HETATM   23  N   UNK N   1      32.956  16.356   8.527  0.00  0.00    -0.346 N 
HETATM   24  C   UNK N   1      32.346  15.102   8.125  0.00  0.00     0.127 C 
HETATM   25  C   UNK N   1      32.139  17.570   8.578  0.00  0.00     0.145 C 
HETATM   26  C   UNK N   1      31.955  15.113   6.646  0.00  0.00     0.039 C 
HETATM   27  C   UNK N   1      30.595  15.753   6.438  0.00  0.00     0.115 C 
HETATM   28  N   UNK N   1      30.667  17.187   6.668  0.00  0.00    -0.420 N 
HETATM   29  C   UNK N   1      30.695  17.401   8.106  0.00  0.00     0.133 C 
HETATM   30  H   UNK N   1      30.693  17.912   5.950  0.00  0.00     0.153 HD
HETATM   31  O   UNK N   1      34.631  17.487   9.485  0.00  0.00    -0.267 OA
ENDBRANCH   1  22
TORSDOF 3
ENDMDL
