REMARK  4 active torsions:
REMARK  status: ('A' for Active; 'I' for Inactive)
REMARK    1  A    between atoms: C_1  and  C_4 
REMARK    2  A    between atoms: C_4  and  O_30 
REMARK    3  A    between atoms: C_16  and  O_15 
REMARK    4  A    between atoms: O_15  and  C_17 
ROOT
HETATM    1  C   UNK N   1      -2.275   0.741  -0.683  0.00  0.00     0.173 C 
HETATM    2  O   UNK N   1      -3.388   1.524  -0.311  0.00  0.00    -0.308 OA
HETATM    3  C   UNK N   1      -1.029   1.046   0.265  0.00  0.00     0.042 A 
HETATM    4  C   UNK N   1      -3.289   2.864  -0.064  0.00  0.00     0.296 C 
HETATM    5  O   UNK N   1      -4.280   3.571  -0.017  0.00  0.00    -0.259 OA
HETATM    6  C   UNK N   1      -1.950   3.406   0.069  0.00  0.00     0.072 A 
HETATM    7  C   UNK N   1      -0.912   2.548   0.158  0.00  0.00     0.013 A 
HETATM    8  C   UNK N   1      -1.427   4.687  -0.001  0.00  0.00     0.161 A 
HETATM    9  C   UNK N   1       0.201   3.285   0.066  0.00  0.00     0.134 A 
HETATM   10  C   UNK N   1       1.492   2.660   0.001  0.00  0.00     0.213 A 
HETATM   11  O   UNK N   1      -0.108   4.566  -0.003  0.00  0.00    -0.317 OA
HETATM   12  O   UNK N   1       2.504   3.342  -0.064  0.00  0.00    -0.285 OA
HETATM   13  C   UNK N   1       1.555   1.163  -0.005  0.00  0.00     0.006 A 
HETATM   14  C   UNK N   1       0.574  -1.155   0.184  0.00  0.00     0.164 C 
HETATM   15  C   UNK N   1       0.396   0.378   0.071  0.00  0.00    -0.024 A 
HETATM   16  C   UNK N   1       2.959   0.559  -0.056  0.00  0.00     0.039 C 
HETATM   17  C   UNK N   1      -1.451   0.734   1.698  0.00  0.00     0.028 C 
HETATM   18  C   UNK N   1       1.860  -1.630  -0.511  0.00  0.00     0.055 C 
HETATM   19  C   UNK N   1       3.061  -0.955   0.116  0.00  0.00     0.027 C 
HETATM   20  C   UNK N   1       3.216  -1.349   1.586  0.00  0.00     0.024 C 
HETATM   21  C   UNK N   1       4.295  -1.268  -0.650  0.00  0.00     0.136 C 
HETATM   22  C   UNK N   1       3.671   0.860  -1.376  0.00  0.00     0.018 C 
HETATM   23  C   UNK N   1       4.826  -0.133  -1.442  0.00  0.00     0.080 C 
HETATM   24  O   UNK N   1       4.789  -2.384  -0.694  0.00  0.00    -0.297 OA
ENDROOT
BRANCH  14  25
HETATM   25  O   UNK N   1      -0.500  -1.874  -0.296  0.00  0.00    -0.312 OA
BRANCH  25  26
HETATM   26  C   UNK N   1      -0.612  -3.232  -0.221  0.00  0.00     0.255 C 
HETATM   27  O   UNK N   1       0.355  -3.933   0.042  0.00  0.00    -0.266 OA
HETATM   28  C   UNK N   1      -1.937  -3.877  -0.435  0.00  0.00     0.126 C 
ENDBRANCH  25  26
ENDBRANCH  14  25
BRANCH   1  29
HETATM   29  C   UNK N   1      -2.769  -0.698  -0.761  0.00  0.00     0.201 C 
BRANCH  29  30
HETATM   30  O   UNK N   1      -3.283  -1.130   0.465  0.00  0.00    -0.393 OA
HETATM   31  C   UNK N   1      -4.583  -1.545   0.179  0.00  0.00     0.201 C 
ENDBRANCH  29  30
ENDBRANCH   1  29
TORSDOF 4
