MODEL 1
REMARK VINA RESULT:      -7.6      0.000      0.000
REMARK  4 active torsions:
REMARK  status: ('A' for Active; 'I' for Inactive)
REMARK    1  A    between atoms: C_1  and  C_4 
REMARK    2  A    between atoms: C_4  and  O_30 
REMARK    3  A    between atoms: C_16  and  O_15 
REMARK    4  A    between atoms: O_15  and  C_17 
ROOT
HETATM    1  C   UNK N   1      20.823  15.839   8.378  0.00  0.00     0.173 C 
HETATM    2  O   UNK N   1      19.891  15.040   9.072  0.00  0.00    -0.308 OA
HETATM    3  C   UNK N   1      21.713  14.946   7.401  0.00  0.00     0.042 A 
HETATM    4  C   UNK N   1      20.242  13.868   9.680  0.00  0.00     0.296 C 
HETATM    5  O   UNK N   1      19.510  13.337  10.495  0.00  0.00    -0.259 OA
HETATM    6  C   UNK N   1      21.551  13.332   9.356  0.00  0.00     0.072 A 
HETATM    7  C   UNK N   1      22.241  13.885   8.338  0.00  0.00     0.013 A 
HETATM    8  C   UNK N   1      22.377  12.400   9.963  0.00  0.00     0.161 A 
HETATM    9  C   UNK N   1      23.470  13.358   8.379  0.00  0.00     0.134 A 
HETATM   10  C   UNK N   1      24.502  13.831   7.499  0.00  0.00     0.213 A 
HETATM   11  O   UNK N   1      23.543  12.452   9.335  0.00  0.00    -0.317 OA
HETATM   12  O   UNK N   1      25.616  13.331   7.532  0.00  0.00    -0.285 OA
HETATM   13  C   UNK N   1      24.176  14.957   6.566  0.00  0.00     0.006 A 
HETATM   14  C   UNK N   1      22.628  16.603   5.442  0.00  0.00     0.164 C 
HETATM   15  C   UNK N   1      22.898  15.532   6.525  0.00  0.00    -0.024 A 
HETATM   16  C   UNK N   1      25.311  15.401   5.642  0.00  0.00     0.039 C 
HETATM   17  C   UNK N   1      20.771  14.248   6.425  0.00  0.00     0.028 C 
HETATM   18  C   UNK N   1      23.904  17.379   5.079  0.00  0.00     0.055 C 
HETATM   19  C   UNK N   1      24.957  16.421   4.562  0.00  0.00     0.027 C 
HETATM   20  C   UNK N   1      24.504  15.742   3.268  0.00  0.00     0.024 C 
HETATM   21  C   UNK N   1      26.251  17.124   4.368  0.00  0.00     0.136 C 
HETATM   22  C   UNK N   1      26.476  16.024   6.413  0.00  0.00     0.018 C 
HETATM   23  C   UNK N   1      27.290  16.777   5.367  0.00  0.00     0.080 C 
HETATM   24  O   UNK N   1      26.427  17.975   3.510  0.00  0.00    -0.297 OA
ENDROOT
BRANCH  14  25
HETATM   25  O   UNK N   1      21.630  17.493   5.779  0.00  0.00    -0.312 OA
BRANCH  25  26
HETATM   26  C   UNK N   1      21.052  18.367   4.906  0.00  0.00     0.255 C 
HETATM   27  O   UNK N   1      21.052  19.571   5.123  0.00  0.00    -0.266 OA
HETATM   28  C   UNK N   1      20.431  17.858   3.652  0.00  0.00     0.126 C 
ENDBRANCH  25  26
ENDBRANCH  14  25
BRANCH   1  29
HETATM   29  C   UNK N   1      20.031  16.986   7.763  0.00  0.00     0.201 C 
BRANCH  29  30
HETATM   30  O   UNK N   1      20.239  18.182   8.457  0.00  0.00    -0.393 OA
HETATM   31  C   UNK N   1      19.180  18.258   9.359  0.00  0.00     0.201 C 
ENDBRANCH  29  30
ENDBRANCH   1  29
TORSDOF 4
ENDMDL
MODEL 2
REMARK VINA RESULT:      -7.5      6.646     10.301
REMARK  4 active torsions:
REMARK  status: ('A' for Active; 'I' for Inactive)
REMARK    1  A    between atoms: C_1  and  C_4 
REMARK    2  A    between atoms: C_4  and  O_30 
REMARK    3  A    between atoms: C_16  and  O_15 
REMARK    4  A    between atoms: O_15  and  C_17 
ROOT
HETATM    1  C   UNK N   1      29.811  15.552   5.408  0.00  0.00     0.173 C 
HETATM    2  O   UNK N   1      29.176  15.423   4.155  0.00  0.00    -0.308 OA
HETATM    3  C   UNK N   1      31.290  16.122   5.235  0.00  0.00     0.042 A 
HETATM    4  C   UNK N   1      29.792  14.845   3.080  0.00  0.00     0.296 C 
HETATM    5  O   UNK N   1      29.155  14.493   2.103  0.00  0.00    -0.259 OA
HETATM    6  C   UNK N   1      31.219  14.612   3.193  0.00  0.00     0.072 A 
HETATM    7  C   UNK N   1      31.883  15.162   4.232  0.00  0.00     0.013 A 
HETATM    8  C   UNK N   1      32.111  13.802   2.510  0.00  0.00     0.161 A 
HETATM    9  C   UNK N   1      33.114  14.637   4.218  0.00  0.00     0.134 A 
HETATM   10  C   UNK N   1      34.044  14.921   5.274  0.00  0.00     0.213 A 
HETATM   11  O   UNK N   1      33.257  13.844   3.173  0.00  0.00    -0.317 OA
HETATM   12  O   UNK N   1      35.173  14.452   5.243  0.00  0.00    -0.285 OA
HETATM   13  C   UNK N   1      33.585  15.783   6.410  0.00  0.00     0.006 A 
HETATM   14  C   UNK N   1      31.956  17.300   7.599  0.00  0.00     0.164 C 
HETATM   15  C   UNK N   1      32.292  16.323   6.448  0.00  0.00    -0.024 A 
HETATM   16  C   UNK N   1      34.629  16.063   7.493  0.00  0.00     0.039 C 
HETATM   17  C   UNK N   1      31.185  17.478   4.544  0.00  0.00     0.028 C 
HETATM   18  C   UNK N   1      32.766  16.984   8.867  0.00  0.00     0.055 C 
HETATM   19  C   UNK N   1      34.246  17.079   8.567  0.00  0.00     0.027 C 
HETATM   20  C   UNK N   1      34.643  18.502   8.168  0.00  0.00     0.024 C 
HETATM   21  C   UNK N   1      35.046  16.612   9.729  0.00  0.00     0.136 C 
HETATM   22  C   UNK N   1      35.021  14.800   8.260  0.00  0.00     0.018 C 
HETATM   23  C   UNK N   1      35.703  15.299   9.529  0.00  0.00     0.080 C 
HETATM   24  O   UNK N   1      35.096  17.214  10.790  0.00  0.00    -0.297 OA
ENDROOT
BRANCH  14  25
HETATM   25  O   UNK N   1      30.614  17.348   7.911  0.00  0.00    -0.312 OA
BRANCH  25  26
HETATM   26  C   UNK N   1      30.098  18.004   8.991  0.00  0.00     0.255 C 
HETATM   27  O   UNK N   1      30.336  19.187   9.185  0.00  0.00    -0.266 OA
HETATM   28  C   UNK N   1      29.207  17.279   9.939  0.00  0.00     0.126 C 
ENDBRANCH  25  26
ENDBRANCH  14  25
BRANCH   1  29
HETATM   29  C   UNK N   1      28.851  16.332   6.297  0.00  0.00     0.201 C 
BRANCH  29  30
HETATM   30  O   UNK N   1      27.797  16.877   5.558  0.00  0.00    -0.393 OA
HETATM   31  C   UNK N   1      27.747  18.216   5.944  0.00  0.00     0.201 C 
ENDBRANCH  29  30
ENDBRANCH   1  29
TORSDOF 4
ENDMDL
MODEL 3
REMARK VINA RESULT:      -7.3     15.318     17.200
REMARK  4 active torsions:
REMARK  status: ('A' for Active; 'I' for Inactive)
REMARK    1  A    between atoms: C_1  and  C_4 
REMARK    2  A    between atoms: C_4  and  O_30 
REMARK    3  A    between atoms: C_16  and  O_15 
REMARK    4  A    between atoms: O_15  and  C_17 
ROOT
HETATM    1  C   UNK N   1      27.290  21.776  -8.019  0.00  0.00     0.173 C 
HETATM    2  O   UNK N   1      28.097  20.746  -8.546  0.00  0.00    -0.308 OA
HETATM    3  C   UNK N   1      28.191  22.951  -7.426  0.00  0.00     0.042 A 
HETATM    4  C   UNK N   1      29.166  20.235  -7.866  0.00  0.00     0.296 C 
HETATM    5  O   UNK N   1      29.678  19.180  -8.198  0.00  0.00    -0.259 OA
HETATM    6  C   UNK N   1      29.611  20.973  -6.700  0.00  0.00     0.072 A 
HETATM    7  C   UNK N   1      29.101  22.203  -6.481  0.00  0.00     0.013 A 
HETATM    8  C   UNK N   1      30.399  20.648  -5.608  0.00  0.00     0.161 A 
HETATM    9  C   UNK N   1      29.508  22.573  -5.261  0.00  0.00     0.134 A 
HETATM   10  C   UNK N   1      29.035  23.792  -4.667  0.00  0.00     0.213 A 
HETATM   11  O   UNK N   1      30.305  21.654  -4.751  0.00  0.00    -0.317 OA
HETATM   12  O   UNK N   1      29.426  24.131  -3.560  0.00  0.00    -0.285 OA
HETATM   13  C   UNK N   1      28.041  24.613  -5.431  0.00  0.00     0.006 A 
HETATM   14  C   UNK N   1      26.662  25.205  -7.461  0.00  0.00     0.164 C 
HETATM   15  C   UNK N   1      27.591  24.227  -6.702  0.00  0.00    -0.024 A 
HETATM   16  C   UNK N   1      27.590  25.907  -4.754  0.00  0.00     0.039 C 
HETATM   17  C   UNK N   1      29.065  23.479  -8.560  0.00  0.00     0.028 C 
HETATM   18  C   UNK N   1      25.814  26.048  -6.495  0.00  0.00     0.055 C 
HETATM   19  C   UNK N   1      26.719  26.848  -5.583  0.00  0.00     0.027 C 
HETATM   20  C   UNK N   1      27.561  27.850  -6.375  0.00  0.00     0.024 C 
HETATM   21  C   UNK N   1      25.925  27.537  -4.533  0.00  0.00     0.136 C 
HETATM   22  C   UNK N   1      26.791  25.645  -3.476  0.00  0.00     0.018 C 
HETATM   23  C   UNK N   1      26.075  26.957  -3.176  0.00  0.00     0.080 C 
HETATM   24  O   UNK N   1      25.151  28.450  -4.771  0.00  0.00    -0.297 OA
ENDROOT
BRANCH  14  25
HETATM   25  O   UNK N   1      25.837  24.586  -8.376  0.00  0.00    -0.312 OA
BRANCH  25  26
HETATM   26  C   UNK N   1      25.450  25.141  -9.562  0.00  0.00     0.255 C 
HETATM   27  O   UNK N   1      24.413  24.799 -10.112  0.00  0.00    -0.266 OA
HETATM   28  C   UNK N   1      26.287  26.201 -10.188  0.00  0.00     0.126 C 
ENDBRANCH  25  26
ENDBRANCH  14  25
BRANCH   1  29
HETATM   29  C   UNK N   1      26.286  22.134  -9.107  0.00  0.00     0.201 C 
BRANCH  29  30
HETATM   30  O   UNK N   1      25.103  21.402  -8.974  0.00  0.00    -0.393 OA
HETATM   31  C   UNK N   1      24.756  21.528  -7.629  0.00  0.00     0.201 C 
ENDBRANCH  29  30
ENDBRANCH   1  29
TORSDOF 4
ENDMDL
MODEL 4
REMARK VINA RESULT:      -7.2      6.438      9.659
REMARK  4 active torsions:
REMARK  status: ('A' for Active; 'I' for Inactive)
REMARK    1  A    between atoms: C_1  and  C_4 
REMARK    2  A    between atoms: C_4  and  O_30 
REMARK    3  A    between atoms: C_16  and  O_15 
REMARK    4  A    between atoms: O_15  and  C_17 
ROOT
HETATM    1  C   UNK N   1      29.454  17.177   4.057  0.00  0.00     0.173 C 
HETATM    2  O   UNK N   1      28.137  17.455   3.633  0.00  0.00    -0.308 OA
HETATM    3  C   UNK N   1      29.473  16.741   5.591  0.00  0.00     0.042 A 
HETATM    4  C   UNK N   1      27.284  18.232   4.364  0.00  0.00     0.296 C 
HETATM    5  O   UNK N   1      26.267  18.687   3.870  0.00  0.00    -0.259 OA
HETATM    6  C   UNK N   1      27.683  18.540   5.724  0.00  0.00     0.072 A 
HETATM    7  C   UNK N   1      28.737  17.883   6.252  0.00  0.00     0.013 A 
HETATM    8  C   UNK N   1      27.293  19.504   6.639  0.00  0.00     0.161 A 
HETATM    9  C   UNK N   1      29.019  18.485   7.413  0.00  0.00     0.134 A 
HETATM   10  C   UNK N   1      30.175  18.105   8.175  0.00  0.00     0.213 A 
HETATM   11  O   UNK N   1      28.139  19.437   7.656  0.00  0.00    -0.317 OA
HETATM   12  O   UNK N   1      30.415  18.647   9.244  0.00  0.00    -0.285 OA
HETATM   13  C   UNK N   1      31.078  17.049   7.614  0.00  0.00     0.006 A 
HETATM   14  C   UNK N   1      31.729  15.259   5.956  0.00  0.00     0.164 C 
HETATM   15  C   UNK N   1      30.806  16.423   6.389  0.00  0.00    -0.024 A 
HETATM   16  C   UNK N   1      32.281  16.675   8.481  0.00  0.00     0.039 C 
HETATM   17  C   UNK N   1      28.591  15.504   5.730  0.00  0.00     0.028 C 
HETATM   18  C   UNK N   1      33.154  15.430   6.508  0.00  0.00     0.055 C 
HETATM   19  C   UNK N   1      33.115  15.482   8.020  0.00  0.00     0.027 C 
HETATM   20  C   UNK N   1      32.598  14.168   8.609  0.00  0.00     0.024 C 
HETATM   21  C   UNK N   1      34.456  15.816   8.566  0.00  0.00     0.136 C 
HETATM   22  C   UNK N   1      33.276  17.829   8.620  0.00  0.00     0.018 C 
HETATM   23  C   UNK N   1      34.564  17.187   9.121  0.00  0.00     0.080 C 
HETATM   24  O   UNK N   1      35.414  15.063   8.492  0.00  0.00    -0.297 OA
ENDROOT
BRANCH  14  25
HETATM   25  O   UNK N   1      31.784  15.074   4.591  0.00  0.00    -0.312 OA
BRANCH  25  26
HETATM   26  C   UNK N   1      32.639  14.214   3.965  0.00  0.00     0.255 C 
HETATM   27  O   UNK N   1      32.583  13.009   4.166  0.00  0.00    -0.266 OA
HETATM   28  C   UNK N   1      33.642  14.741   2.999  0.00  0.00     0.126 C 
ENDBRANCH  25  26
ENDBRANCH  14  25
BRANCH   1  29
HETATM   29  C   UNK N   1      30.037  16.206   3.038  0.00  0.00     0.201 C 
BRANCH  29  30
HETATM   30  O   UNK N   1      29.036  15.628   2.251  0.00  0.00    -0.393 OA
HETATM   31  C   UNK N   1      29.283  14.257   2.313  0.00  0.00     0.201 C 
ENDBRANCH  29  30
ENDBRANCH   1  29
TORSDOF 4
ENDMDL
MODEL 5
REMARK VINA RESULT:      -7.1     15.157     16.792
REMARK  4 active torsions:
REMARK  status: ('A' for Active; 'I' for Inactive)
REMARK    1  A    between atoms: C_1  and  C_4 
REMARK    2  A    between atoms: C_4  and  O_30 
REMARK    3  A    between atoms: C_16  and  O_15 
REMARK    4  A    between atoms: O_15  and  C_17 
ROOT
HETATM    1  C   UNK N   1      26.616  24.805  -6.868  0.00  0.00     0.173 C 
HETATM    2  O   UNK N   1      25.409  25.501  -6.648  0.00  0.00    -0.308 OA
HETATM    3  C   UNK N   1      27.330  24.463  -5.483  0.00  0.00     0.042 A 
HETATM    4  C   UNK N   1      25.321  26.558  -5.787  0.00  0.00     0.296 C 
HETATM    5  O   UNK N   1      24.365  27.312  -5.812  0.00  0.00    -0.259 OA
HETATM    6  C   UNK N   1      26.448  26.773  -4.900  0.00  0.00     0.072 A 
HETATM    7  C   UNK N   1      27.399  25.818  -4.820  0.00  0.00     0.013 A 
HETATM    8  C   UNK N   1      26.881  27.855  -4.150  0.00  0.00     0.161 A 
HETATM    9  C   UNK N   1      28.405  26.339  -4.109  0.00  0.00     0.134 A 
HETATM   10  C   UNK N   1      29.636  25.620  -3.942  0.00  0.00     0.213 A 
HETATM   11  O   UNK N   1      28.083  27.548  -3.687  0.00  0.00    -0.317 OA
HETATM   12  O   UNK N   1      30.543  26.096  -3.275  0.00  0.00    -0.285 OA
HETATM   13  C   UNK N   1      29.778  24.292  -4.621  0.00  0.00     0.006 A 
HETATM   14  C   UNK N   1      28.938  22.312  -5.942  0.00  0.00     0.164 C 
HETATM   15  C   UNK N   1      28.739  23.742  -5.386  0.00  0.00    -0.024 A 
HETATM   16  C   UNK N   1      31.105  23.567  -4.389  0.00  0.00     0.039 C 
HETATM   17  C   UNK N   1      26.363  23.614  -4.662  0.00  0.00     0.028 C 
HETATM   18  C   UNK N   1      30.420  22.005  -6.205  0.00  0.00     0.055 C 
HETATM   19  C   UNK N   1      31.208  22.139  -4.920  0.00  0.00     0.027 C 
HETATM   20  C   UNK N   1      30.753  21.114  -3.880  0.00  0.00     0.024 C 
HETATM   21  C   UNK N   1      32.665  22.015  -5.184  0.00  0.00     0.136 C 
HETATM   22  C   UNK N   1      32.287  24.311  -5.011  0.00  0.00     0.018 C 
HETATM   23  C   UNK N   1      33.416  23.288  -5.071  0.00  0.00     0.080 C 
HETATM   24  O   UNK N   1      33.192  20.974  -5.545  0.00  0.00    -0.297 OA
ENDROOT
BRANCH  14  25
HETATM   25  O   UNK N   1      28.206  22.054  -7.082  0.00  0.00    -0.312 OA
BRANCH  25  26
HETATM   26  C   UNK N   1      28.593  21.193  -8.067  0.00  0.00     0.255 C 
HETATM   27  O   UNK N   1      28.976  21.604  -9.153  0.00  0.00    -0.266 OA
HETATM   28  C   UNK N   1      28.578  19.726  -7.812  0.00  0.00     0.126 C 
ENDBRANCH  25  26
ENDBRANCH  14  25
BRANCH   1  29
HETATM   29  C   UNK N   1      26.281  23.645  -7.797  0.00  0.00     0.201 C 
BRANCH  29  30
HETATM   30  O   UNK N   1      24.908  23.383  -7.812  0.00  0.00    -0.393 OA
HETATM   31  C   UNK N   1      24.812  21.992  -7.819  0.00  0.00     0.201 C 
ENDBRANCH  29  30
ENDBRANCH   1  29
TORSDOF 4
ENDMDL
MODEL 6
REMARK VINA RESULT:      -7.1     14.340     16.662
REMARK  4 active torsions:
REMARK  status: ('A' for Active; 'I' for Inactive)
REMARK    1  A    between atoms: C_1  and  C_4 
REMARK    2  A    between atoms: C_4  and  O_30 
REMARK    3  A    between atoms: C_16  and  O_15 
REMARK    4  A    between atoms: O_15  and  C_17 
ROOT
HETATM    1  C   UNK N   1      31.289  20.220  -6.161  0.00  0.00     0.173 C 
HETATM    2  O   UNK N   1      32.556  19.600  -6.151  0.00  0.00    -0.308 OA
HETATM    3  C   UNK N   1      31.386  21.711  -5.602  0.00  0.00     0.042 A 
HETATM    4  C   UNK N   1      33.387  19.654  -5.068  0.00  0.00     0.296 C 
HETATM    5  O   UNK N   1      34.338  18.899  -4.966  0.00  0.00    -0.259 OA
HETATM    6  C   UNK N   1      33.040  20.600  -4.025  0.00  0.00     0.072 A 
HETATM    7  C   UNK N   1      32.068  21.504  -4.271  0.00  0.00     0.013 A 
HETATM    8  C   UNK N   1      33.405  20.732  -2.695  0.00  0.00     0.161 A 
HETATM    9  C   UNK N   1      31.805  22.107  -3.106  0.00  0.00     0.134 A 
HETATM   10  C   UNK N   1      30.724  23.046  -2.993  0.00  0.00     0.213 A 
HETATM   11  O   UNK N   1      32.623  21.663  -2.170  0.00  0.00    -0.317 OA
HETATM   12  O   UNK N   1      30.503  23.605  -1.929  0.00  0.00    -0.285 OA
HETATM   13  C   UNK N   1      29.875  23.297  -4.201  0.00  0.00     0.006 A 
HETATM   14  C   UNK N   1      29.272  23.078  -6.642  0.00  0.00     0.164 C 
HETATM   15  C   UNK N   1      30.127  22.657  -5.423  0.00  0.00    -0.024 A 
HETATM   16  C   UNK N   1      28.753  24.320  -4.021  0.00  0.00     0.039 C 
HETATM   17  C   UNK N   1      32.366  22.474  -6.490  0.00  0.00     0.028 C 
HETATM   18  C   UNK N   1      27.870  23.546  -6.219  0.00  0.00     0.055 C 
HETATM   19  C   UNK N   1      27.987  24.727  -5.278  0.00  0.00     0.027 C 
HETATM   20  C   UNK N   1      28.633  25.928  -5.971  0.00  0.00     0.024 C 
HETATM   21  C   UNK N   1      26.656  25.086  -4.724  0.00  0.00     0.136 C 
HETATM   22  C   UNK N   1      27.683  23.840  -3.040  0.00  0.00     0.018 C 
HETATM   23  C   UNK N   1      26.475  24.735  -3.295  0.00  0.00     0.080 C 
HETATM   24  O   UNK N   1      25.755  25.556  -5.401  0.00  0.00    -0.297 OA
ENDROOT
BRANCH  14  25
HETATM   25  O   UNK N   1      29.156  22.095  -7.603  0.00  0.00    -0.312 OA
BRANCH  25  26
HETATM   26  C   UNK N   1      28.476  22.243  -8.777  0.00  0.00     0.255 C 
HETATM   27  O   UNK N   1      28.748  23.146  -9.556  0.00  0.00    -0.266 OA
HETATM   28  C   UNK N   1      27.402  21.276  -9.135  0.00  0.00     0.126 C 
ENDBRANCH  25  26
ENDBRANCH  14  25
BRANCH   1  29
HETATM   29  C   UNK N   1      30.727  20.026  -7.564  0.00  0.00     0.201 C 
BRANCH  29  30
HETATM   30  O   UNK N   1      29.843  18.944  -7.616  0.00  0.00    -0.393 OA
HETATM   31  C   UNK N   1      30.165  18.280  -8.800  0.00  0.00     0.201 C 
ENDBRANCH  29  30
ENDBRANCH   1  29
TORSDOF 4
ENDMDL
MODEL 7
REMARK VINA RESULT:      -7.0      4.233      6.368
REMARK  4 active torsions:
REMARK  status: ('A' for Active; 'I' for Inactive)
REMARK    1  A    between atoms: C_1  and  C_4 
REMARK    2  A    between atoms: C_4  and  O_30 
REMARK    3  A    between atoms: C_16  and  O_15 
REMARK    4  A    between atoms: O_15  and  C_17 
ROOT
HETATM    1  C   UNK N   1      23.836  18.953   3.501  0.00  0.00     0.173 C 
HETATM    2  O   UNK N   1      24.592  19.821   4.317  0.00  0.00    -0.308 OA
HETATM    3  C   UNK N   1      24.119  17.431   3.883  0.00  0.00     0.042 A 
HETATM    4  C   UNK N   1      25.923  19.626   4.556  0.00  0.00     0.296 C 
HETATM    5  O   UNK N   1      26.617  20.512   5.022  0.00  0.00    -0.259 OA
HETATM    6  C   UNK N   1      26.475  18.342   4.164  0.00  0.00     0.072 A 
HETATM    7  C   UNK N   1      25.626  17.359   3.797  0.00  0.00     0.013 A 
HETATM    8  C   UNK N   1      27.763  17.885   3.940  0.00  0.00     0.161 A 
HETATM    9  C   UNK N   1      26.378  16.372   3.297  0.00  0.00     0.134 A 
HETATM   10  C   UNK N   1      25.770  15.218   2.697  0.00  0.00     0.213 A 
HETATM   11  O   UNK N   1      27.657  16.677   3.407  0.00  0.00    -0.317 OA
HETATM   12  O   UNK N   1      26.466  14.313   2.260  0.00  0.00    -0.285 OA
HETATM   13  C   UNK N   1      24.276  15.170   2.608  0.00  0.00     0.006 A 
HETATM   14  C   UNK N   1      21.941  16.004   3.083  0.00  0.00     0.164 C 
HETATM   15  C   UNK N   1      23.475  16.205   3.110  0.00  0.00    -0.024 A 
HETATM   16  C   UNK N   1      23.690  13.906   1.977  0.00  0.00     0.039 C 
HETATM   17  C   UNK N   1      23.749  17.247   5.352  0.00  0.00     0.028 C 
HETATM   18  C   UNK N   1      21.507  15.106   1.914  0.00  0.00     0.055 C 
HETATM   19  C   UNK N   1      22.172  13.751   2.035  0.00  0.00     0.027 C 
HETATM   20  C   UNK N   1      21.724  13.023   3.304  0.00  0.00     0.024 C 
HETATM   21  C   UNK N   1      21.901  12.927   0.828  0.00  0.00     0.136 C 
HETATM   22  C   UNK N   1      24.048  13.779   0.495  0.00  0.00     0.018 C 
HETATM   23  C   UNK N   1      23.071  12.752  -0.065  0.00  0.00     0.080 C 
HETATM   24  O   UNK N   1      20.793  12.497   0.547  0.00  0.00    -0.297 OA
ENDROOT
BRANCH  14  25
HETATM   25  O   UNK N   1      21.229  17.184   3.045  0.00  0.00    -0.312 OA
BRANCH  25  26
HETATM   26  C   UNK N   1      19.928  17.310   3.438  0.00  0.00     0.255 C 
HETATM   27  O   UNK N   1      19.176  18.105   2.892  0.00  0.00    -0.266 OA
HETATM   28  C   UNK N   1      19.400  16.450   4.532  0.00  0.00     0.126 C 
ENDBRANCH  25  26
ENDBRANCH  14  25
BRANCH   1  29
HETATM   29  C   UNK N   1      22.396  19.444   3.571  0.00  0.00     0.201 C 
BRANCH  29  30
HETATM   30  O   UNK N   1      22.282  20.764   3.124  0.00  0.00    -0.393 OA
HETATM   31  C   UNK N   1      21.170  20.760   2.284  0.00  0.00     0.201 C 
ENDBRANCH  29  30
ENDBRANCH   1  29
TORSDOF 4
ENDMDL
MODEL 8
REMARK VINA RESULT:      -7.0      7.981     11.757
REMARK  4 active torsions:
REMARK  status: ('A' for Active; 'I' for Inactive)
REMARK    1  A    between atoms: C_1  and  C_4 
REMARK    2  A    between atoms: C_4  and  O_30 
REMARK    3  A    between atoms: C_16  and  O_15 
REMARK    4  A    between atoms: O_15  and  C_17 
ROOT
HETATM    1  C   UNK N   1      34.101  13.086   9.141  0.00  0.00     0.173 C 
HETATM    2  O   UNK N   1      35.266  12.857   9.902  0.00  0.00    -0.308 OA
HETATM    3  C   UNK N   1      34.288  14.356   8.193  0.00  0.00     0.042 A 
HETATM    4  C   UNK N   1      35.916  13.859  10.565  0.00  0.00     0.296 C 
HETATM    5  O   UNK N   1      36.741  13.614  11.427  0.00  0.00    -0.259 OA
HETATM    6  C   UNK N   1      35.524  15.218  10.239  0.00  0.00     0.072 A 
HETATM    7  C   UNK N   1      34.721  15.420   9.174  0.00  0.00     0.013 A 
HETATM    8  C   UNK N   1      35.688  16.437  10.875  0.00  0.00     0.161 A 
HETATM    9  C   UNK N   1      34.351  16.705   9.214  0.00  0.00     0.134 A 
HETATM   10  C   UNK N   1      33.387  17.221   8.283  0.00  0.00     0.213 A 
HETATM   11  O   UNK N   1      34.951  17.319  10.216  0.00  0.00    -0.317 OA
HETATM   12  O   UNK N   1      33.069  18.401   8.315  0.00  0.00    -0.285 OA
HETATM   13  C   UNK N   1      32.776  16.272   7.297  0.00  0.00     0.006 A 
HETATM   14  C   UNK N   1      32.545  14.050   6.122  0.00  0.00     0.164 C 
HETATM   15  C   UNK N   1      33.139  14.919   7.257  0.00  0.00    -0.024 A 
HETATM   16  C   UNK N   1      31.772  16.887   6.321  0.00  0.00     0.039 C 
HETATM   17  C   UNK N   1      35.480  14.080   7.281  0.00  0.00     0.028 C 
HETATM   18  C   UNK N   1      31.161  14.557   5.685  0.00  0.00     0.055 C 
HETATM   19  C   UNK N   1      31.269  15.985   5.196  0.00  0.00     0.027 C 
HETATM   20  C   UNK N   1      32.157  16.082   3.953  0.00  0.00     0.024 C 
HETATM   21  C   UNK N   1      29.921  16.549   4.930  0.00  0.00     0.136 C 
HETATM   22  C   UNK N   1      30.509  17.385   7.027  0.00  0.00     0.018 C 
HETATM   23  C   UNK N   1      29.475  17.558   5.921  0.00  0.00     0.080 C 
HETATM   24  O   UNK N   1      29.202  16.162   4.022  0.00  0.00    -0.297 OA
ENDROOT
BRANCH  14  25
HETATM   25  O   UNK N   1      32.466  12.710   6.435  0.00  0.00    -0.312 OA
BRANCH  25  26
HETATM   26  C   UNK N   1      32.402  11.707   5.512  0.00  0.00     0.255 C 
HETATM   27  O   UNK N   1      31.575  10.812   5.606  0.00  0.00    -0.266 OA
HETATM   28  C   UNK N   1      33.336  11.711   4.351  0.00  0.00     0.126 C 
ENDBRANCH  25  26
ENDBRANCH  14  25
BRANCH   1  29
HETATM   29  C   UNK N   1      33.749  11.758   8.483  0.00  0.00     0.201 C 
BRANCH  29  30
HETATM   30  O   UNK N   1      32.691  11.125   9.142  0.00  0.00    -0.393 OA
HETATM   31  C   UNK N   1      32.809   9.780   8.793  0.00  0.00     0.201 C 
ENDBRANCH  29  30
ENDBRANCH   1  29
TORSDOF 4
ENDMDL
MODEL 9
REMARK VINA RESULT:      -7.0     14.630     16.880
REMARK  4 active torsions:
REMARK  status: ('A' for Active; 'I' for Inactive)
REMARK    1  A    between atoms: C_1  and  C_4 
REMARK    2  A    between atoms: C_4  and  O_30 
REMARK    3  A    between atoms: C_16  and  O_15 
REMARK    4  A    between atoms: O_15  and  C_17 
ROOT
HETATM    1  C   UNK N   1      26.664  22.473  -7.370  0.00  0.00     0.173 C 
HETATM    2  O   UNK N   1      25.979  22.738  -8.574  0.00  0.00    -0.308 OA
HETATM    3  C   UNK N   1      28.233  22.690  -7.554  0.00  0.00     0.042 A 
HETATM    4  C   UNK N   1      26.394  22.240  -9.776  0.00  0.00     0.296 C 
HETATM    5  O   UNK N   1      25.659  22.242 -10.747  0.00  0.00    -0.259 OA
HETATM    6  C   UNK N   1      27.720  21.652  -9.816  0.00  0.00     0.072 A 
HETATM    7  C   UNK N   1      28.533  21.820  -8.752  0.00  0.00     0.013 A 
HETATM    8  C   UNK N   1      28.357  20.793 -10.696  0.00  0.00     0.161 A 
HETATM    9  C   UNK N   1      29.591  21.025  -8.951  0.00  0.00     0.134 A 
HETATM   10  C   UNK N   1      30.595  20.872  -7.937  0.00  0.00     0.213 A 
HETATM   11  O   UNK N   1      29.497  20.431 -10.126  0.00  0.00    -0.317 OA
HETATM   12  O   UNK N   1      31.568  20.159  -8.136  0.00  0.00    -0.285 OA
HETATM   13  C   UNK N   1      30.404  21.591  -6.636  0.00  0.00     0.006 A 
HETATM   14  C   UNK N   1      29.249  23.208  -5.080  0.00  0.00     0.164 C 
HETATM   15  C   UNK N   1      29.291  22.411  -6.406  0.00  0.00    -0.024 A 
HETATM   16  C   UNK N   1      31.518  21.403  -5.605  0.00  0.00     0.039 C 
HETATM   17  C   UNK N   1      28.452  24.136  -7.990  0.00  0.00     0.028 C 
HETATM   18  C   UNK N   1      29.992  22.473  -3.953  0.00  0.00     0.055 C 
HETATM   19  C   UNK N   1      31.438  22.262  -4.345  0.00  0.00     0.027 C 
HETATM   20  C   UNK N   1      32.168  23.595  -4.521  0.00  0.00     0.024 C 
HETATM   21  C   UNK N   1      32.130  21.406  -3.347  0.00  0.00     0.136 C 
HETATM   22  C   UNK N   1      31.603  19.961  -5.102  0.00  0.00     0.018 C 
HETATM   23  C   UNK N   1      32.428  20.033  -3.822  0.00  0.00     0.080 C 
HETATM   24  O   UNK N   1      32.364  21.768  -2.204  0.00  0.00    -0.297 OA
ENDROOT
BRANCH  14  25
HETATM   25  O   UNK N   1      27.972  23.519  -4.662  0.00  0.00    -0.312 OA
BRANCH  25  26
HETATM   26  C   UNK N   1      27.681  24.457  -3.714  0.00  0.00     0.255 C 
HETATM   27  O   UNK N   1      26.959  24.192  -2.763  0.00  0.00    -0.266 OA
HETATM   28  C   UNK N   1      28.269  25.821  -3.819  0.00  0.00     0.126 C 
ENDBRANCH  25  26
ENDBRANCH  14  25
BRANCH   1  29
HETATM   29  C   UNK N   1      25.960  23.282  -6.288  0.00  0.00     0.201 C 
BRANCH  29  30
HETATM   30  O   UNK N   1      25.132  24.263  -6.839  0.00  0.00    -0.393 OA
HETATM   31  C   UNK N   1      25.500  25.443  -6.194  0.00  0.00     0.201 C 
ENDBRANCH  29  30
ENDBRANCH   1  29
TORSDOF 4
ENDMDL
