REMARK  6 active torsions:
REMARK  status: ('A' for Active; 'I' for Inactive)
REMARK    1  A    between atoms: C_1  and  C_2 
REMARK    2  A    between atoms: C_1  and  C_9 
REMARK    3  A    between atoms: C_2  and  C_12 
REMARK    4  A    between atoms: C_3  and  N_14 
REMARK    5  A    between atoms: C_8  and  C_12 
REMARK    6  A    between atoms: C_9  and  O_11 
ROOT
HETATM    1  C   UNK N   1      -1.002  -0.881  -0.000  0.00  0.00     0.039 A 
HETATM    2  C   UNK N   1      -2.224  -1.563  -0.000  0.00  0.00     0.030 A 
HETATM    3  C   UNK N   1      -3.433  -0.879   0.000  0.00  0.00     0.002 A 
HETATM    4  C   UNK N   1      -3.437   0.508   0.000  0.00  0.00     0.001 A 
HETATM    5  C   UNK N   1      -2.231   1.207   0.000  0.00  0.00     0.017 A 
HETATM    6  C   UNK N   1      -0.978   0.555  -0.000  0.00  0.00     0.036 A 
ENDROOT
BRANCH   6   7
HETATM    7  C   UNK N   1       0.222   1.501  -0.000  0.00  0.00     0.162 C 
HETATM    8  O   UNK N   1      -0.037   2.696  -0.000  0.00  0.00    -0.292 OA
BRANCH   7   9
HETATM    9  C   UNK N   1       1.714   1.203  -0.000  0.00  0.00     0.094 C 
BRANCH   9  10
HETATM   10  C   UNK N   1       2.250  -0.207   0.000  0.00  0.00     0.117 C 
BRANCH  10  11
HETATM   11  C   UNK N   1       3.742  -0.312   0.000  0.00  0.00     0.139 C 
HETATM   12  O   UNK N   1       4.446   0.686  -0.000  0.00  0.00    -0.650 OA
BRANCH  11  13
HETATM   13  O   UNK N   1       4.311  -1.531   0.000  0.00  0.00    -0.776 OA
HETATM   14  H   UNK N   1       3.773  -2.299   0.000  0.00  0.00     0.167 HD
ENDBRANCH  11  13
ENDBRANCH  10  11
ENDBRANCH   9  10
ENDBRANCH   7   9
ENDBRANCH   6   7
BRANCH   1  15
HETATM   15  N   UNK N   1       0.149  -1.676  -0.000  0.00  0.00    -0.398 N 
HETATM   16  H   UNK N   1       0.070  -2.657  -0.000  0.00  0.00     0.156 HD
HETATM   17  H   UNK N   1       1.039  -1.253  -0.000  0.00  0.00     0.156 HD
ENDBRANCH   1  15
TORSDOF 6
