MODEL 1
REMARK VINA RESULT:      -6.0      0.000      0.000
REMARK  6 active torsions:
REMARK  status: ('A' for Active; 'I' for Inactive)
REMARK    1  A    between atoms: C_1  and  C_2 
REMARK    2  A    between atoms: C_1  and  C_9 
REMARK    3  A    between atoms: C_2  and  C_12 
REMARK    4  A    between atoms: C_3  and  N_14 
REMARK    5  A    between atoms: C_8  and  C_12 
REMARK    6  A    between atoms: C_9  and  O_11 
ROOT
HETATM    1  C   UNK N   1      21.854  12.399  10.938  0.00  0.00     0.039 A 
HETATM    2  C   UNK N   1      23.048  11.704  11.157  0.00  0.00     0.030 A 
HETATM    3  C   UNK N   1      24.203  12.011  10.449  0.00  0.00     0.002 A 
HETATM    4  C   UNK N   1      24.179  13.026   9.504  0.00  0.00     0.001 A 
HETATM    5  C   UNK N   1      23.000  13.731   9.270  0.00  0.00     0.017 A 
HETATM    6  C   UNK N   1      21.802  13.454   9.965  0.00  0.00     0.036 A 
ENDROOT
BRANCH   6   7
HETATM    7  C   UNK N   1      20.623  14.339   9.562  0.00  0.00     0.162 C 
HETATM    8  O   UNK N   1      19.511  13.902   9.822  0.00  0.00    -0.292 OA
BRANCH   7   9
HETATM    9  C   UNK N   1      20.597  15.698   8.878  0.00  0.00     0.094 C 
BRANCH   9  10
HETATM   10  C   UNK N   1      19.324  16.489   8.715  0.00  0.00     0.117 C 
BRANCH  10  11
HETATM   11  C   UNK N   1      19.474  17.966   8.897  0.00  0.00     0.139 C 
HETATM   12  O   UNK N   1      20.258  18.611   8.219  0.00  0.00    -0.650 OA
BRANCH  11  13
HETATM   13  O   UNK N   1      18.728  18.588   9.828  0.00  0.00    -0.776 OA
HETATM   14  H   UNK N   1      17.873  18.264  10.037  0.00  0.00     0.167 HD
ENDBRANCH  11  13
ENDBRANCH  10  11
ENDBRANCH   9  10
ENDBRANCH   7   9
ENDBRANCH   6   7
BRANCH   1  15
HETATM   15  N   UNK N   1      20.757  12.001  11.710  0.00  0.00    -0.398 N 
HETATM   16  H   UNK N   1      20.606  12.404  12.595  0.00  0.00     0.156 HD
HETATM   17  H   UNK N   1      20.136  11.317  11.367  0.00  0.00     0.156 HD
ENDBRANCH   1  15
TORSDOF 6
ENDMDL
MODEL 2
REMARK VINA RESULT:      -5.8     17.571     19.075
REMARK  6 active torsions:
REMARK  status: ('A' for Active; 'I' for Inactive)
REMARK    1  A    between atoms: C_1  and  C_2 
REMARK    2  A    between atoms: C_1  and  C_9 
REMARK    3  A    between atoms: C_2  and  C_12 
REMARK    4  A    between atoms: C_3  and  N_14 
REMARK    5  A    between atoms: C_8  and  C_12 
REMARK    6  A    between atoms: C_9  and  O_11 
ROOT
HETATM    1  C   UNK N   1      25.617  25.412  -5.245  0.00  0.00     0.039 A 
HETATM    2  C   UNK N   1      24.915  26.565  -5.615  0.00  0.00     0.030 A 
HETATM    3  C   UNK N   1      25.036  27.747  -4.896  0.00  0.00     0.002 A 
HETATM    4  C   UNK N   1      25.868  27.794  -3.787  0.00  0.00     0.001 A 
HETATM    5  C   UNK N   1      26.577  26.657  -3.401  0.00  0.00     0.017 A 
HETATM    6  C   UNK N   1      26.485  25.434  -4.101  0.00  0.00     0.036 A 
ENDROOT
BRANCH   6   7
HETATM    7  C   UNK N   1      27.341  24.310  -3.516  0.00  0.00     0.162 C 
HETATM    8  O   UNK N   1      26.905  23.773  -2.508  0.00  0.00    -0.292 OA
BRANCH   7   9
HETATM    9  C   UNK N   1      28.669  23.736  -3.985  0.00  0.00     0.094 C 
BRANCH   9  10
HETATM   10  C   UNK N   1      29.983  24.151  -3.371  0.00  0.00     0.117 C 
BRANCH  10  11
HETATM   11  C   UNK N   1      30.628  23.115  -2.506  0.00  0.00     0.139 C 
HETATM   12  O   UNK N   1      30.345  23.015  -1.323  0.00  0.00    -0.650 OA
BRANCH  11  13
HETATM   13  O   UNK N   1      31.536  22.284  -3.049  0.00  0.00    -0.776 OA
HETATM   14  H   UNK N   1      31.304  21.755  -3.788  0.00  0.00     0.167 HD
ENDBRANCH  11  13
ENDBRANCH  10  11
ENDBRANCH   9  10
ENDBRANCH   7   9
ENDBRANCH   6   7
BRANCH   1  15
HETATM   15  N   UNK N   1      25.415  24.282  -6.044  0.00  0.00    -0.398 N 
HETATM   16  H   UNK N   1      24.568  24.170  -6.533  0.00  0.00     0.156 HD
HETATM   17  H   UNK N   1      26.121  23.599  -6.117  0.00  0.00     0.156 HD
ENDBRANCH   1  15
TORSDOF 6
ENDMDL
MODEL 3
REMARK VINA RESULT:      -5.8     11.524     13.427
REMARK  6 active torsions:
REMARK  status: ('A' for Active; 'I' for Inactive)
REMARK    1  A    between atoms: C_1  and  C_2 
REMARK    2  A    between atoms: C_1  and  C_9 
REMARK    3  A    between atoms: C_2  and  C_12 
REMARK    4  A    between atoms: C_3  and  N_14 
REMARK    5  A    between atoms: C_8  and  C_12 
REMARK    6  A    between atoms: C_9  and  O_11 
ROOT
HETATM    1  C   UNK N   1      32.006  17.343   7.822  0.00  0.00     0.039 A 
HETATM    2  C   UNK N   1      31.145  17.115   6.742  0.00  0.00     0.030 A 
HETATM    3  C   UNK N   1      31.608  17.135   5.432  0.00  0.00     0.002 A 
HETATM    4  C   UNK N   1      32.949  17.385   5.182  0.00  0.00     0.001 A 
HETATM    5  C   UNK N   1      33.824  17.614   6.242  0.00  0.00     0.017 A 
HETATM    6  C   UNK N   1      33.400  17.604   7.589  0.00  0.00     0.036 A 
ENDROOT
BRANCH   6   7
HETATM    7  C   UNK N   1      34.513  17.877   8.600  0.00  0.00     0.162 C 
HETATM    8  O   UNK N   1      35.139  18.915   8.440  0.00  0.00    -0.292 OA
BRANCH   7   9
HETATM    9  C   UNK N   1      34.983  17.062   9.795  0.00  0.00     0.094 C 
BRANCH   9  10
HETATM   10  C   UNK N   1      34.913  15.555   9.815  0.00  0.00     0.117 C 
BRANCH  10  11
HETATM   11  C   UNK N   1      34.073  14.979  10.911  0.00  0.00     0.139 C 
HETATM   12  O   UNK N   1      34.579  14.384  11.849  0.00  0.00    -0.650 OA
BRANCH  11  13
HETATM   13  O   UNK N   1      32.737  15.125  10.854  0.00  0.00    -0.776 OA
HETATM   14  H   UNK N   1      32.203  14.830  11.566  0.00  0.00     0.167 HD
ENDBRANCH  11  13
ENDBRANCH  10  11
ENDBRANCH   9  10
ENDBRANCH   7   9
ENDBRANCH   6   7
BRANCH   1  15
HETATM   15  N   UNK N   1      31.427  17.298   9.094  0.00  0.00    -0.398 N 
HETATM   16  H   UNK N   1      30.864  16.533   9.352  0.00  0.00     0.156 HD
HETATM   17  H   UNK N   1      31.583  18.033   9.732  0.00  0.00     0.156 HD
ENDBRANCH   1  15
TORSDOF 6
ENDMDL
MODEL 4
REMARK VINA RESULT:      -5.4     14.801     15.916
REMARK  6 active torsions:
REMARK  status: ('A' for Active; 'I' for Inactive)
REMARK    1  A    between atoms: C_1  and  C_2 
REMARK    2  A    between atoms: C_1  and  C_9 
REMARK    3  A    between atoms: C_2  and  C_12 
REMARK    4  A    between atoms: C_3  and  N_14 
REMARK    5  A    between atoms: C_8  and  C_12 
REMARK    6  A    between atoms: C_9  and  O_11 
ROOT
HETATM    1  C   UNK N   1      35.268  13.277  18.436  0.00  0.00     0.039 A 
HETATM    2  C   UNK N   1      35.283  12.628  19.676  0.00  0.00     0.030 A 
HETATM    3  C   UNK N   1      35.257  11.243  19.767  0.00  0.00     0.002 A 
HETATM    4  C   UNK N   1      35.216  10.479  18.610  0.00  0.00     0.001 A 
HETATM    5  C   UNK N   1      35.201  11.105  17.364  0.00  0.00     0.017 A 
HETATM    6  C   UNK N   1      35.226  12.510  17.222  0.00  0.00     0.036 A 
ENDROOT
BRANCH   6   7
HETATM    7  C   UNK N   1      35.204  12.995  15.773  0.00  0.00     0.162 C 
HETATM    8  O   UNK N   1      34.194  12.733  15.135  0.00  0.00    -0.292 OA
BRANCH   7   9
HETATM    9  C   UNK N   1      36.245  13.764  14.974  0.00  0.00     0.094 C 
BRANCH   9  10
HETATM   10  C   UNK N   1      36.486  13.501  13.508  0.00  0.00     0.117 C 
BRANCH  10  11
HETATM   11  C   UNK N   1      35.629  14.298  12.577  0.00  0.00     0.139 C 
HETATM   12  O   UNK N   1      36.056  15.303  12.030  0.00  0.00    -0.650 OA
BRANCH  11  13
HETATM   13  O   UNK N   1      34.367  13.896  12.344  0.00  0.00    -0.776 OA
HETATM   14  H   UNK N   1      34.200  13.220  11.716  0.00  0.00     0.167 HD
ENDBRANCH  11  13
ENDBRANCH  10  11
ENDBRANCH   9  10
ENDBRANCH   7   9
ENDBRANCH   6   7
BRANCH   1  15
HETATM   15  N   UNK N   1      35.297  14.675  18.470  0.00  0.00    -0.398 N 
HETATM   16  H   UNK N   1      34.489  15.190  18.245  0.00  0.00     0.156 HD
HETATM   17  H   UNK N   1      36.127  15.144  18.718  0.00  0.00     0.156 HD
ENDBRANCH   1  15
TORSDOF 6
ENDMDL
MODEL 5
REMARK VINA RESULT:      -5.4     10.200     11.850
REMARK  6 active torsions:
REMARK  status: ('A' for Active; 'I' for Inactive)
REMARK    1  A    between atoms: C_1  and  C_2 
REMARK    2  A    between atoms: C_1  and  C_9 
REMARK    3  A    between atoms: C_2  and  C_12 
REMARK    4  A    between atoms: C_3  and  N_14 
REMARK    5  A    between atoms: C_8  and  C_12 
REMARK    6  A    between atoms: C_9  and  O_11 
ROOT
HETATM    1  C   UNK N   1      29.154  17.119   7.157  0.00  0.00     0.039 A 
HETATM    2  C   UNK N   1      28.162  17.626   8.004  0.00  0.00     0.030 A 
HETATM    3  C   UNK N   1      28.487  18.326   9.158  0.00  0.00     0.002 A 
HETATM    4  C   UNK N   1      29.819  18.531   9.485  0.00  0.00     0.001 A 
HETATM    5  C   UNK N   1      30.823  18.035   8.655  0.00  0.00     0.017 A 
HETATM    6  C   UNK N   1      30.541  17.317   7.471  0.00  0.00     0.036 A 
ENDROOT
BRANCH   6   7
HETATM    7  C   UNK N   1      31.780  16.860   6.704  0.00  0.00     0.162 C 
HETATM    8  O   UNK N   1      31.720  15.747   6.201  0.00  0.00    -0.292 OA
BRANCH   7   9
HETATM    9  C   UNK N   1      33.104  17.567   6.454  0.00  0.00     0.094 C 
BRANCH   9  10
HETATM   10  C   UNK N   1      34.359  17.211   7.212  0.00  0.00     0.117 C 
BRANCH  10  11
HETATM   11  C   UNK N   1      34.590  18.009   8.455  0.00  0.00     0.139 C 
HETATM   12  O   UNK N   1      35.075  19.129   8.407  0.00  0.00    -0.650 OA
BRANCH  11  13
HETATM   13  O   UNK N   1      34.256  17.477   9.645  0.00  0.00    -0.776 OA
HETATM   14  H   UNK N   1      33.603  16.805   9.690  0.00  0.00     0.167 HD
ENDBRANCH  11  13
ENDBRANCH  10  11
ENDBRANCH   9  10
ENDBRANCH   7   9
ENDBRANCH   6   7
BRANCH   1  15
HETATM   15  N   UNK N   1      28.706  16.431   6.024  0.00  0.00    -0.398 N 
HETATM   16  H   UNK N   1      29.180  16.532   5.167  0.00  0.00     0.156 HD
HETATM   17  H   UNK N   1      27.916  15.845   6.084  0.00  0.00     0.156 HD
ENDBRANCH   1  15
TORSDOF 6
ENDMDL
MODEL 6
REMARK VINA RESULT:      -5.2      2.932      5.458
REMARK  6 active torsions:
REMARK  status: ('A' for Active; 'I' for Inactive)
REMARK    1  A    between atoms: C_1  and  C_2 
REMARK    2  A    between atoms: C_1  and  C_9 
REMARK    3  A    between atoms: C_2  and  C_12 
REMARK    4  A    between atoms: C_3  and  N_14 
REMARK    5  A    between atoms: C_8  and  C_12 
REMARK    6  A    between atoms: C_9  and  O_11 
ROOT
HETATM    1  C   UNK N   1      20.785  15.391   8.387  0.00  0.00     0.039 A 
HETATM    2  C   UNK N   1      21.222  16.185   7.320  0.00  0.00     0.030 A 
HETATM    3  C   UNK N   1      22.361  15.857   6.596  0.00  0.00     0.002 A 
HETATM    4  C   UNK N   1      23.085  14.722   6.930  0.00  0.00     0.001 A 
HETATM    5  C   UNK N   1      22.667  13.918   7.989  0.00  0.00     0.017 A 
HETATM    6  C   UNK N   1      21.516  14.211   8.754  0.00  0.00     0.036 A 
ENDROOT
BRANCH   6   7
HETATM    7  C   UNK N   1      21.230  13.205   9.869  0.00  0.00     0.162 C 
HETATM    8  O   UNK N   1      20.084  13.188  10.294  0.00  0.00    -0.292 OA
BRANCH   7   9
HETATM    9  C   UNK N   1      22.147  12.203  10.553  0.00  0.00     0.094 C 
BRANCH   9  10
HETATM   10  C   UNK N   1      22.124  11.982  12.045  0.00  0.00     0.117 C 
BRANCH  10  11
HETATM   11  C   UNK N   1      23.461  12.054  12.712  0.00  0.00     0.139 C 
HETATM   12  O   UNK N   1      23.565  12.001  13.927  0.00  0.00    -0.650 OA
BRANCH  11  13
HETATM   13  O   UNK N   1      24.564  12.180  11.952  0.00  0.00    -0.776 OA
HETATM   14  H   UNK N   1      24.860  11.457  11.433  0.00  0.00     0.167 HD
ENDBRANCH  11  13
ENDBRANCH  10  11
ENDBRANCH   9  10
ENDBRANCH   7   9
ENDBRANCH   6   7
BRANCH   1  15
HETATM   15  N   UNK N   1      19.626  15.821   9.042  0.00  0.00    -0.398 N 
HETATM   16  H   UNK N   1      18.949  15.166   9.325  0.00  0.00     0.156 HD
HETATM   17  H   UNK N   1      19.488  16.781   9.219  0.00  0.00     0.156 HD
ENDBRANCH   1  15
TORSDOF 6
ENDMDL
MODEL 7
REMARK VINA RESULT:      -5.2      1.777      2.319
REMARK  6 active torsions:
REMARK  status: ('A' for Active; 'I' for Inactive)
REMARK    1  A    between atoms: C_1  and  C_2 
REMARK    2  A    between atoms: C_1  and  C_9 
REMARK    3  A    between atoms: C_2  and  C_12 
REMARK    4  A    between atoms: C_3  and  N_14 
REMARK    5  A    between atoms: C_8  and  C_12 
REMARK    6  A    between atoms: C_9  and  O_11 
ROOT
HETATM    1  C   UNK N   1      23.734  12.864   9.460  0.00  0.00     0.039 A 
HETATM    2  C   UNK N   1      24.679  12.378  10.371  0.00  0.00     0.030 A 
HETATM    3  C   UNK N   1      24.302  11.913  11.624  0.00  0.00     0.002 A 
HETATM    4  C   UNK N   1      22.964  11.927  11.988  0.00  0.00     0.001 A 
HETATM    5  C   UNK N   1      22.006  12.407  11.096  0.00  0.00     0.017 A 
HETATM    6  C   UNK N   1      22.342  12.890   9.811  0.00  0.00     0.036 A 
ENDROOT
BRANCH   6   7
HETATM    7  C   UNK N   1      21.147  13.370   8.989  0.00  0.00     0.162 C 
HETATM    8  O   UNK N   1      20.864  12.695   8.009  0.00  0.00    -0.292 OA
BRANCH   7   9
HETATM    9  C   UNK N   1      20.231  14.569   9.186  0.00  0.00     0.094 C 
BRANCH   9  10
HETATM   10  C   UNK N   1      20.635  15.963   8.774  0.00  0.00     0.117 C 
BRANCH  10  11
HETATM   11  C   UNK N   1      19.517  16.956   8.738  0.00  0.00     0.139 C 
HETATM   12  O   UNK N   1      18.355  16.596   8.629  0.00  0.00    -0.650 OA
BRANCH  11  13
HETATM   13  O   UNK N   1      19.806  18.267   8.827  0.00  0.00    -0.776 OA
HETATM   14  H   UNK N   1      20.372  18.666   8.195  0.00  0.00     0.167 HD
ENDBRANCH  11  13
ENDBRANCH  10  11
ENDBRANCH   9  10
ENDBRANCH   7   9
ENDBRANCH   6   7
BRANCH   1  15
HETATM   15  N   UNK N   1      24.232  13.305   8.229  0.00  0.00    -0.398 N 
HETATM   16  H   UNK N   1      24.695  14.171   8.167  0.00  0.00     0.156 HD
HETATM   17  H   UNK N   1      24.119  12.747   7.425  0.00  0.00     0.156 HD
ENDBRANCH   1  15
TORSDOF 6
ENDMDL
MODEL 8
REMARK VINA RESULT:      -5.1      7.613      9.032
REMARK  6 active torsions:
REMARK  status: ('A' for Active; 'I' for Inactive)
REMARK    1  A    between atoms: C_1  and  C_2 
REMARK    2  A    between atoms: C_1  and  C_9 
REMARK    3  A    between atoms: C_2  and  C_12 
REMARK    4  A    between atoms: C_3  and  N_14 
REMARK    5  A    between atoms: C_8  and  C_12 
REMARK    6  A    between atoms: C_9  and  O_11 
ROOT
HETATM    1  C   UNK N   1      20.265  16.418   1.112  0.00  0.00     0.039 A 
HETATM    2  C   UNK N   1      20.797  15.136   0.936  0.00  0.00     0.030 A 
HETATM    3  C   UNK N   1      21.466  14.484   1.964  0.00  0.00     0.002 A 
HETATM    4  C   UNK N   1      21.614  15.110   3.193  0.00  0.00     0.001 A 
HETATM    5  C   UNK N   1      21.091  16.387   3.390  0.00  0.00     0.017 A 
HETATM    6  C   UNK N   1      20.403  17.089   2.375  0.00  0.00     0.036 A 
ENDROOT
BRANCH   6   7
HETATM    7  C   UNK N   1      19.910  18.473   2.792  0.00  0.00     0.162 C 
HETATM    8  O   UNK N   1      18.698  18.635   2.785  0.00  0.00    -0.292 OA
BRANCH   7   9
HETATM    9  C   UNK N   1      20.685  19.709   3.224  0.00  0.00     0.094 C 
BRANCH   9  10
HETATM   10  C   UNK N   1      21.570  20.474   2.271  0.00  0.00     0.117 C 
BRANCH  10  11
HETATM   11  C   UNK N   1      20.915  20.868   0.985  0.00  0.00     0.139 C 
HETATM   12  O   UNK N   1      20.562  22.020   0.783  0.00  0.00    -0.650 OA
BRANCH  11  13
HETATM   13  O   UNK N   1      20.716  19.932   0.040  0.00  0.00    -0.776 OA
HETATM   14  H   UNK N   1      21.233  19.939  -0.743  0.00  0.00     0.167 HD
ENDBRANCH  11  13
ENDBRANCH  10  11
ENDBRANCH   9  10
ENDBRANCH   7   9
ENDBRANCH   6   7
BRANCH   1  15
HETATM   15  N   UNK N   1      19.613  16.973   0.006  0.00  0.00    -0.398 N 
HETATM   16  H   UNK N   1      18.661  16.780  -0.152  0.00  0.00     0.156 HD
HETATM   17  H   UNK N   1      20.108  17.557  -0.614  0.00  0.00     0.156 HD
ENDBRANCH   1  15
TORSDOF 6
ENDMDL
MODEL 9
REMARK VINA RESULT:      -5.1     18.654     20.826
REMARK  6 active torsions:
REMARK  status: ('A' for Active; 'I' for Inactive)
REMARK    1  A    between atoms: C_1  and  C_2 
REMARK    2  A    between atoms: C_1  and  C_9 
REMARK    3  A    between atoms: C_2  and  C_12 
REMARK    4  A    between atoms: C_3  and  N_14 
REMARK    5  A    between atoms: C_8  and  C_12 
REMARK    6  A    between atoms: C_9  and  O_11 
ROOT
HETATM    1  C   UNK N   1      26.663  29.090  -4.607  0.00  0.00     0.039 A 
HETATM    2  C   UNK N   1      27.605  30.118  -4.727  0.00  0.00     0.030 A 
HETATM    3  C   UNK N   1      28.455  30.195  -5.823  0.00  0.00     0.002 A 
HETATM    4  C   UNK N   1      28.374  29.237  -6.823  0.00  0.00     0.001 A 
HETATM    5  C   UNK N   1      27.443  28.205  -6.724  0.00  0.00     0.017 A 
HETATM    6  C   UNK N   1      26.558  28.085  -5.629  0.00  0.00     0.036 A 
ENDROOT
BRANCH   6   7
HETATM    7  C   UNK N   1      25.617  26.885  -5.710  0.00  0.00     0.162 C 
HETATM    8  O   UNK N   1      24.421  27.140  -5.713  0.00  0.00    -0.292 OA
BRANCH   7   9
HETATM    9  C   UNK N   1      25.920  25.396  -5.790  0.00  0.00     0.094 C 
BRANCH   9  10
HETATM   10  C   UNK N   1      25.776  24.483  -4.598  0.00  0.00     0.117 C 
BRANCH  10  11
HETATM   11  C   UNK N   1      26.936  24.496  -3.653  0.00  0.00     0.139 C 
HETATM   12  O   UNK N   1      26.909  23.861  -2.610  0.00  0.00    -0.650 OA
BRANCH  11  13
HETATM   13  O   UNK N   1      28.024  25.223  -3.965  0.00  0.00    -0.776 OA
HETATM   14  H   UNK N   1      28.855  24.801  -4.070  0.00  0.00     0.167 HD
ENDBRANCH  11  13
ENDBRANCH  10  11
ENDBRANCH   9  10
ENDBRANCH   7   9
ENDBRANCH   6   7
BRANCH   1  15
HETATM   15  N   UNK N   1      25.862  29.116  -3.461  0.00  0.00    -0.398 N 
HETATM   16  H   UNK N   1      25.824  29.927  -2.905  0.00  0.00     0.156 HD
HETATM   17  H   UNK N   1      25.336  28.321  -3.210  0.00  0.00     0.156 HD
ENDBRANCH   1  15
TORSDOF 6
ENDMDL
