MODEL 1
REMARK VINA RESULT:      -6.8      0.000      0.000
REMARK  2 active torsions:
REMARK  status: ('A' for Active; 'I' for Inactive)
REMARK    1  A    between atoms: C_4  and  C_14 
REMARK    2  A    between atoms: C_6  and  C_7 
ROOT
HETATM    1  N   UNK N   1      36.776  14.777  13.665  0.00  0.00    -0.304 N 
HETATM    2  N   UNK N   1      36.920  14.311  14.898  0.00  0.00    -0.300 N 
ATOM      3  HN  UNK N   1      37.643  14.589  15.562  1.00  0.00     0.187 HD
HETATM    4  C   UNK N   1      35.948  13.408  15.124  0.00  0.00     0.060 A 
HETATM    5  C   UNK N   1      35.157  13.278  14.001  0.00  0.00     0.058 A 
HETATM    6  C   UNK N   1      35.718  14.164  13.102  0.00  0.00     0.032 A 
HETATM    7  H   UNK N   1      37.346  15.455  13.235  0.00  0.00     0.186 HD
ENDROOT
BRANCH   4   8
HETATM    8  C   UNK N   1      35.711  12.734  16.412  0.00  0.00    -0.008 A 
HETATM    9  C   UNK N   1      35.293  13.482  17.524  0.00  0.00     0.015 A 
HETATM   10  C   UNK N   1      35.126  12.867  18.766  0.00  0.00     0.024 A 
HETATM   11  C   UNK N   1      35.376  11.501  18.908  0.00  0.00     0.034 A 
HETATM   12  C   UNK N   1      35.786  10.747  17.804  0.00  0.00     0.024 A 
HETATM   13 Cl   UNK N   1      35.185  10.740  20.472  0.00  0.00    -0.084 Cl
HETATM   14  C   UNK N   1      35.957  11.362  16.559  0.00  0.00     0.015 A 
ENDBRANCH   4   8
BRANCH   6  15
HETATM   15  C   UNK N   1      35.185  14.492  11.736  0.00  0.00     0.040 C 
HETATM   16  C   UNK N   1      35.708  13.527  10.665  0.00  0.00     0.030 C 
HETATM   17  C   UNK N   1      35.113  13.896   9.309  0.00  0.00     0.114 C 
HETATM   18  N   UNK N   1      35.454  15.276   8.964  0.00  0.00    -0.421 N 
HETATM   19  C   UNK N   1      34.858  16.176   9.951  0.00  0.00     0.114 C 
HETATM   20  H   UNK N   1      36.017  15.564   8.163  0.00  0.00     0.153 HD
HETATM   21  C   UNK N   1      35.481  15.928  11.325  0.00  0.00     0.030 C 
ENDBRANCH   6  15
TORSDOF 2
ENDMDL
MODEL 2
REMARK VINA RESULT:      -6.8      0.891      1.787
REMARK  2 active torsions:
REMARK  status: ('A' for Active; 'I' for Inactive)
REMARK    1  A    between atoms: C_4  and  C_14 
REMARK    2  A    between atoms: C_6  and  C_7 
ROOT
HETATM    1  N   UNK N   1      36.812  15.301  13.557  0.00  0.00    -0.304 N 
HETATM    2  N   UNK N   1      36.917  14.756  14.761  0.00  0.00    -0.300 N 
ATOM      3  HN  UNK N   1      37.509  15.093  15.521  1.00  0.00     0.187 HD
HETATM    4  C   UNK N   1      36.109  13.680  14.810  0.00  0.00     0.060 A 
HETATM    5  C   UNK N   1      35.470  13.518  13.598  0.00  0.00     0.058 A 
HETATM    6  C   UNK N   1      35.944  14.568  12.835  0.00  0.00     0.032 A 
HETATM    7  H   UNK N   1      37.287  16.104  13.244  0.00  0.00     0.186 HD
ENDROOT
BRANCH   4   8
HETATM    8  C   UNK N   1      35.874  12.860  16.010  0.00  0.00    -0.008 A 
HETATM    9  C   UNK N   1      36.097  11.475  15.964  0.00  0.00     0.015 A 
HETATM   10  C   UNK N   1      35.817  10.678  17.075  0.00  0.00     0.024 A 
HETATM   11  C   UNK N   1      35.312  11.257  18.241  0.00  0.00     0.034 A 
HETATM   12  C   UNK N   1      35.094  12.637  18.298  0.00  0.00     0.024 A 
HETATM   13 Cl   UNK N   1      34.944  10.249  19.623  0.00  0.00    -0.084 Cl
HETATM   14  C   UNK N   1      35.371  13.438  17.184  0.00  0.00     0.015 A 
ENDBRANCH   4   8
BRANCH   6  15
HETATM   15  C   UNK N   1      35.496  14.921  11.445  0.00  0.00     0.040 C 
HETATM   16  C   UNK N   1      35.370  16.436  11.247  0.00  0.00     0.030 C 
HETATM   17  C   UNK N   1      34.937  16.730   9.813  0.00  0.00     0.114 C 
HETATM   18  N   UNK N   1      33.665  16.069   9.521  0.00  0.00    -0.421 N 
HETATM   19  C   UNK N   1      33.845  14.621   9.625  0.00  0.00     0.114 C 
HETATM   20  H   UNK N   1      32.793  16.543   9.284  0.00  0.00     0.153 HD
HETATM   21  C   UNK N   1      34.188  14.240  11.065  0.00  0.00     0.030 C 
ENDBRANCH   6  15
TORSDOF 2
ENDMDL
MODEL 3
REMARK VINA RESULT:      -6.5      5.149      9.181
REMARK  2 active torsions:
REMARK  status: ('A' for Active; 'I' for Inactive)
REMARK    1  A    between atoms: C_4  and  C_14 
REMARK    2  A    between atoms: C_6  and  C_7 
ROOT
HETATM    1  N   UNK N   1      34.933  16.694  10.997  0.00  0.00    -0.304 N 
HETATM    2  N   UNK N   1      34.639  17.197   9.806  0.00  0.00    -0.300 N 
ATOM      3  HN  UNK N   1      34.593  18.188   9.570  1.00  0.00     0.187 HD
HETATM    4  C   UNK N   1      34.411  16.174   8.960  0.00  0.00     0.060 A 
HETATM    5  C   UNK N   1      34.552  14.974   9.626  0.00  0.00     0.058 A 
HETATM    6  C   UNK N   1      34.884  15.351  10.913  0.00  0.00     0.032 A 
HETATM    7  H   UNK N   1      35.150  17.214  11.804  0.00  0.00     0.186 HD
ENDROOT
BRANCH   4   8
HETATM    8  C   UNK N   1      34.146  16.319   7.519  0.00  0.00    -0.008 A 
HETATM    9  C   UNK N   1      33.509  17.474   7.039  0.00  0.00     0.015 A 
HETATM   10  C   UNK N   1      33.195  17.596   5.684  0.00  0.00     0.024 A 
HETATM   11  C   UNK N   1      33.514  16.566   4.798  0.00  0.00     0.034 A 
HETATM   12  C   UNK N   1      34.155  15.414   5.266  0.00  0.00     0.024 A 
HETATM   13 Cl   UNK N   1      33.100  16.716   3.105  0.00  0.00    -0.084 Cl
HETATM   14  C   UNK N   1      34.468  15.289   6.624  0.00  0.00     0.015 A 
ENDBRANCH   4   8
BRANCH   6  15
HETATM   15  C   UNK N   1      35.244  14.424  12.039  0.00  0.00     0.040 C 
HETATM   16  C   UNK N   1      36.174  15.089  13.060  0.00  0.00     0.030 C 
HETATM   17  C   UNK N   1      36.482  14.108  14.187  0.00  0.00     0.114 C 
HETATM   18  N   UNK N   1      37.098  12.894  13.650  0.00  0.00    -0.421 N 
HETATM   19  C   UNK N   1      36.148  12.233  12.755  0.00  0.00     0.114 C 
HETATM   20  H   UNK N   1      38.039  12.563  13.865  0.00  0.00     0.153 HD
HETATM   21  C   UNK N   1      35.865  13.124  11.545  0.00  0.00     0.030 C 
ENDBRANCH   6  15
TORSDOF 2
ENDMDL
MODEL 4
REMARK VINA RESULT:      -6.4      1.786      2.881
REMARK  2 active torsions:
REMARK  status: ('A' for Active; 'I' for Inactive)
REMARK    1  A    between atoms: C_4  and  C_14 
REMARK    2  A    between atoms: C_6  and  C_7 
ROOT
HETATM    1  N   UNK N   1      37.270  13.958  10.969  0.00  0.00    -0.304 N 
HETATM    2  N   UNK N   1      37.338  13.500  12.212  0.00  0.00    -0.300 N 
ATOM      3  HN  UNK N   1      38.066  12.890  12.586  1.00  0.00     0.187 HD
HETATM    4  C   UNK N   1      36.281  13.976  12.896  0.00  0.00     0.060 A 
HETATM    5  C   UNK N   1      35.501  14.758  12.069  0.00  0.00     0.058 A 
HETATM    6  C   UNK N   1      36.166  14.719  10.858  0.00  0.00     0.032 A 
HETATM    7  H   UNK N   1      37.918  13.773  10.251  0.00  0.00     0.186 HD
ENDROOT
BRANCH   4   8
HETATM    8  C   UNK N   1      36.050  13.769  14.335  0.00  0.00    -0.008 A 
HETATM    9  C   UNK N   1      35.021  12.915  14.761  0.00  0.00     0.015 A 
HETATM   10  C   UNK N   1      34.750  12.761  16.122  0.00  0.00     0.024 A 
HETATM   11  C   UNK N   1      35.503  13.457  17.068  0.00  0.00     0.034 A 
HETATM   12  C   UNK N   1      36.536  14.305  16.652  0.00  0.00     0.024 A 
HETATM   13 Cl   UNK N   1      35.146  13.275  18.770  0.00  0.00    -0.084 Cl
HETATM   14  C   UNK N   1      36.807  14.464  15.289  0.00  0.00     0.015 A 
ENDBRANCH   4   8
BRANCH   6  15
HETATM   15  C   UNK N   1      35.793  15.486   9.621  0.00  0.00     0.040 C 
HETATM   16  C   UNK N   1      34.811  16.623   9.921  0.00  0.00     0.030 C 
HETATM   17  C   UNK N   1      34.490  17.376   8.633  0.00  0.00     0.114 C 
HETATM   18  N   UNK N   1      33.926  16.464   7.639  0.00  0.00    -0.421 N 
HETATM   19  C   UNK N   1      34.924  15.448   7.303  0.00  0.00     0.114 C 
HETATM   20  H   UNK N   1      32.988  16.527   7.243  0.00  0.00     0.153 HD
HETATM   21  C   UNK N   1      35.224  14.587   8.530  0.00  0.00     0.030 C 
ENDBRANCH   6  15
TORSDOF 2
ENDMDL
MODEL 5
REMARK VINA RESULT:      -6.4     10.733     14.782
REMARK  2 active torsions:
REMARK  status: ('A' for Active; 'I' for Inactive)
REMARK    1  A    between atoms: C_4  and  C_14 
REMARK    2  A    between atoms: C_6  and  C_7 
ROOT
HETATM    1  N   UNK N   1      29.288  17.965   4.587  0.00  0.00    -0.304 N 
HETATM    2  N   UNK N   1      28.326  18.425   3.799  0.00  0.00    -0.300 N 
ATOM      3  HN  UNK N   1      28.395  18.565   2.791  1.00  0.00     0.187 HD
HETATM    4  C   UNK N   1      27.242  18.676   4.557  0.00  0.00     0.060 A 
HETATM    5  C   UNK N   1      27.514  18.379   5.877  0.00  0.00     0.058 A 
HETATM    6  C   UNK N   1      28.821  17.931   5.849  0.00  0.00     0.032 A 
HETATM    7  H   UNK N   1      30.190  17.695   4.299  0.00  0.00     0.186 HD
ENDROOT
BRANCH   4   8
HETATM    8  C   UNK N   1      25.935  19.110   4.036  0.00  0.00    -0.008 A 
HETATM    9  C   UNK N   1      25.858  20.224   3.187  0.00  0.00     0.015 A 
HETATM   10  C   UNK N   1      24.619  20.684   2.737  0.00  0.00     0.024 A 
HETATM   11  C   UNK N   1      23.447  20.036   3.133  0.00  0.00     0.034 A 
HETATM   12  C   UNK N   1      23.516  18.920   3.973  0.00  0.00     0.024 A 
HETATM   13 Cl   UNK N   1      21.897  20.629   2.583  0.00  0.00    -0.084 Cl
HETATM   14  C   UNK N   1      24.756  18.459   4.428  0.00  0.00     0.015 A 
ENDBRANCH   4   8
BRANCH   6  15
HETATM   15  C   UNK N   1      29.591  17.384   7.018  0.00  0.00     0.040 C 
HETATM   16  C   UNK N   1      29.470  18.277   8.258  0.00  0.00     0.030 C 
HETATM   17  C   UNK N   1      30.252  17.657   9.413  0.00  0.00     0.114 C 
HETATM   18  N   UNK N   1      31.657  17.487   9.042  0.00  0.00    -0.421 N 
HETATM   19  C   UNK N   1      31.743  16.554   7.917  0.00  0.00     0.114 C 
HETATM   20  H   UNK N   1      32.448  17.945   9.494  0.00  0.00     0.153 HD
HETATM   21  C   UNK N   1      31.061  17.154   6.689  0.00  0.00     0.030 C 
ENDBRANCH   6  15
TORSDOF 2
ENDMDL
MODEL 6
REMARK VINA RESULT:      -6.3      5.601      9.443
REMARK  2 active torsions:
REMARK  status: ('A' for Active; 'I' for Inactive)
REMARK    1  A    between atoms: C_4  and  C_14 
REMARK    2  A    between atoms: C_6  and  C_7 
ROOT
HETATM    1  N   UNK N   1      34.568  16.985   9.872  0.00  0.00    -0.304 N 
HETATM    2  N   UNK N   1      33.641  17.650   9.196  0.00  0.00    -0.300 N 
ATOM      3  HN  UNK N   1      33.588  18.664   9.093  1.00  0.00     0.187 HD
HETATM    4  C   UNK N   1      32.781  16.758   8.670  0.00  0.00     0.060 A 
HETATM    5  C   UNK N   1      33.157  15.479   9.023  0.00  0.00     0.058 A 
HETATM    6  C   UNK N   1      34.294  15.670   9.784  0.00  0.00     0.032 A 
HETATM    7  H   UNK N   1      35.327  17.385  10.355  0.00  0.00     0.186 HD
ENDROOT
BRANCH   4   8
HETATM    8  C   UNK N   1      31.664  17.097   7.772  0.00  0.00    -0.008 A 
HETATM    9  C   UNK N   1      30.436  17.510   8.310  0.00  0.00     0.015 A 
HETATM   10  C   UNK N   1      29.350  17.773   7.473  0.00  0.00     0.024 A 
HETATM   11  C   UNK N   1      29.482  17.625   6.091  0.00  0.00     0.034 A 
HETATM   12  C   UNK N   1      30.705  17.222   5.545  0.00  0.00     0.024 A 
HETATM   13 Cl   UNK N   1      28.113  17.937   5.049  0.00  0.00    -0.084 Cl
HETATM   14  C   UNK N   1      31.794  16.955   6.383  0.00  0.00     0.015 A 
ENDBRANCH   4   8
BRANCH   6  15
HETATM   15  C   UNK N   1      35.170  14.588  10.349  0.00  0.00     0.040 C 
HETATM   16  C   UNK N   1      34.976  14.418  11.860  0.00  0.00     0.030 C 
HETATM   17  C   UNK N   1      35.873  13.293  12.368  0.00  0.00     0.114 C 
HETATM   18  N   UNK N   1      37.274  13.583  12.063  0.00  0.00    -0.421 N 
HETATM   19  C   UNK N   1      37.443  13.643  10.611  0.00  0.00     0.114 C 
HETATM   20  H   UNK N   1      38.013  13.721  12.752  0.00  0.00     0.153 HD
HETATM   21  C   UNK N   1      36.645  14.814  10.041  0.00  0.00     0.030 C 
ENDBRANCH   6  15
TORSDOF 2
ENDMDL
MODEL 7
REMARK VINA RESULT:      -6.2      3.861      7.577
REMARK  2 active torsions:
REMARK  status: ('A' for Active; 'I' for Inactive)
REMARK    1  A    between atoms: C_4  and  C_14 
REMARK    2  A    between atoms: C_6  and  C_7 
ROOT
HETATM    1  N   UNK N   1      34.713  11.856  13.259  0.00  0.00    -0.304 N 
HETATM    2  N   UNK N   1      34.493  12.488  12.115  0.00  0.00    -0.300 N 
ATOM      3  HN  UNK N   1      34.021  12.100  11.298  1.00  0.00     0.187 HD
HETATM    4  C   UNK N   1      35.001  13.731  12.214  0.00  0.00     0.060 A 
HETATM    5  C   UNK N   1      35.574  13.906  13.457  0.00  0.00     0.058 A 
HETATM    6  C   UNK N   1      35.368  12.693  14.086  0.00  0.00     0.032 A 
HETATM    7  H   UNK N   1      34.443  10.933  13.469  0.00  0.00     0.186 HD
ENDROOT
BRANCH   4   8
HETATM    8  C   UNK N   1      34.873  14.775  11.184  0.00  0.00    -0.008 A 
HETATM    9  C   UNK N   1      35.553  15.993  11.336  0.00  0.00     0.015 A 
HETATM   10  C   UNK N   1      35.390  17.015  10.399  0.00  0.00     0.024 A 
HETATM   11  C   UNK N   1      34.547  16.829   9.302  0.00  0.00     0.034 A 
HETATM   12  C   UNK N   1      33.871  15.615   9.138  0.00  0.00     0.024 A 
HETATM   13 Cl   UNK N   1      34.332  18.120   8.142  0.00  0.00    -0.084 Cl
HETATM   14  C   UNK N   1      34.030  14.591  10.078  0.00  0.00     0.015 A 
ENDBRANCH   4   8
BRANCH   6  15
HETATM   15  C   UNK N   1      35.717  12.367  15.511  0.00  0.00     0.040 C 
HETATM   16  C   UNK N   1      35.769  10.856  15.761  0.00  0.00     0.030 C 
HETATM   17  C   UNK N   1      36.151  10.591  17.215  0.00  0.00     0.114 C 
HETATM   18  N   UNK N   1      35.188  11.224  18.116  0.00  0.00    -0.421 N 
HETATM   19  C   UNK N   1      35.233  12.673  17.919  0.00  0.00     0.114 C 
HETATM   20  H   UNK N   1      34.583  10.734  18.775  0.00  0.00     0.153 HD
HETATM   21  C   UNK N   1      34.767  13.022  16.506  0.00  0.00     0.030 C 
ENDBRANCH   6  15
TORSDOF 2
ENDMDL
MODEL 8
REMARK VINA RESULT:      -6.2      9.752     13.013
REMARK  2 active torsions:
REMARK  status: ('A' for Active; 'I' for Inactive)
REMARK    1  A    between atoms: C_4  and  C_14 
REMARK    2  A    between atoms: C_6  and  C_7 
ROOT
HETATM    1  N   UNK N   1      26.113  17.145   6.102  0.00  0.00    -0.304 N 
HETATM    2  N   UNK N   1      27.162  16.863   6.863  0.00  0.00    -0.300 N 
ATOM      3  HN  UNK N   1      27.196  16.154   7.596  1.00  0.00     0.187 HD
HETATM    4  C   UNK N   1      28.175  17.673   6.501  0.00  0.00     0.060 A 
HETATM    5  C   UNK N   1      27.767  18.510   5.484  0.00  0.00     0.058 A 
HETATM    6  C   UNK N   1      26.454  18.140   5.262  0.00  0.00     0.032 A 
HETATM    7  H   UNK N   1      25.235  16.703   6.145  0.00  0.00     0.186 HD
ENDROOT
BRANCH   4   8
HETATM    8  C   UNK N   1      29.541  17.603   7.048  0.00  0.00    -0.008 A 
HETATM    9  C   UNK N   1      29.808  18.116   8.326  0.00  0.00     0.015 A 
HETATM   10  C   UNK N   1      31.110  18.115   8.830  0.00  0.00     0.024 A 
HETATM   11  C   UNK N   1      32.156  17.602   8.060  0.00  0.00     0.034 A 
HETATM   12  C   UNK N   1      31.898  17.082   6.788  0.00  0.00     0.024 A 
HETATM   13 Cl   UNK N   1      33.788  17.621   8.689  0.00  0.00    -0.084 Cl
HETATM   14  C   UNK N   1      30.594  17.085   6.280  0.00  0.00     0.015 A 
ENDBRANCH   4   8
BRANCH   6  15
HETATM   15  C   UNK N   1      25.556  18.677   4.184  0.00  0.00     0.040 C 
HETATM   16  C   UNK N   1      26.074  19.998   3.606  0.00  0.00     0.030 C 
HETATM   17  C   UNK N   1      25.135  20.478   2.503  0.00  0.00     0.114 C 
HETATM   18  N   UNK N   1      23.780  20.648   3.029  0.00  0.00    -0.421 N 
HETATM   19  C   UNK N   1      23.279  19.351   3.483  0.00  0.00     0.114 C 
HETATM   20  H   UNK N   1      23.268  21.529   3.071  0.00  0.00     0.153 HD
HETATM   21  C   UNK N   1      24.119  18.850   4.658  0.00  0.00     0.030 C 
ENDBRANCH   6  15
TORSDOF 2
ENDMDL
MODEL 9
REMARK VINA RESULT:      -6.1      8.830     12.815
REMARK  2 active torsions:
REMARK  status: ('A' for Active; 'I' for Inactive)
REMARK    1  A    between atoms: C_4  and  C_14 
REMARK    2  A    between atoms: C_6  and  C_7 
ROOT
HETATM    1  N   UNK N   1      29.424  17.236   8.362  0.00  0.00    -0.304 N 
HETATM    2  N   UNK N   1      28.362  17.697   7.717  0.00  0.00    -0.300 N 
ATOM      3  HN  UNK N   1      27.437  17.850   8.120  1.00  0.00     0.187 HD
HETATM    4  C   UNK N   1      28.712  17.928   6.438  0.00  0.00     0.060 A 
HETATM    5  C   UNK N   1      30.038  17.597   6.247  0.00  0.00     0.058 A 
HETATM    6  C   UNK N   1      30.450  17.164   7.493  0.00  0.00     0.032 A 
HETATM    7  H   UNK N   1      29.457  16.988   9.315  0.00  0.00     0.186 HD
ENDROOT
BRANCH   4   8
HETATM    8  C   UNK N   1      27.834  18.534   5.423  0.00  0.00    -0.008 A 
HETATM    9  C   UNK N   1      27.773  19.930   5.297  0.00  0.00     0.015 A 
HETATM   10  C   UNK N   1      26.898  20.519   4.382  0.00  0.00     0.024 A 
HETATM   11  C   UNK N   1      26.076  19.719   3.588  0.00  0.00     0.034 A 
HETATM   12  C   UNK N   1      26.134  18.326   3.702  0.00  0.00     0.024 A 
HETATM   13 Cl   UNK N   1      24.966  20.463   2.459  0.00  0.00    -0.084 Cl
HETATM   14  C   UNK N   1      27.009  17.733   4.620  0.00  0.00     0.015 A 
ENDBRANCH   4   8
BRANCH   6  15
HETATM   15  C   UNK N   1      31.849  16.770   7.873  0.00  0.00     0.040 C 
HETATM   16  C   UNK N   1      31.869  15.720   8.990  0.00  0.00     0.030 C 
HETATM   17  C   UNK N   1      33.313  15.344   9.312  0.00  0.00     0.114 C 
HETATM   18  N   UNK N   1      34.069  16.531   9.713  0.00  0.00    -0.421 N 
HETATM   19  C   UNK N   1      34.112  17.470   8.592  0.00  0.00     0.114 C 
HETATM   20  H   UNK N   1      34.497  16.678  10.627  0.00  0.00     0.153 HD
HETATM   21  C   UNK N   1      32.702  17.966   8.274  0.00  0.00     0.030 C 
ENDBRANCH   6  15
TORSDOF 2
ENDMDL
