REMARK  2 active torsions:
REMARK  status: ('A' for Active; 'I' for Inactive)
REMARK    1  A    between atoms: S_2  and  C_3 
REMARK    2  A    between atoms: C_8  and  C_10 
ROOT
HETATM    1  C   UNK N   1       1.114   2.310   0.000  0.00  0.00     0.160 A 
HETATM    2  N   UNK N   1       2.241   1.569   0.000  0.00  0.00    -0.278 N 
ATOM      3  HN  UNK N   1       3.199   1.921   0.000  1.00  0.00     0.189 HD
HETATM    4  N   UNK N   1       1.868   0.298   0.000  0.00  0.00    -0.283 N 
ATOM      5  HN  UNK N   1       2.483  -0.516   0.000  1.00  0.00     0.188 HD
HETATM    6  C   UNK N   1       0.521   0.287  -0.000  0.00  0.00     0.132 A 
HETATM    7  N   UNK N   1       0.018   1.536  -0.000  0.00  0.00    -0.320 N 
HETATM    8  H   UNK N   1      -0.926   1.814  -0.000  0.00  0.00     0.169 HD
ENDROOT
BRANCH   6   9
HETATM    9  C   UNK N   1      -0.320  -0.919  -0.000  0.00  0.00     0.009 A 
HETATM   10  C   UNK N   1       0.244  -2.204  -0.000  0.00  0.00     0.017 A 
HETATM   11  C   UNK N   1      -0.587  -3.332   0.000  0.00  0.00     0.025 A 
HETATM   12  C   UNK N   1      -1.979  -3.177  -0.000  0.00  0.00     0.034 A 
HETATM   13 Cl   UNK N   1      -3.026  -4.579   0.000  0.00  0.00    -0.084 Cl
HETATM   14  C   UNK N   1      -2.539  -1.900  -0.000  0.00  0.00     0.025 A 
HETATM   15  C   UNK N   1      -1.713  -0.777  -0.000  0.00  0.00     0.017 A 
ENDBRANCH   6   9
BRANCH   1  16
HETATM   16  S   UNK N   1       1.035   4.106   0.000  0.00  0.00    -0.097 SA
HETATM   17  C   UNK N   1       2.829   4.382  -0.000  0.00  0.00     0.099 C 
ENDBRANCH   1  16
TORSDOF 2
