MODEL 1
REMARK VINA RESULT:      -5.9      0.000      0.000
REMARK  2 active torsions:
REMARK  status: ('A' for Active; 'I' for Inactive)
REMARK    1  A    between atoms: S_2  and  C_3 
REMARK    2  A    between atoms: C_8  and  C_10 
ROOT
HETATM    1  C   UNK N   1      35.704  14.090  13.135  0.00  0.00     0.160 A 
HETATM    2  N   UNK N   1      36.814  14.704  13.591  0.00  0.00    -0.278 N 
ATOM      3  HN  UNK N   1      37.425  15.327  13.061  1.00  0.00     0.189 HD
HETATM    4  N   UNK N   1      36.962  14.346  14.858  0.00  0.00    -0.283 N 
ATOM      5  HN  UNK N   1      37.707  14.638  15.490  1.00  0.00     0.188 HD
HETATM    6  C   UNK N   1      35.938  13.520  15.151  0.00  0.00     0.132 A 
HETATM    7  N   UNK N   1      35.131  13.340  14.088  0.00  0.00    -0.320 N 
HETATM    8  H   UNK N   1      34.317  12.791  14.026  0.00  0.00     0.169 HD
ENDROOT
BRANCH   6   9
HETATM    9  C   UNK N   1      35.707  12.881  16.455  0.00  0.00     0.009 A 
HETATM   10  C   UNK N   1      35.351  13.633  17.585  0.00  0.00     0.017 A 
HETATM   11  C   UNK N   1      35.138  12.993  18.812  0.00  0.00     0.025 A 
HETATM   12  C   UNK N   1      35.279  11.603  18.911  0.00  0.00     0.034 A 
HETATM   13 Cl   UNK N   1      35.015  10.792  20.439  0.00  0.00    -0.084 Cl
HETATM   14  C   UNK N   1      35.633  10.856  17.788  0.00  0.00     0.025 A 
HETATM   15  C   UNK N   1      35.845  11.492  16.566  0.00  0.00     0.017 A 
ENDBRANCH   6   9
BRANCH   1  16
HETATM   16  S   UNK N   1      35.034  14.226  11.472  0.00  0.00    -0.097 SA
HETATM   17  C   UNK N   1      35.483  15.967  11.220  0.00  0.00     0.099 C 
ENDBRANCH   1  16
TORSDOF 2
ENDMDL
MODEL 2
REMARK VINA RESULT:      -5.3      7.200     10.090
REMARK  2 active torsions:
REMARK  status: ('A' for Active; 'I' for Inactive)
REMARK    1  A    between atoms: S_2  and  C_3 
REMARK    2  A    between atoms: C_8  and  C_10 
ROOT
HETATM    1  C   UNK N   1      35.289  15.644  10.792  0.00  0.00     0.160 A 
HETATM    2  N   UNK N   1      35.040  16.963  10.925  0.00  0.00    -0.278 N 
ATOM      3  HN  UNK N   1      35.133  17.515  11.778  1.00  0.00     0.189 HD
HETATM    4  N   UNK N   1      34.653  17.405   9.738  0.00  0.00    -0.283 N 
ATOM      5  HN  UNK N   1      34.390  18.362   9.501  1.00  0.00     0.188 HD
HETATM    6  C   UNK N   1      34.672  16.348   8.903  0.00  0.00     0.132 A 
HETATM    7  N   UNK N   1      35.068  15.227   9.536  0.00  0.00    -0.320 N 
HETATM    8  H   UNK N   1      35.170  14.321   9.166  0.00  0.00     0.169 HD
ENDROOT
BRANCH   6   9
HETATM    9  C   UNK N   1      34.313  16.383   7.478  0.00  0.00     0.009 A 
HETATM   10  C   UNK N   1      33.685  17.502   6.909  0.00  0.00     0.017 A 
HETATM   11  C   UNK N   1      33.357  17.501   5.547  0.00  0.00     0.025 A 
HETATM   12  C   UNK N   1      33.654  16.385   4.754  0.00  0.00     0.034 A 
HETATM   13 Cl   UNK N   1      33.248  16.375   3.052  0.00  0.00    -0.084 Cl
HETATM   14  C   UNK N   1      34.278  15.274   5.320  0.00  0.00     0.025 A 
HETATM   15  C   UNK N   1      34.606  15.273   6.675  0.00  0.00     0.017 A 
ENDBRANCH   6   9
BRANCH   1  16
HETATM   16  S   UNK N   1      35.847  14.541  12.097  0.00  0.00    -0.097 SA
HETATM   17  C   UNK N   1      37.064  13.645  11.091  0.00  0.00     0.099 C 
ENDBRANCH   1  16
TORSDOF 2
ENDMDL
MODEL 3
REMARK VINA RESULT:      -5.2      7.645     10.380
REMARK  2 active torsions:
REMARK  status: ('A' for Active; 'I' for Inactive)
REMARK    1  A    between atoms: S_2  and  C_3 
REMARK    2  A    between atoms: C_8  and  C_10 
ROOT
HETATM    1  C   UNK N   1      33.754  15.369   9.547  0.00  0.00     0.160 A 
HETATM    2  N   UNK N   1      32.905  14.886  10.478  0.00  0.00    -0.278 N 
ATOM      3  HN  UNK N   1      33.142  14.268  11.254  1.00  0.00     0.189 HD
HETATM    4  N   UNK N   1      31.704  15.368  10.192  0.00  0.00    -0.283 N 
ATOM      5  HN  UNK N   1      30.840  15.191  10.706  1.00  0.00     0.188 HD
HETATM    6  C   UNK N   1      31.843  16.134   9.093  0.00  0.00     0.132 A 
HETATM    7  N   UNK N   1      33.119  16.155   8.664  0.00  0.00    -0.320 N 
HETATM    8  H   UNK N   1      33.495  16.631   7.890  0.00  0.00     0.169 HD
ENDROOT
BRANCH   6   9
HETATM    9  C   UNK N   1      30.758  16.867   8.424  0.00  0.00     0.009 A 
HETATM   10  C   UNK N   1      29.912  17.732   9.136  0.00  0.00     0.017 A 
HETATM   11  C   UNK N   1      28.888  18.415   8.467  0.00  0.00     0.025 A 
HETATM   12  C   UNK N   1      28.708  18.235   7.090  0.00  0.00     0.034 A 
HETATM   13 Cl   UNK N   1      27.432  19.083   6.245  0.00  0.00    -0.084 Cl
HETATM   14  C   UNK N   1      29.548  17.375   6.383  0.00  0.00     0.025 A 
HETATM   15  C   UNK N   1      30.568  16.695   7.048  0.00  0.00     0.017 A 
ENDBRANCH   6   9
BRANCH   1  16
HETATM   16  S   UNK N   1      35.517  15.032   9.457  0.00  0.00    -0.097 SA
HETATM   17  C   UNK N   1      35.976  15.991  10.928  0.00  0.00     0.099 C 
ENDBRANCH   1  16
TORSDOF 2
ENDMDL
MODEL 4
REMARK VINA RESULT:      -5.1     27.282     28.180
REMARK  2 active torsions:
REMARK  status: ('A' for Active; 'I' for Inactive)
REMARK    1  A    between atoms: S_2  and  C_3 
REMARK    2  A    between atoms: C_8  and  C_10 
ROOT
HETATM    1  C   UNK N   1      25.834  24.953  -8.602  0.00  0.00     0.160 A 
HETATM    2  N   UNK N   1      25.351  24.214  -7.583  0.00  0.00    -0.278 N 
ATOM      3  HN  UNK N   1      24.998  23.258  -7.639  1.00  0.00     0.189 HD
HETATM    4  N   UNK N   1      25.421  24.965  -6.494  0.00  0.00    -0.283 N 
ATOM      5  HN  UNK N   1      25.133  24.699  -5.552  1.00  0.00     0.188 HD
HETATM    6  C   UNK N   1      25.945  26.148  -6.869  0.00  0.00     0.132 A 
HETATM    7  N   UNK N   1      26.215  26.171  -8.188  0.00  0.00    -0.320 N 
HETATM    8  H   UNK N   1      26.599  26.904  -8.720  0.00  0.00     0.169 HD
ENDROOT
BRANCH   6   9
HETATM    9  C   UNK N   1      26.201  27.287  -5.976  0.00  0.00     0.009 A 
HETATM   10  C   UNK N   1      27.170  28.255  -6.283  0.00  0.00     0.017 A 
HETATM   11  C   UNK N   1      27.388  29.328  -5.409  0.00  0.00     0.025 A 
HETATM   12  C   UNK N   1      26.640  29.434  -4.230  0.00  0.00     0.034 A 
HETATM   13 Cl   UNK N   1      26.904  30.770  -3.131  0.00  0.00    -0.084 Cl
HETATM   14  C   UNK N   1      25.677  28.473  -3.925  0.00  0.00     0.025 A 
HETATM   15  C   UNK N   1      25.459  27.405  -4.794  0.00  0.00     0.017 A 
ENDBRANCH   6   9
BRANCH   1  16
HETATM   16  S   UNK N   1      25.971  24.422 -10.314  0.00  0.00    -0.097 SA
HETATM   17  C   UNK N   1      24.708  25.547 -10.972  0.00  0.00     0.099 C 
ENDBRANCH   1  16
TORSDOF 2
ENDMDL
MODEL 5
REMARK VINA RESULT:      -5.1      3.844      4.860
REMARK  2 active torsions:
REMARK  status: ('A' for Active; 'I' for Inactive)
REMARK    1  A    between atoms: S_2  and  C_3 
REMARK    2  A    between atoms: C_8  and  C_10 
ROOT
HETATM    1  C   UNK N   1      33.930  16.165   9.306  0.00  0.00     0.160 A 
HETATM    2  N   UNK N   1      34.516  17.216   9.915  0.00  0.00    -0.278 N 
ATOM      3  HN  UNK N   1      34.513  18.184   9.592  1.00  0.00     0.189 HD
HETATM    4  N   UNK N   1      35.096  16.752  11.013  0.00  0.00    -0.283 N 
ATOM      5  HN  UNK N   1      35.625  17.295  11.696  1.00  0.00     0.188 HD
HETATM    6  C   UNK N   1      34.853  15.428  11.052  0.00  0.00     0.132 A 
HETATM    7  N   UNK N   1      34.123  15.029   9.994  0.00  0.00    -0.320 N 
HETATM    8  H   UNK N   1      33.807  14.123   9.777  0.00  0.00     0.169 HD
ENDROOT
BRANCH   6   9
HETATM    9  C   UNK N   1      35.313  14.510  12.104  0.00  0.00     0.009 A 
HETATM   10  C   UNK N   1      36.141  14.950  13.149  0.00  0.00     0.017 A 
HETATM   11  C   UNK N   1      36.561  14.048  14.135  0.00  0.00     0.025 A 
HETATM   12  C   UNK N   1      36.156  12.708  14.078  0.00  0.00     0.034 A 
HETATM   13 Cl   UNK N   1      36.675  11.574  15.305  0.00  0.00    -0.084 Cl
HETATM   14  C   UNK N   1      35.334  12.271  13.040  0.00  0.00     0.025 A 
HETATM   15  C   UNK N   1      34.915  13.168  12.058  0.00  0.00     0.017 A 
ENDBRANCH   6   9
BRANCH   1  16
HETATM   16  S   UNK N   1      32.999  16.224   7.769  0.00  0.00    -0.097 SA
HETATM   17  C   UNK N   1      33.773  17.736   7.129  0.00  0.00     0.099 C 
ENDBRANCH   1  16
TORSDOF 2
ENDMDL
MODEL 6
REMARK VINA RESULT:      -5.0     26.812     27.315
REMARK  2 active torsions:
REMARK  status: ('A' for Active; 'I' for Inactive)
REMARK    1  A    between atoms: S_2  and  C_3 
REMARK    2  A    between atoms: C_8  and  C_10 
ROOT
HETATM    1  C   UNK N   1      26.201  23.626  -7.121  0.00  0.00     0.160 A 
HETATM    2  N   UNK N   1      25.246  23.424  -6.190  0.00  0.00    -0.278 N 
ATOM      3  HN  UNK N   1      24.707  22.568  -6.050  1.00  0.00     0.189 HD
HETATM    4  N   UNK N   1      25.141  24.545  -5.493  0.00  0.00    -0.283 N 
ATOM      5  HN  UNK N   1      24.507  24.719  -4.713  1.00  0.00     0.188 HD
HETATM    6  C   UNK N   1      26.034  25.411  -6.011  0.00  0.00     0.132 A 
HETATM    7  N   UNK N   1      26.715  24.863  -7.035  0.00  0.00    -0.320 N 
HETATM    8  H   UNK N   1      27.420  25.271  -7.587  0.00  0.00     0.169 HD
ENDROOT
BRANCH   6   9
HETATM    9  C   UNK N   1      26.259  26.785  -5.539  0.00  0.00     0.009 A 
HETATM   10  C   UNK N   1      25.647  27.267  -4.372  0.00  0.00     0.017 A 
HETATM   11  C   UNK N   1      25.883  28.582  -3.951  0.00  0.00     0.025 A 
HETATM   12  C   UNK N   1      26.728  29.415  -4.695  0.00  0.00     0.034 A 
HETATM   13 Cl   UNK N   1      27.029  31.060  -4.179  0.00  0.00    -0.084 Cl
HETATM   14  C   UNK N   1      27.335  28.936  -5.855  0.00  0.00     0.025 A 
HETATM   15  C   UNK N   1      27.101  27.628  -6.275  0.00  0.00     0.017 A 
ENDBRANCH   6   9
BRANCH   1  16
HETATM   16  S   UNK N   1      26.752  22.428  -8.342  0.00  0.00    -0.097 SA
HETATM   17  C   UNK N   1      25.277  21.373  -8.262  0.00  0.00     0.099 C 
ENDBRANCH   1  16
TORSDOF 2
ENDMDL
MODEL 7
REMARK VINA RESULT:      -5.0      5.360      8.809
REMARK  2 active torsions:
REMARK  status: ('A' for Active; 'I' for Inactive)
REMARK    1  A    between atoms: S_2  and  C_3 
REMARK    2  A    between atoms: C_8  and  C_10 
ROOT
HETATM    1  C   UNK N   1      35.506  14.340  12.107  0.00  0.00     0.160 A 
HETATM    2  N   UNK N   1      36.450  15.299  12.207  0.00  0.00    -0.278 N 
ATOM      3  HN  UNK N   1      37.123  15.411  12.965  1.00  0.00     0.189 HD
HETATM    4  N   UNK N   1      36.337  16.066  11.133  0.00  0.00    -0.283 N 
ATOM      5  HN  UNK N   1      36.906  16.882  10.906  1.00  0.00     0.188 HD
HETATM    6  C   UNK N   1      35.327  15.562  10.398  0.00  0.00     0.132 A 
HETATM    7  N   UNK N   1      34.784  14.477  10.984  0.00  0.00    -0.320 N 
HETATM    8  H   UNK N   1      34.039  13.920  10.665  0.00  0.00     0.169 HD
ENDROOT
BRANCH   6   9
HETATM    9  C   UNK N   1      34.853  16.104   9.116  0.00  0.00     0.009 A 
HETATM   10  C   UNK N   1      34.582  17.472   8.956  0.00  0.00     0.017 A 
HETATM   11  C   UNK N   1      34.133  17.956   7.721  0.00  0.00     0.025 A 
HETATM   12  C   UNK N   1      33.954  17.075   6.646  0.00  0.00     0.034 A 
HETATM   13 Cl   UNK N   1      33.393  17.668   5.099  0.00  0.00    -0.084 Cl
HETATM   14  C   UNK N   1      34.224  15.716   6.805  0.00  0.00     0.025 A 
HETATM   15  C   UNK N   1      34.671  15.234   8.035  0.00  0.00     0.017 A 
ENDBRANCH   6   9
BRANCH   1  16
HETATM   16  S   UNK N   1      35.210  13.026  13.297  0.00  0.00    -0.097 SA
HETATM   17  C   UNK N   1      36.396  13.615  14.539  0.00  0.00     0.099 C 
ENDBRANCH   1  16
TORSDOF 2
ENDMDL
MODEL 8
REMARK VINA RESULT:      -4.9      4.817      7.562
REMARK  2 active torsions:
REMARK  status: ('A' for Active; 'I' for Inactive)
REMARK    1  A    between atoms: S_2  and  C_3 
REMARK    2  A    between atoms: C_8  and  C_10 
ROOT
HETATM    1  C   UNK N   1      35.921  13.221  13.428  0.00  0.00     0.160 A 
HETATM    2  N   UNK N   1      36.711  14.287  13.673  0.00  0.00    -0.278 N 
ATOM      3  HN  UNK N   1      37.413  14.365  14.410  1.00  0.00     0.189 HD
HETATM    4  N   UNK N   1      36.400  15.212  12.778  0.00  0.00    -0.283 N 
ATOM      5  HN  UNK N   1      36.818  16.139  12.692  1.00  0.00     0.188 HD
HETATM    6  C   UNK N   1      35.428  14.694  12.002  0.00  0.00     0.132 A 
HETATM    7  N   UNK N   1      35.106  13.444  12.386  0.00  0.00    -0.320 N 
HETATM    8  H   UNK N   1      34.434  12.840  11.996  0.00  0.00     0.169 HD
ENDROOT
BRANCH   6   9
HETATM    9  C   UNK N   1      34.783  15.381  10.874  0.00  0.00     0.009 A 
HETATM   10  C   UNK N   1      33.667  14.831  10.225  0.00  0.00     0.017 A 
HETATM   11  C   UNK N   1      33.076  15.513   9.153  0.00  0.00     0.025 A 
HETATM   12  C   UNK N   1      33.598  16.741   8.730  0.00  0.00     0.034 A 
HETATM   13 Cl   UNK N   1      32.868  17.601   7.392  0.00  0.00    -0.084 Cl
HETATM   14  C   UNK N   1      34.707  17.287   9.376  0.00  0.00     0.025 A 
HETATM   15  C   UNK N   1      35.296  16.610  10.442  0.00  0.00     0.017 A 
ENDBRANCH   6   9
BRANCH   1  16
HETATM   16  S   UNK N   1      35.923  11.676  14.348  0.00  0.00    -0.097 SA
HETATM   17  C   UNK N   1      34.140  11.650  14.691  0.00  0.00     0.099 C 
ENDBRANCH   1  16
TORSDOF 2
ENDMDL
MODEL 9
REMARK VINA RESULT:      -4.9      1.840      2.485
REMARK  2 active torsions:
REMARK  status: ('A' for Active; 'I' for Inactive)
REMARK    1  A    between atoms: S_2  and  C_3 
REMARK    2  A    between atoms: C_8  and  C_10 
ROOT
HETATM    1  C   UNK N   1      35.009  13.640  11.175  0.00  0.00     0.160 A 
HETATM    2  N   UNK N   1      34.461  12.447  10.869  0.00  0.00    -0.278 N 
ATOM      3  HN  UNK N   1      34.172  12.132   9.942  1.00  0.00     0.189 HD
HETATM    4  N   UNK N   1      34.368  11.762  11.999  0.00  0.00    -0.283 N 
ATOM      5  HN  UNK N   1      33.994  10.819  12.109  1.00  0.00     0.188 HD
HETATM    6  C   UNK N   1      34.861  12.550  12.974  0.00  0.00     0.132 A 
HETATM    7  N   UNK N   1      35.272  13.736  12.488  0.00  0.00    -0.320 N 
HETATM    8  H   UNK N   1      35.670  14.492  12.977  0.00  0.00     0.169 HD
ENDROOT
BRANCH   6   9
HETATM    9  C   UNK N   1      34.953  12.188  14.396  0.00  0.00     0.009 A 
HETATM   10  C   UNK N   1      35.312  13.132  15.369  0.00  0.00     0.017 A 
HETATM   11  C   UNK N   1      35.389  12.753  16.716  0.00  0.00     0.025 A 
HETATM   12  C   UNK N   1      35.108  11.433  17.090  0.00  0.00     0.034 A 
HETATM   13 Cl   UNK N   1      35.202  10.949  18.768  0.00  0.00    -0.084 Cl
HETATM   14  C   UNK N   1      34.752  10.495  16.122  0.00  0.00     0.025 A 
HETATM   15  C   UNK N   1      34.674  10.871  14.782  0.00  0.00     0.017 A 
ENDBRANCH   6   9
BRANCH   1  16
HETATM   16  S   UNK N   1      35.363  14.966  10.014  0.00  0.00    -0.097 SA
HETATM   17  C   UNK N   1      35.509  16.282  11.255  0.00  0.00     0.099 C 
ENDBRANCH   1  16
TORSDOF 2
ENDMDL
