REMARK  6 active torsions:
REMARK  status: ('A' for Active; 'I' for Inactive)
REMARK    1  A    between atoms: O_2  and  C_3 
REMARK    2  A    between atoms: C_6  and  N_7 
REMARK    3  A    between atoms: N_7  and  C_8 
REMARK    4  A    between atoms: C_9  and  C_22 
REMARK    5  A    between atoms: N_12  and  C_13 
REMARK    6  A    between atoms: C_13  and  C_14 
ROOT
HETATM    1  C   UNK N   1       1.293   0.041  -0.103  0.00  0.00     0.118 A 
HETATM    2  C   UNK N   1       2.401  -0.725  -0.129  0.00  0.00     0.075 A 
HETATM    3  C   UNK N   1       1.924  -2.128  -0.058  0.00  0.00     0.264 A 
HETATM    4  O   UNK N   1       2.626  -3.128  -0.058  0.00  0.00    -0.267 OA
HETATM    5  N   UNK N   1       0.580  -2.155   0.037  0.00  0.00    -0.274 N 
HETATM    6  C   UNK N   1       0.145  -0.877   0.041  0.00  0.00     0.278 A 
HETATM    7  O   UNK N   1      -1.015  -0.552   0.220  0.00  0.00    -0.265 OA
ENDROOT
BRANCH   1   8
HETATM    8  N   UNK N   1       1.263   1.471  -0.099  0.00  0.00    -0.351 N 
HETATM    9  H   UNK N   1       2.119   1.957  -0.058  0.00  0.00     0.166 HD
BRANCH   8  10
HETATM   10  C   UNK N   1       0.061   2.225  -0.151  0.00  0.00     0.032 A 
HETATM   11  C   UNK N   1      -0.075   3.347   0.670  0.00  0.00     0.032 A 
HETATM   12  C   UNK N   1      -1.309   3.997   0.773  0.00  0.00     0.039 A 
HETATM   13  C   UNK N   1      -2.418   3.528   0.059  0.00  0.00     0.068 A 
HETATM   14  C   UNK N   1      -2.262   2.446  -0.822  0.00  0.00     0.039 A 
HETATM   15  C   UNK N   1      -1.028   1.807  -0.930  0.00  0.00     0.032 A 
BRANCH  13  16
HETATM   16  O   UNK N   1      -3.623   4.113   0.254  0.00  0.00    -0.356 OA
HETATM   17  C   UNK N   1      -4.793   3.610  -0.270  0.00  0.00     0.210 C 
ENDBRANCH  13  16
ENDBRANCH   8  10
ENDBRANCH   1   8
BRANCH   2  18
HETATM   18  C   UNK N   1       3.816  -0.267  -0.151  0.00  0.00    -0.018 A 
HETATM   19  C   UNK N   1       4.133   1.099  -0.212  0.00  0.00     0.012 A 
HETATM   20  C   UNK N   1       5.465   1.522  -0.172  0.00  0.00     0.001 A 
HETATM   21  C   UNK N   1       6.493   0.582  -0.061  0.00  0.00     0.000 A 
HETATM   22  C   UNK N   1       6.189  -0.780  -0.001  0.00  0.00     0.001 A 
HETATM   23  C   UNK N   1       4.857  -1.202  -0.045  0.00  0.00     0.012 A 
ENDBRANCH   2  18
BRANCH   5  24
HETATM   24  C   UNK N   1      -0.215  -3.376   0.165  0.00  0.00     0.174 C 
BRANCH  24  25
HETATM   25  C   UNK N   1      -1.702  -3.160   0.114  0.00  0.00    -0.040 A 
HETATM   26  C   UNK N   1      -2.477  -3.374   1.259  0.00  0.00     0.009 A 
HETATM   27  C   UNK N   1      -3.856  -3.135   1.229  0.00  0.00     0.001 A 
HETATM   28  C   UNK N   1      -4.462  -2.678   0.055  0.00  0.00     0.000 A 
HETATM   29  C   UNK N   1      -3.693  -2.470  -1.094  0.00  0.00     0.001 A 
HETATM   30  C   UNK N   1      -2.316  -2.715  -1.067  0.00  0.00     0.009 A 
ENDBRANCH  24  25
ENDBRANCH   5  24
TORSDOF 6
