MODEL 1
REMARK VINA RESULT:      -7.5      0.000      0.000
REMARK  6 active torsions:
REMARK  status: ('A' for Active; 'I' for Inactive)
REMARK    1  A    between atoms: O_2  and  C_3 
REMARK    2  A    between atoms: C_6  and  N_7 
REMARK    3  A    between atoms: N_7  and  C_8 
REMARK    4  A    between atoms: C_9  and  C_22 
REMARK    5  A    between atoms: N_12  and  C_13 
REMARK    6  A    between atoms: C_13  and  C_14 
ROOT
HETATM    1  C   UNK N   1      28.510  16.583   3.916  0.00  0.00     0.118 A 
HETATM    2  C   UNK N   1      27.489  17.157   4.581  0.00  0.00     0.075 A 
HETATM    3  C   UNK N   1      26.454  16.102   4.722  0.00  0.00     0.264 A 
HETATM    4  O   UNK N   1      25.370  16.226   5.271  0.00  0.00    -0.267 OA
HETATM    5  N   UNK N   1      26.867  14.968   4.123  0.00  0.00    -0.274 N 
HETATM    6  C   UNK N   1      28.088  15.204   3.597  0.00  0.00     0.278 A 
HETATM    7  O   UNK N   1      28.695  14.412   2.899  0.00  0.00    -0.265 OA
ENDROOT
BRANCH   1   8
HETATM    8  N   UNK N   1      29.714  17.236   3.505  0.00  0.00    -0.351 N 
HETATM    9  H   UNK N   1      29.707  17.743   2.661  0.00  0.00     0.166 HD
BRANCH   8  10
HETATM   10  C   UNK N   1      30.920  17.189   4.254  0.00  0.00     0.032 A 
HETATM   11  C   UNK N   1      30.855  17.023   5.640  0.00  0.00     0.032 A 
HETATM   12  C   UNK N   1      32.009  17.156   6.418  0.00  0.00     0.039 A 
HETATM   13  C   UNK N   1      33.236  17.461   5.818  0.00  0.00     0.068 A 
HETATM   14  C   UNK N   1      33.315  17.555   4.420  0.00  0.00     0.039 A 
HETATM   15  C   UNK N   1      32.164  17.411   3.646  0.00  0.00     0.032 A 
BRANCH  13  16
HETATM   16  O   UNK N   1      34.316  17.684   6.603  0.00  0.00    -0.356 OA
HETATM   17  C   UNK N   1      34.221  18.181   7.884  0.00  0.00     0.210 C 
ENDBRANCH  13  16
ENDBRANCH   8  10
ENDBRANCH   1   8
BRANCH   2  18
HETATM   18  C   UNK N   1      27.380  18.573   5.024  0.00  0.00    -0.018 A 
HETATM   19  C   UNK N   1      26.846  19.556   4.177  0.00  0.00     0.012 A 
HETATM   20  C   UNK N   1      26.694  20.872   4.623  0.00  0.00     0.001 A 
HETATM   21  C   UNK N   1      27.065  21.215   5.926  0.00  0.00     0.000 A 
HETATM   22  C   UNK N   1      27.599  20.245   6.777  0.00  0.00     0.001 A 
HETATM   23  C   UNK N   1      27.755  18.930   6.328  0.00  0.00     0.012 A 
ENDBRANCH   2  18
BRANCH   5  24
HETATM   24  C   UNK N   1      26.074  13.742   4.040  0.00  0.00     0.174 C 
BRANCH  24  25
HETATM   25  C   UNK N   1      25.337  13.563   2.741  0.00  0.00    -0.040 A 
HETATM   26  C   UNK N   1      25.481  12.376   2.016  0.00  0.00     0.009 A 
HETATM   27  C   UNK N   1      24.766  12.187   0.827  0.00  0.00     0.001 A 
HETATM   28  C   UNK N   1      23.902  13.184   0.364  0.00  0.00     0.000 A 
HETATM   29  C   UNK N   1      23.761  14.376   1.082  0.00  0.00     0.001 A 
HETATM   30  C   UNK N   1      24.480  14.568   2.266  0.00  0.00     0.009 A 
ENDBRANCH  24  25
ENDBRANCH   5  24
TORSDOF 6
ENDMDL
MODEL 2
REMARK VINA RESULT:      -7.3      4.854      8.241
REMARK  6 active torsions:
REMARK  status: ('A' for Active; 'I' for Inactive)
REMARK    1  A    between atoms: O_2  and  C_3 
REMARK    2  A    between atoms: C_6  and  N_7 
REMARK    3  A    between atoms: N_7  and  C_8 
REMARK    4  A    between atoms: C_9  and  C_22 
REMARK    5  A    between atoms: N_12  and  C_13 
REMARK    6  A    between atoms: C_13  and  C_14 
ROOT
HETATM    1  C   UNK N   1      23.213  16.141   5.687  0.00  0.00     0.118 A 
HETATM    2  C   UNK N   1      23.681  15.136   4.922  0.00  0.00     0.075 A 
HETATM    3  C   UNK N   1      22.901  13.935   5.311  0.00  0.00     0.264 A 
HETATM    4  O   UNK N   1      23.025  12.814   4.843  0.00  0.00    -0.267 OA
HETATM    5  N   UNK N   1      22.034  14.246   6.294  0.00  0.00    -0.274 N 
HETATM    6  C   UNK N   1      22.194  15.556   6.581  0.00  0.00     0.278 A 
HETATM    7  O   UNK N   1      21.631  16.126   7.498  0.00  0.00    -0.265 OA
ENDROOT
BRANCH   1   8
HETATM    8  N   UNK N   1      23.703  17.485   5.697  0.00  0.00    -0.351 N 
HETATM    9  H   UNK N   1      24.390  17.728   6.361  0.00  0.00     0.166 HD
BRANCH   8  10
HETATM   10  C   UNK N   1      23.250  18.487   4.799  0.00  0.00     0.032 A 
HETATM   11  C   UNK N   1      21.883  18.589   4.527  0.00  0.00     0.032 A 
HETATM   12  C   UNK N   1      21.431  19.440   3.514  0.00  0.00     0.039 A 
HETATM   13  C   UNK N   1      22.341  20.193   2.762  0.00  0.00     0.068 A 
HETATM   14  C   UNK N   1      23.706  20.145   3.085  0.00  0.00     0.039 A 
HETATM   15  C   UNK N   1      24.153  19.303   4.103  0.00  0.00     0.032 A 
BRANCH  13  16
HETATM   16  O   UNK N   1      21.886  20.930   1.722  0.00  0.00    -0.356 OA
HETATM   17  C   UNK N   1      20.735  20.622   1.032  0.00  0.00     0.210 C 
ENDBRANCH  13  16
ENDBRANCH   8  10
ENDBRANCH   1   8
BRANCH   2  18
HETATM   18  C   UNK N   1      24.796  15.192   3.940  0.00  0.00    -0.018 A 
HETATM   19  C   UNK N   1      26.134  15.203   4.365  0.00  0.00     0.012 A 
HETATM   20  C   UNK N   1      27.176  15.195   3.432  0.00  0.00     0.001 A 
HETATM   21  C   UNK N   1      26.889  15.168   2.065  0.00  0.00     0.000 A 
HETATM   22  C   UNK N   1      25.562  15.159   1.631  0.00  0.00     0.001 A 
HETATM   23  C   UNK N   1      24.521  15.171   2.564  0.00  0.00     0.012 A 
ENDBRANCH   2  18
BRANCH   5  24
HETATM   24  C   UNK N   1      21.138  13.287   6.940  0.00  0.00     0.174 C 
BRANCH  24  25
HETATM   25  C   UNK N   1      21.635  12.758   8.256  0.00  0.00    -0.040 A 
HETATM   26  C   UNK N   1      22.712  11.865   8.287  0.00  0.00     0.009 A 
HETATM   27  C   UNK N   1      23.205  11.402   9.513  0.00  0.00     0.001 A 
HETATM   28  C   UNK N   1      22.626  11.833  10.709  0.00  0.00     0.000 A 
HETATM   29  C   UNK N   1      21.545  12.719  10.683  0.00  0.00     0.001 A 
HETATM   30  C   UNK N   1      21.046  13.178   9.459  0.00  0.00     0.009 A 
ENDBRANCH  24  25
ENDBRANCH   5  24
TORSDOF 6
ENDMDL
MODEL 3
REMARK VINA RESULT:      -7.2      2.901      8.032
REMARK  6 active torsions:
REMARK  status: ('A' for Active; 'I' for Inactive)
REMARK    1  A    between atoms: O_2  and  C_3 
REMARK    2  A    between atoms: C_6  and  N_7 
REMARK    3  A    between atoms: N_7  and  C_8 
REMARK    4  A    between atoms: C_9  and  C_22 
REMARK    5  A    between atoms: N_12  and  C_13 
REMARK    6  A    between atoms: C_13  and  C_14 
ROOT
HETATM    1  C   UNK N   1      26.883  17.721   5.381  0.00  0.00     0.118 A 
HETATM    2  C   UNK N   1      26.862  16.374   5.386  0.00  0.00     0.075 A 
HETATM    3  C   UNK N   1      28.226  15.947   4.986  0.00  0.00     0.264 A 
HETATM    4  O   UNK N   1      28.615  14.795   4.872  0.00  0.00    -0.267 OA
HETATM    5  N   UNK N   1      28.991  17.027   4.732  0.00  0.00    -0.274 N 
HETATM    6  C   UNK N   1      28.229  18.124   4.927  0.00  0.00     0.278 A 
HETATM    7  O   UNK N   1      28.593  19.260   4.682  0.00  0.00    -0.265 OA
ENDROOT
BRANCH   1   8
HETATM    8  N   UNK N   1      25.770  18.577   5.654  0.00  0.00    -0.351 N 
HETATM    9  H   UNK N   1      25.620  18.868   6.583  0.00  0.00     0.166 HD
BRANCH   8  10
HETATM   10  C   UNK N   1      24.869  19.027   4.652  0.00  0.00     0.032 A 
HETATM   11  C   UNK N   1      25.268  20.049   3.788  0.00  0.00     0.032 A 
HETATM   12  C   UNK N   1      24.343  20.634   2.917  0.00  0.00     0.039 A 
HETATM   13  C   UNK N   1      23.011  20.204   2.907  0.00  0.00     0.068 A 
HETATM   14  C   UNK N   1      22.629  19.127   3.722  0.00  0.00     0.039 A 
HETATM   15  C   UNK N   1      23.556  18.540   4.582  0.00  0.00     0.032 A 
BRANCH  13  16
HETATM   16  O   UNK N   1      22.115  20.854   2.128  0.00  0.00    -0.356 OA
HETATM   17  C   UNK N   1      20.814  20.430   1.969  0.00  0.00     0.210 C 
ENDBRANCH  13  16
ENDBRANCH   8  10
ENDBRANCH   1   8
BRANCH   2  18
HETATM   18  C   UNK N   1      25.699  15.489   5.662  0.00  0.00    -0.018 A 
HETATM   19  C   UNK N   1      25.425  15.039   6.963  0.00  0.00     0.012 A 
HETATM   20  C   UNK N   1      24.296  14.256   7.221  0.00  0.00     0.001 A 
HETATM   21  C   UNK N   1      23.424  13.924   6.181  0.00  0.00     0.000 A 
HETATM   22  C   UNK N   1      23.687  14.365   4.883  0.00  0.00     0.001 A 
HETATM   23  C   UNK N   1      24.819  15.144   4.624  0.00  0.00     0.012 A 
ENDBRANCH   2  18
BRANCH   5  24
HETATM   24  C   UNK N   1      30.380  16.966   4.275  0.00  0.00     0.174 C 
BRANCH  24  25
HETATM   25  C   UNK N   1      31.402  17.152   5.362  0.00  0.00    -0.040 A 
HETATM   26  C   UNK N   1      32.745  17.358   5.028  0.00  0.00     0.009 A 
HETATM   27  C   UNK N   1      33.694  17.573   6.034  0.00  0.00     0.001 A 
HETATM   28  C   UNK N   1      33.302  17.585   7.375  0.00  0.00     0.000 A 
HETATM   29  C   UNK N   1      31.963  17.372   7.715  0.00  0.00     0.001 A 
HETATM   30  C   UNK N   1      31.014  17.150   6.711  0.00  0.00     0.009 A 
ENDBRANCH  24  25
ENDBRANCH   5  24
TORSDOF 6
ENDMDL
MODEL 4
REMARK VINA RESULT:      -7.2      3.878      6.827
REMARK  6 active torsions:
REMARK  status: ('A' for Active; 'I' for Inactive)
REMARK    1  A    between atoms: O_2  and  C_3 
REMARK    2  A    between atoms: C_6  and  N_7 
REMARK    3  A    between atoms: N_7  and  C_8 
REMARK    4  A    between atoms: C_9  and  C_22 
REMARK    5  A    between atoms: N_12  and  C_13 
REMARK    6  A    between atoms: C_13  and  C_14 
ROOT
HETATM    1  C   UNK N   1      31.987  17.309   7.236  0.00  0.00     0.118 A 
HETATM    2  C   UNK N   1      31.656  16.649   6.109  0.00  0.00     0.075 A 
HETATM    3  C   UNK N   1      30.176  16.706   6.028  0.00  0.00     0.264 A 
HETATM    4  O   UNK N   1      29.484  16.221   5.145  0.00  0.00    -0.267 OA
HETATM    5  N   UNK N   1      29.678  17.356   7.098  0.00  0.00    -0.274 N 
HETATM    6  C   UNK N   1      30.720  17.720   7.875  0.00  0.00     0.278 A 
HETATM    7  O   UNK N   1      30.605  18.236   8.972  0.00  0.00    -0.265 OA
ENDROOT
BRANCH   1   8
HETATM    8  N   UNK N   1      33.310  17.469   7.756  0.00  0.00    -0.351 N 
HETATM    9  H   UNK N   1      33.881  18.174   7.373  0.00  0.00     0.166 HD
BRANCH   8  10
HETATM   10  C   UNK N   1      33.841  16.661   8.796  0.00  0.00     0.032 A 
HETATM   11  C   UNK N   1      33.279  15.405   9.037  0.00  0.00     0.032 A 
HETATM   12  C   UNK N   1      33.658  14.670  10.164  0.00  0.00     0.039 A 
HETATM   13  C   UNK N   1      34.601  15.186  11.061  0.00  0.00     0.068 A 
HETATM   14  C   UNK N   1      35.219  16.414  10.779  0.00  0.00     0.039 A 
HETATM   15  C   UNK N   1      34.846  17.139   9.649  0.00  0.00     0.032 A 
BRANCH  13  16
HETATM   16  O   UNK N   1      34.876  14.500  12.196  0.00  0.00    -0.356 OA
HETATM   17  C   UNK N   1      34.978  13.127  12.234  0.00  0.00     0.210 C 
ENDBRANCH  13  16
ENDBRANCH   8  10
ENDBRANCH   1   8
BRANCH   2  18
HETATM   18  C   UNK N   1      32.572  15.944   5.173  0.00  0.00    -0.018 A 
HETATM   19  C   UNK N   1      33.154  14.715   5.520  0.00  0.00     0.012 A 
HETATM   20  C   UNK N   1      33.966  14.031   4.610  0.00  0.00     0.001 A 
HETATM   21  C   UNK N   1      34.195  14.566   3.340  0.00  0.00     0.000 A 
HETATM   22  C   UNK N   1      33.622  15.789   2.985  0.00  0.00     0.001 A 
HETATM   23  C   UNK N   1      32.813  16.474   3.897  0.00  0.00     0.012 A 
ENDBRANCH   2  18
BRANCH   5  24
HETATM   24  C   UNK N   1      28.252  17.557   7.354  0.00  0.00     0.174 C 
BRANCH  24  25
HETATM   25  C   UNK N   1      27.634  18.688   6.580  0.00  0.00    -0.040 A 
HETATM   26  C   UNK N   1      27.786  20.005   7.027  0.00  0.00     0.009 A 
HETATM   27  C   UNK N   1      27.248  21.065   6.289  0.00  0.00     0.001 A 
HETATM   28  C   UNK N   1      26.559  20.810   5.099  0.00  0.00     0.000 A 
HETATM   29  C   UNK N   1      26.397  19.496   4.652  0.00  0.00     0.001 A 
HETATM   30  C   UNK N   1      26.929  18.435   5.392  0.00  0.00     0.009 A 
ENDBRANCH  24  25
ENDBRANCH   5  24
TORSDOF 6
ENDMDL
MODEL 5
REMARK VINA RESULT:      -7.2      8.921     13.807
REMARK  6 active torsions:
REMARK  status: ('A' for Active; 'I' for Inactive)
REMARK    1  A    between atoms: O_2  and  C_3 
REMARK    2  A    between atoms: C_6  and  N_7 
REMARK    3  A    between atoms: N_7  and  C_8 
REMARK    4  A    between atoms: C_9  and  C_22 
REMARK    5  A    between atoms: N_12  and  C_13 
REMARK    6  A    between atoms: C_13  and  C_14 
ROOT
HETATM    1  C   UNK N   1      35.374  11.778  12.214  0.00  0.00     0.118 A 
HETATM    2  C   UNK N   1      36.702  11.554  12.175  0.00  0.00     0.075 A 
HETATM    3  C   UNK N   1      37.066  11.050  13.522  0.00  0.00     0.264 A 
HETATM    4  O   UNK N   1      38.185  10.728  13.892  0.00  0.00    -0.267 OA
HETATM    5  N   UNK N   1      35.976  11.018  14.314  0.00  0.00    -0.274 N 
HETATM    6  C   UNK N   1      34.931  11.469  13.589  0.00  0.00     0.278 A 
HETATM    7  O   UNK N   1      33.818  11.663  14.044  0.00  0.00    -0.265 OA
ENDROOT
BRANCH   1   8
HETATM    8  N   UNK N   1      34.584  12.320  11.152  0.00  0.00    -0.351 N 
HETATM    9  H   UNK N   1      34.003  11.710  10.641  0.00  0.00     0.166 HD
BRANCH   8  10
HETATM   10  C   UNK N   1      34.597  13.695  10.796  0.00  0.00     0.032 A 
HETATM   11  C   UNK N   1      34.323  14.058   9.475  0.00  0.00     0.032 A 
HETATM   12  C   UNK N   1      34.507  15.381   9.058  0.00  0.00     0.039 A 
HETATM   13  C   UNK N   1      34.969  16.349   9.957  0.00  0.00     0.068 A 
HETATM   14  C   UNK N   1      35.172  15.999  11.301  0.00  0.00     0.039 A 
HETATM   15  C   UNK N   1      34.978  14.682  11.716  0.00  0.00     0.032 A 
BRANCH  13  16
HETATM   16  O   UNK N   1      35.234  17.596   9.504  0.00  0.00    -0.356 OA
HETATM   17  C   UNK N   1      34.600  18.147   8.412  0.00  0.00     0.210 C 
ENDBRANCH  13  16
ENDBRANCH   8  10
ENDBRANCH   1   8
BRANCH   2  18
HETATM   18  C   UNK N   1      37.631  11.822  11.045  0.00  0.00    -0.018 A 
HETATM   19  C   UNK N   1      38.143  13.110  10.820  0.00  0.00     0.012 A 
HETATM   20  C   UNK N   1      39.062  13.339   9.792  0.00  0.00     0.001 A 
HETATM   21  C   UNK N   1      39.485  12.280   8.984  0.00  0.00     0.000 A 
HETATM   22  C   UNK N   1      38.981  10.995   9.198  0.00  0.00     0.001 A 
HETATM   23  C   UNK N   1      38.059  10.768  10.224  0.00  0.00     0.012 A 
ENDBRANCH   2  18
BRANCH   5  24
HETATM   24  C   UNK N   1      35.987  10.609  15.718  0.00  0.00     0.174 C 
BRANCH  24  25
HETATM   25  C   UNK N   1      35.712  11.720  16.693  0.00  0.00    -0.040 A 
HETATM   26  C   UNK N   1      35.356  11.418  18.012  0.00  0.00     0.009 A 
HETATM   27  C   UNK N   1      35.139  12.447  18.935  0.00  0.00     0.001 A 
HETATM   28  C   UNK N   1      35.281  13.781  18.542  0.00  0.00     0.000 A 
HETATM   29  C   UNK N   1      35.629  14.089  17.223  0.00  0.00     0.001 A 
HETATM   30  C   UNK N   1      35.839  13.060  16.298  0.00  0.00     0.009 A 
ENDBRANCH  24  25
ENDBRANCH   5  24
TORSDOF 6
ENDMDL
MODEL 6
REMARK VINA RESULT:      -7.1     12.332     15.289
REMARK  6 active torsions:
REMARK  status: ('A' for Active; 'I' for Inactive)
REMARK    1  A    between atoms: O_2  and  C_3 
REMARK    2  A    between atoms: C_6  and  N_7 
REMARK    3  A    between atoms: N_7  and  C_8 
REMARK    4  A    between atoms: C_9  and  C_22 
REMARK    5  A    between atoms: N_12  and  C_13 
REMARK    6  A    between atoms: C_13  and  C_14 
ROOT
HETATM    1  C   UNK N   1      26.324  24.694  -4.988  0.00  0.00     0.118 A 
HETATM    2  C   UNK N   1      27.524  24.856  -4.397  0.00  0.00     0.075 A 
HETATM    3  C   UNK N   1      27.698  26.320  -4.231  0.00  0.00     0.264 A 
HETATM    4  O   UNK N   1      28.663  26.878  -3.730  0.00  0.00    -0.267 OA
HETATM    5  N   UNK N   1      26.636  26.973  -4.743  0.00  0.00    -0.274 N 
HETATM    6  C   UNK N   1      25.787  26.047  -5.237  0.00  0.00     0.278 A 
HETATM    7  O   UNK N   1      24.776  26.314  -5.862  0.00  0.00    -0.265 OA
ENDROOT
BRANCH   1   8
HETATM    8  N   UNK N   1      25.751  23.448  -5.393  0.00  0.00    -0.351 N 
HETATM    9  H   UNK N   1      25.251  22.924  -4.725  0.00  0.00     0.166 HD
BRANCH   8  10
HETATM   10  C   UNK N   1      25.867  22.928  -6.709  0.00  0.00     0.032 A 
HETATM   11  C   UNK N   1      26.616  23.632  -7.655  0.00  0.00     0.032 A 
HETATM   12  C   UNK N   1      26.597  23.242  -8.998  0.00  0.00     0.039 A 
HETATM   13  C   UNK N   1      25.826  22.147  -9.406  0.00  0.00     0.068 A 
HETATM   14  C   UNK N   1      25.133  21.396  -8.443  0.00  0.00     0.039 A 
HETATM   15  C   UNK N   1      25.162  21.782  -7.104  0.00  0.00     0.032 A 
BRANCH  13  16
HETATM   16  O   UNK N   1      25.745  21.853 -10.725  0.00  0.00    -0.356 OA
HETATM   17  C   UNK N   1      26.547  20.912 -11.332  0.00  0.00     0.210 C 
ENDBRANCH  13  16
ENDBRANCH   8  10
ENDBRANCH   1   8
BRANCH   2  18
HETATM   18  C   UNK N   1      28.508  23.798  -4.046  0.00  0.00    -0.018 A 
HETATM   19  C   UNK N   1      29.233  23.126  -5.042  0.00  0.00     0.012 A 
HETATM   20  C   UNK N   1      30.200  22.176  -4.699  0.00  0.00     0.001 A 
HETATM   21  C   UNK N   1      30.457  21.895  -3.354  0.00  0.00     0.000 A 
HETATM   22  C   UNK N   1      29.740  22.557  -2.355  0.00  0.00     0.001 A 
HETATM   23  C   UNK N   1      28.772  23.505  -2.699  0.00  0.00     0.012 A 
ENDBRANCH   2  18
BRANCH   5  24
HETATM   24  C   UNK N   1      26.501  28.429  -4.781  0.00  0.00     0.174 C 
BRANCH  24  25
HETATM   25  C   UNK N   1      27.497  29.125  -5.666  0.00  0.00    -0.040 A 
HETATM   26  C   UNK N   1      28.077  30.328  -5.251  0.00  0.00     0.009 A 
HETATM   27  C   UNK N   1      29.036  30.959  -6.052  0.00  0.00     0.001 A 
HETATM   28  C   UNK N   1      29.418  30.387  -7.269  0.00  0.00     0.000 A 
HETATM   29  C   UNK N   1      28.835  29.189  -7.692  0.00  0.00     0.001 A 
HETATM   30  C   UNK N   1      27.872  28.560  -6.895  0.00  0.00     0.009 A 
ENDBRANCH  24  25
ENDBRANCH   5  24
TORSDOF 6
ENDMDL
MODEL 7
REMARK VINA RESULT:      -7.1      6.218     10.180
REMARK  6 active torsions:
REMARK  status: ('A' for Active; 'I' for Inactive)
REMARK    1  A    between atoms: O_2  and  C_3 
REMARK    2  A    between atoms: C_6  and  N_7 
REMARK    3  A    between atoms: N_7  and  C_8 
REMARK    4  A    between atoms: C_9  and  C_22 
REMARK    5  A    between atoms: N_12  and  C_13 
REMARK    6  A    between atoms: C_13  and  C_14 
ROOT
HETATM    1  C   UNK N   1      35.226  14.860   9.644  0.00  0.00     0.118 A 
HETATM    2  C   UNK N   1      34.468  13.857   9.159  0.00  0.00     0.075 A 
HETATM    3  C   UNK N   1      33.241  14.500   8.628  0.00  0.00     0.264 A 
HETATM    4  O   UNK N   1      32.299  13.927   8.100  0.00  0.00    -0.267 OA
HETATM    5  N   UNK N   1      33.289  15.830   8.835  0.00  0.00    -0.274 N 
HETATM    6  C   UNK N   1      34.450  16.104   9.467  0.00  0.00     0.278 A 
HETATM    7  O   UNK N   1      34.753  17.205   9.891  0.00  0.00    -0.265 OA
ENDROOT
BRANCH   1   8
HETATM    8  N   UNK N   1      36.486  14.713  10.305  0.00  0.00    -0.351 N 
HETATM    9  H   UNK N   1      37.289  15.080   9.868  0.00  0.00     0.166 HD
BRANCH   8  10
HETATM   10  C   UNK N   1      36.638  14.065  11.559  0.00  0.00     0.032 A 
HETATM   11  C   UNK N   1      37.348  12.864  11.623  0.00  0.00     0.032 A 
HETATM   12  C   UNK N   1      37.357  12.115  12.804  0.00  0.00     0.039 A 
HETATM   13  C   UNK N   1      36.652  12.559  13.929  0.00  0.00     0.068 A 
HETATM   14  C   UNK N   1      35.999  13.801  13.886  0.00  0.00     0.039 A 
HETATM   15  C   UNK N   1      36.002  14.550  12.711  0.00  0.00     0.032 A 
BRANCH  13  16
HETATM   16  O   UNK N   1      36.593  11.767  15.025  0.00  0.00    -0.356 OA
HETATM   17  C   UNK N   1      35.879  12.102  16.154  0.00  0.00     0.210 C 
ENDBRANCH  13  16
ENDBRANCH   8  10
ENDBRANCH   1   8
BRANCH   2  18
HETATM   18  C   UNK N   1      34.760  12.400   9.206  0.00  0.00    -0.018 A 
HETATM   19  C   UNK N   1      35.661  11.813   8.305  0.00  0.00     0.012 A 
HETATM   20  C   UNK N   1      35.974  10.453   8.396  0.00  0.00     0.001 A 
HETATM   21  C   UNK N   1      35.394   9.669   9.396  0.00  0.00     0.000 A 
HETATM   22  C   UNK N   1      34.494  10.242  10.298  0.00  0.00     0.001 A 
HETATM   23  C   UNK N   1      34.179  11.601  10.204  0.00  0.00     0.012 A 
ENDBRANCH   2  18
BRANCH   5  24
HETATM   24  C   UNK N   1      32.222  16.762   8.470  0.00  0.00     0.174 C 
BRANCH  24  25
HETATM   25  C   UNK N   1      32.150  17.083   7.003  0.00  0.00    -0.040 A 
HETATM   26  C   UNK N   1      33.320  17.385   6.297  0.00  0.00     0.009 A 
HETATM   27  C   UNK N   1      33.264  17.644   4.922  0.00  0.00     0.001 A 
HETATM   28  C   UNK N   1      32.039  17.598   4.251  0.00  0.00     0.000 A 
HETATM   29  C   UNK N   1      30.866  17.305   4.953  0.00  0.00     0.001 A 
HETATM   30  C   UNK N   1      30.920  17.053   6.328  0.00  0.00     0.009 A 
ENDBRANCH  24  25
ENDBRANCH   5  24
TORSDOF 6
ENDMDL
MODEL 8
REMARK VINA RESULT:      -7.1      9.185     13.632
REMARK  6 active torsions:
REMARK  status: ('A' for Active; 'I' for Inactive)
REMARK    1  A    between atoms: O_2  and  C_3 
REMARK    2  A    between atoms: C_6  and  N_7 
REMARK    3  A    between atoms: N_7  and  C_8 
REMARK    4  A    between atoms: C_9  and  C_22 
REMARK    5  A    between atoms: N_12  and  C_13 
REMARK    6  A    between atoms: C_13  and  C_14 
ROOT
HETATM    1  C   UNK N   1      35.286  12.669  12.737  0.00  0.00     0.118 A 
HETATM    2  C   UNK N   1      36.539  12.229  12.510  0.00  0.00     0.075 A 
HETATM    3  C   UNK N   1      37.129  13.177  11.533  0.00  0.00     0.264 A 
HETATM    4  O   UNK N   1      38.258  13.125  11.071  0.00  0.00    -0.267 OA
HETATM    5  N   UNK N   1      36.221  14.113  11.191  0.00  0.00    -0.274 N 
HETATM    6  C   UNK N   1      35.083  13.844  11.865  0.00  0.00     0.278 A 
HETATM    7  O   UNK N   1      34.035  14.443  11.701  0.00  0.00    -0.265 OA
ENDROOT
BRANCH   1   8
HETATM    8  N   UNK N   1      34.316  12.037  13.577  0.00  0.00    -0.351 N 
HETATM    9  H   UNK N   1      33.455  11.770  13.179  0.00  0.00     0.166 HD
BRANCH   8  10
HETATM   10  C   UNK N   1      34.531  11.777  14.956  0.00  0.00     0.032 A 
HETATM   11  C   UNK N   1      34.859  12.835  15.806  0.00  0.00     0.032 A 
HETATM   12  C   UNK N   1      35.254  12.582  17.124  0.00  0.00     0.039 A 
HETATM   13  C   UNK N   1      35.326  11.268  17.601  0.00  0.00     0.068 A 
HETATM   14  C   UNK N   1      34.925  10.211  16.769  0.00  0.00     0.039 A 
HETATM   15  C   UNK N   1      34.523  10.468  15.460  0.00  0.00     0.032 A 
BRANCH  13  16
HETATM   16  O   UNK N   1      35.807  11.045  18.847  0.00  0.00    -0.356 OA
HETATM   17  C   UNK N   1      34.993  10.793  19.929  0.00  0.00     0.210 C 
ENDBRANCH  13  16
ENDBRANCH   8  10
ENDBRANCH   1   8
BRANCH   2  18
HETATM   18  C   UNK N   1      37.182  11.008  13.063  0.00  0.00    -0.018 A 
HETATM   19  C   UNK N   1      38.016  11.077  14.190  0.00  0.00     0.012 A 
HETATM   20  C   UNK N   1      38.568   9.915  14.738  0.00  0.00     0.001 A 
HETATM   21  C   UNK N   1      38.283   8.671  14.169  0.00  0.00     0.000 A 
HETATM   22  C   UNK N   1      37.456   8.591  13.046  0.00  0.00     0.001 A 
HETATM   23  C   UNK N   1      36.908   9.754  12.497  0.00  0.00     0.012 A 
ENDBRANCH   2  18
BRANCH   5  24
HETATM   24  C   UNK N   1      36.460  15.179  10.218  0.00  0.00     0.174 C 
BRANCH  24  25
HETATM   25  C   UNK N   1      35.700  15.028   8.930  0.00  0.00    -0.040 A 
HETATM   26  C   UNK N   1      34.757  15.993   8.559  0.00  0.00     0.009 A 
HETATM   27  C   UNK N   1      34.077  15.879   7.341  0.00  0.00     0.001 A 
HETATM   28  C   UNK N   1      34.340  14.802   6.490  0.00  0.00     0.000 A 
HETATM   29  C   UNK N   1      35.276  13.830   6.859  0.00  0.00     0.001 A 
HETATM   30  C   UNK N   1      35.951  13.940   8.079  0.00  0.00     0.009 A 
ENDBRANCH  24  25
ENDBRANCH   5  24
TORSDOF 6
ENDMDL
MODEL 9
REMARK VINA RESULT:      -7.0      3.042      8.441
REMARK  6 active torsions:
REMARK  status: ('A' for Active; 'I' for Inactive)
REMARK    1  A    between atoms: O_2  and  C_3 
REMARK    2  A    between atoms: C_6  and  N_7 
REMARK    3  A    between atoms: N_7  and  C_8 
REMARK    4  A    between atoms: C_9  and  C_22 
REMARK    5  A    between atoms: N_12  and  C_13 
REMARK    6  A    between atoms: C_13  and  C_14 
ROOT
HETATM    1  C   UNK N   1      29.942  17.248   7.197  0.00  0.00     0.118 A 
HETATM    2  C   UNK N   1      30.602  16.621   6.204  0.00  0.00     0.075 A 
HETATM    3  C   UNK N   1      32.043  16.738   6.540  0.00  0.00     0.264 A 
HETATM    4  O   UNK N   1      32.973  16.294   5.885  0.00  0.00    -0.267 OA
HETATM    5  N   UNK N   1      32.196  17.440   7.680  0.00  0.00    -0.274 N 
HETATM    6  C   UNK N   1      30.966  17.797   8.108  0.00  0.00     0.278 A 
HETATM    7  O   UNK N   1      30.762  18.531   9.059  0.00  0.00    -0.265 OA
ENDROOT
BRANCH   1   8
HETATM    8  N   UNK N   1      28.526  17.436   7.274  0.00  0.00    -0.351 N 
HETATM    9  H   UNK N   1      28.037  17.007   8.014  0.00  0.00     0.166 HD
BRANCH   8  10
HETATM   10  C   UNK N   1      27.790  18.208   6.336  0.00  0.00     0.032 A 
HETATM   11  C   UNK N   1      26.897  17.564   5.476  0.00  0.00     0.032 A 
HETATM   12  C   UNK N   1      26.300  18.270   4.427  0.00  0.00     0.039 A 
HETATM   13  C   UNK N   1      26.594  19.624   4.227  0.00  0.00     0.068 A 
HETATM   14  C   UNK N   1      27.434  20.288   5.135  0.00  0.00     0.039 A 
HETATM   15  C   UNK N   1      28.020  19.583   6.186  0.00  0.00     0.032 A 
BRANCH  13  16
HETATM   16  O   UNK N   1      26.081  20.257   3.146  0.00  0.00    -0.356 OA
HETATM   17  C   UNK N   1      24.728  20.414   2.942  0.00  0.00     0.210 C 
ENDBRANCH  13  16
ENDBRANCH   8  10
ENDBRANCH   1   8
BRANCH   2  18
HETATM   18  C   UNK N   1      30.021  16.001   4.983  0.00  0.00    -0.018 A 
HETATM   19  C   UNK N   1      29.398  14.744   5.038  0.00  0.00     0.012 A 
HETATM   20  C   UNK N   1      28.803  14.196   3.897  0.00  0.00     0.001 A 
HETATM   21  C   UNK N   1      28.817  14.905   2.693  0.00  0.00     0.000 A 
HETATM   22  C   UNK N   1      29.436  16.156   2.627  0.00  0.00     0.001 A 
HETATM   23  C   UNK N   1      30.035  16.701   3.767  0.00  0.00     0.012 A 
ENDBRANCH   2  18
BRANCH   5  24
HETATM   24  C   UNK N   1      33.489  17.776   8.276  0.00  0.00     0.174 C 
BRANCH  24  25
HETATM   25  C   UNK N   1      34.000  16.766   9.264  0.00  0.00    -0.040 A 
HETATM   26  C   UNK N   1      35.089  17.082  10.084  0.00  0.00     0.009 A 
HETATM   27  C   UNK N   1      35.544  16.161  11.035  0.00  0.00     0.001 A 
HETATM   28  C   UNK N   1      34.909  14.923  11.170  0.00  0.00     0.000 A 
HETATM   29  C   UNK N   1      33.825  14.599  10.348  0.00  0.00     0.001 A 
HETATM   30  C   UNK N   1      33.374  15.516   9.393  0.00  0.00     0.009 A 
ENDBRANCH  24  25
ENDBRANCH   5  24
TORSDOF 6
ENDMDL
