MODEL 1
REMARK VINA RESULT:      -8.6      0.000      0.000
REMARK  6 active torsions:
REMARK  status: ('A' for Active; 'I' for Inactive)
REMARK    1  A    between atoms: C_2  and  C_5 
REMARK    2  A    between atoms: C_7  and  N_8 
REMARK       I    between atoms: N_8  and  C_9 
REMARK       I    between atoms: C_9  and  N_11 
REMARK    3  A    between atoms: N_11  and  C_12 
REMARK    4  A    between atoms: C_17  and  C_18 
REMARK    5  A    between atoms: C_18  and  O_19 
REMARK    6  A    between atoms: O_19  and  C_20 
ROOT
HETATM    1  N   UNK N   1      34.935  16.302  11.201  0.00  0.00    -0.293 N 
HETATM    2  C   UNK N   1      34.621  16.321   9.875  0.00  0.00     0.326 C 
HETATM    3  O   UNK N   1      34.861  15.332   9.189  0.00  0.00    -0.247 OA
HETATM    4  N   UNK N   1      34.016  17.394   9.300  0.00  0.00    -0.309 N 
HETATM    5  H   UNK N   1      34.968  17.126  11.737  0.00  0.00     0.172 HD
HETATM    6  H   UNK N   1      34.000  18.267   9.753  0.00  0.00     0.170 HD
ENDROOT
BRANCH   4   7
HETATM    7  C   UNK N   1      33.403  17.224   8.021  0.00  0.00     0.037 A 
HETATM    8  C   UNK N   1      34.138  17.522   6.856  0.00  0.00     0.031 A 
HETATM    9  C   UNK N   1      33.545  17.485   5.604  0.00  0.00     0.026 A 
HETATM   10  C   UNK N   1      32.202  17.154   5.485  0.00  0.00     0.042 A 
HETATM   11 Cl   UNK N   1      31.486  17.182   3.881  0.00  0.00    -0.084 Cl
HETATM   12  C   UNK N   1      31.455  16.824   6.638  0.00  0.00    -0.010 A 
HETATM   13  C   UNK N   1      32.062  16.855   7.905  0.00  0.00     0.040 A 
BRANCH  12  14
HETATM   14  C   UNK N   1      30.003  16.510   6.548  0.00  0.00     0.216 C 
BRANCH  14  15
HETATM   15  O   UNK N   1      29.260  17.375   7.319  0.00  0.00    -0.345 OA
BRANCH  15  16
HETATM   16  C   UNK N   1      28.518  18.370   6.790  0.00  0.00     0.084 A 
HETATM   17  C   UNK N   1      28.472  18.524   5.404  0.00  0.00     0.039 A 
HETATM   18  C   UNK N   1      27.739  19.570   4.844  0.00  0.00     0.020 A 
HETATM   19  C   UNK N   1      27.049  20.448   5.684  0.00  0.00     0.088 A 
HETATM   20  N   UNK N   1      27.094  20.281   7.033  0.00  0.00    -0.373 N 
HETATM   21  C   UNK N   1      27.809  19.272   7.598  0.00  0.00     0.124 A 
ATOM     22  HN  UNK N   1      26.579  20.925   7.633  1.00  0.00     0.164 HD
ENDBRANCH  15  16
ENDBRANCH  14  15
ENDBRANCH  12  14
ENDBRANCH   4   7
BRANCH   1  23
HETATM   23  C   UNK N   1      35.213  15.029  11.770  0.00  0.00     0.125 A 
HETATM   24  C   UNK N   1      36.009  14.880  12.884  0.00  0.00     0.077 A 
HETATM   25  C   UNK N   1      35.694  13.637  13.354  0.00  0.00     0.037 A 
HETATM   26  N   UNK N   1      34.768  13.066  12.550  0.00  0.00    -0.302 N 
HETATM   27  N   UNK N   1      34.463  13.928  11.585  0.00  0.00    -0.285 N 
ATOM     28  HN  UNK N   1      34.371  12.134  12.665  1.00  0.00     0.186 HD
HETATM   29  H   UNK N   1      33.807  13.786  10.866  0.00  0.00     0.188 HD
BRANCH  25  30
HETATM   30  C   UNK N   1      36.214  13.090  14.656  0.00  0.00    -0.007 C 
HETATM   31  C   UNK N   1      36.961  14.170  15.415  0.00  0.00     0.021 C 
HETATM   32  C   UNK N   1      37.133  11.905  14.438  0.00  0.00     0.021 C 
HETATM   33  C   UNK N   1      35.038  12.628  15.506  0.00  0.00     0.021 C 
ENDBRANCH  25  30
ENDBRANCH   1  23
TORSDOF 6
ENDMDL
MODEL 2
REMARK VINA RESULT:      -7.6      2.705      4.393
REMARK  6 active torsions:
REMARK  status: ('A' for Active; 'I' for Inactive)
REMARK    1  A    between atoms: C_2  and  C_5 
REMARK    2  A    between atoms: C_7  and  N_8 
REMARK       I    between atoms: N_8  and  C_9 
REMARK       I    between atoms: C_9  and  N_11 
REMARK    3  A    between atoms: N_11  and  C_12 
REMARK    4  A    between atoms: C_17  and  C_18 
REMARK    5  A    between atoms: C_18  and  O_19 
REMARK    6  A    between atoms: O_19  and  C_20 
ROOT
HETATM    1  N   UNK N   1      35.092  16.435  11.099  0.00  0.00    -0.293 N 
HETATM    2  C   UNK N   1      34.530  16.481   9.859  0.00  0.00     0.326 C 
HETATM    3  O   UNK N   1      34.459  15.451   9.196  0.00  0.00    -0.247 OA
HETATM    4  N   UNK N   1      34.009  17.630   9.352  0.00  0.00    -0.309 N 
HETATM    5  H   UNK N   1      35.368  17.252  11.573  0.00  0.00     0.172 HD
HETATM    6  H   UNK N   1      34.230  18.502   9.752  0.00  0.00     0.170 HD
ENDROOT
BRANCH   4   7
HETATM    7  C   UNK N   1      33.135  17.543   8.226  0.00  0.00     0.037 A 
HETATM    8  C   UNK N   1      31.744  17.471   8.434  0.00  0.00     0.031 A 
HETATM    9  C   UNK N   1      30.870  17.265   7.379  0.00  0.00     0.026 A 
HETATM   10  C   UNK N   1      31.365  17.120   6.089  0.00  0.00     0.042 A 
HETATM   11 Cl   UNK N   1      30.218  16.800   4.798  0.00  0.00    -0.084 Cl
HETATM   12  C   UNK N   1      32.755  17.218   5.856  0.00  0.00    -0.010 A 
HETATM   13  C   UNK N   1      33.637  17.434   6.929  0.00  0.00     0.040 A 
BRANCH  12  14
HETATM   14  C   UNK N   1      33.320  17.021   4.493  0.00  0.00     0.216 C 
BRANCH  14  15
HETATM   15  O   UNK N   1      33.931  15.793   4.382  0.00  0.00    -0.345 OA
BRANCH  15  16
HETATM   16  C   UNK N   1      33.502  14.840   3.528  0.00  0.00     0.084 A 
HETATM   17  C   UNK N   1      32.342  14.125   3.828  0.00  0.00     0.039 A 
HETATM   18  C   UNK N   1      31.908  13.113   2.973  0.00  0.00     0.020 A 
HETATM   19  C   UNK N   1      32.640  12.834   1.817  0.00  0.00     0.088 A 
HETATM   20  N   UNK N   1      33.763  13.545   1.530  0.00  0.00    -0.373 N 
HETATM   21  C   UNK N   1      34.207  14.530   2.354  0.00  0.00     0.124 A 
ATOM     22  HN  UNK N   1      34.283  13.335   0.677  1.00  0.00     0.164 HD
ENDBRANCH  15  16
ENDBRANCH  14  15
ENDBRANCH  12  14
ENDBRANCH   4   7
BRANCH   1  23
HETATM   23  C   UNK N   1      35.261  15.146  11.674  0.00  0.00     0.125 A 
HETATM   24  C   UNK N   1      36.097  14.923  12.745  0.00  0.00     0.077 A 
HETATM   25  C   UNK N   1      35.675  13.726  13.252  0.00  0.00     0.037 A 
HETATM   26  N   UNK N   1      34.649  13.252  12.510  0.00  0.00    -0.302 N 
HETATM   27  N   UNK N   1      34.386  14.131  11.548  0.00  0.00    -0.285 N 
ATOM     28  HN  UNK N   1      34.159  12.371  12.662  1.00  0.00     0.186 HD
HETATM   29  H   UNK N   1      33.679  14.055  10.868  0.00  0.00     0.188 HD
BRANCH  25  30
HETATM   30  C   UNK N   1      36.204  13.139  14.533  0.00  0.00    -0.007 C 
HETATM   31  C   UNK N   1      36.954  14.197  15.321  0.00  0.00     0.021 C 
HETATM   32  C   UNK N   1      37.124  11.964  14.272  0.00  0.00     0.021 C 
HETATM   33  C   UNK N   1      35.035  12.649  15.376  0.00  0.00     0.021 C 
ENDBRANCH  25  30
ENDBRANCH   1  23
TORSDOF 6
ENDMDL
MODEL 3
REMARK VINA RESULT:      -7.6      1.749      2.179
REMARK  6 active torsions:
REMARK  status: ('A' for Active; 'I' for Inactive)
REMARK    1  A    between atoms: C_2  and  C_5 
REMARK    2  A    between atoms: C_7  and  N_8 
REMARK       I    between atoms: N_8  and  C_9 
REMARK       I    between atoms: C_9  and  N_11 
REMARK    3  A    between atoms: N_11  and  C_12 
REMARK    4  A    between atoms: C_17  and  C_18 
REMARK    5  A    between atoms: C_18  and  O_19 
REMARK    6  A    between atoms: O_19  and  C_20 
ROOT
HETATM    1  N   UNK N   1      35.002  16.295  11.239  0.00  0.00    -0.293 N 
HETATM    2  C   UNK N   1      34.659  16.338   9.922  0.00  0.00     0.326 C 
HETATM    3  O   UNK N   1      34.838  15.345   9.224  0.00  0.00    -0.247 OA
HETATM    4  N   UNK N   1      34.086  17.440   9.368  0.00  0.00    -0.309 N 
HETATM    5  H   UNK N   1      35.084  17.114  11.779  0.00  0.00     0.172 HD
HETATM    6  H   UNK N   1      34.118  18.309   9.827  0.00  0.00     0.170 HD
ENDROOT
BRANCH   4   7
HETATM    7  C   UNK N   1      33.436  17.305   8.103  0.00  0.00     0.037 A 
HETATM    8  C   UNK N   1      34.191  17.430   6.920  0.00  0.00     0.031 A 
HETATM    9  C   UNK N   1      33.582  17.425   5.675  0.00  0.00     0.026 A 
HETATM   10  C   UNK N   1      32.202  17.301   5.582  0.00  0.00     0.042 A 
HETATM   11 Cl   UNK N   1      31.477  17.362   3.983  0.00  0.00    -0.084 Cl
HETATM   12  C   UNK N   1      31.430  17.146   6.755  0.00  0.00    -0.010 A 
HETATM   13  C   UNK N   1      32.053  17.143   8.014  0.00  0.00     0.040 A 
BRANCH  12  14
HETATM   14  C   UNK N   1      29.946  17.057   6.690  0.00  0.00     0.216 C 
BRANCH  14  15
HETATM   15  O   UNK N   1      29.543  15.816   6.250  0.00  0.00    -0.345 OA
BRANCH  15  16
HETATM   16  C   UNK N   1      28.696  15.651   5.212  0.00  0.00     0.084 A 
HETATM   17  C   UNK N   1      28.910  14.603   4.316  0.00  0.00     0.039 A 
HETATM   18  C   UNK N   1      28.064  14.443   3.219  0.00  0.00     0.020 A 
HETATM   19  C   UNK N   1      27.003  15.333   3.037  0.00  0.00     0.088 A 
HETATM   20  N   UNK N   1      26.799  16.344   3.923  0.00  0.00    -0.373 N 
HETATM   21  C   UNK N   1      27.617  16.522   4.994  0.00  0.00     0.124 A 
ATOM     22  HN  UNK N   1      26.015  16.982   3.782  1.00  0.00     0.164 HD
ENDBRANCH  15  16
ENDBRANCH  14  15
ENDBRANCH  12  14
ENDBRANCH   4   7
BRANCH   1  23
HETATM   23  C   UNK N   1      35.239  15.007  11.793  0.00  0.00     0.125 A 
HETATM   24  C   UNK N   1      36.052  14.817  12.889  0.00  0.00     0.077 A 
HETATM   25  C   UNK N   1      35.696  13.585  13.357  0.00  0.00     0.037 A 
HETATM   26  N   UNK N   1      34.729  13.059  12.570  0.00  0.00    -0.302 N 
HETATM   27  N   UNK N   1      34.439  13.940  11.618  0.00  0.00    -0.285 N 
ATOM     28  HN  UNK N   1      34.295  12.144  12.688  1.00  0.00     0.186 HD
HETATM   29  H   UNK N   1      33.761  13.831  10.913  0.00  0.00     0.188 HD
BRANCH  25  30
HETATM   30  C   UNK N   1      36.220  13.006  14.643  0.00  0.00    -0.007 C 
HETATM   31  C   UNK N   1      36.913  14.083  15.456  0.00  0.00     0.021 C 
HETATM   32  C   UNK N   1      37.190  11.869  14.391  0.00  0.00     0.021 C 
HETATM   33  C   UNK N   1      35.054  12.464  15.457  0.00  0.00     0.021 C 
ENDBRANCH  25  30
ENDBRANCH   1  23
TORSDOF 6
ENDMDL
MODEL 4
REMARK VINA RESULT:      -7.4      2.116      2.697
REMARK  6 active torsions:
REMARK  status: ('A' for Active; 'I' for Inactive)
REMARK    1  A    between atoms: C_2  and  C_5 
REMARK    2  A    between atoms: C_7  and  N_8 
REMARK       I    between atoms: N_8  and  C_9 
REMARK       I    between atoms: C_9  and  N_11 
REMARK    3  A    between atoms: N_11  and  C_12 
REMARK    4  A    between atoms: C_17  and  C_18 
REMARK    5  A    between atoms: C_18  and  O_19 
REMARK    6  A    between atoms: O_19  and  C_20 
ROOT
HETATM    1  N   UNK N   1      34.490  12.910  10.451  0.00  0.00    -0.293 N 
HETATM    2  C   UNK N   1      33.942  13.710   9.494  0.00  0.00     0.326 C 
HETATM    3  O   UNK N   1      33.715  14.887   9.757  0.00  0.00    -0.247 OA
HETATM    4  N   UNK N   1      33.675  13.249   8.244  0.00  0.00    -0.309 N 
HETATM    5  H   UNK N   1      34.488  11.929  10.369  0.00  0.00     0.172 HD
HETATM    6  H   UNK N   1      33.644  12.283   8.059  0.00  0.00     0.170 HD
ENDROOT
BRANCH   4   7
HETATM    7  C   UNK N   1      33.440  14.200   7.204  0.00  0.00     0.037 A 
HETATM    8  C   UNK N   1      34.534  14.861   6.611  0.00  0.00     0.031 A 
HETATM    9  C   UNK N   1      34.345  15.874   5.685  0.00  0.00     0.026 A 
HETATM   10  C   UNK N   1      33.057  16.256   5.332  0.00  0.00     0.042 A 
HETATM   11 Cl   UNK N   1      32.874  17.587   4.201  0.00  0.00    -0.084 Cl
HETATM   12  C   UNK N   1      31.947  15.586   5.895  0.00  0.00    -0.010 A 
HETATM   13  C   UNK N   1      32.144  14.554   6.827  0.00  0.00     0.040 A 
BRANCH  12  14
HETATM   14  C   UNK N   1      30.555  16.004   5.572  0.00  0.00     0.216 C 
BRANCH  14  15
HETATM   15  O   UNK N   1      30.300  17.275   6.034  0.00  0.00    -0.345 OA
BRANCH  15  16
HETATM   16  C   UNK N   1      29.936  17.527   7.309  0.00  0.00     0.084 A 
HETATM   17  C   UNK N   1      28.581  17.549   7.640  0.00  0.00     0.039 A 
HETATM   18  C   UNK N   1      28.188  17.845   8.945  0.00  0.00     0.020 A 
HETATM   19  C   UNK N   1      29.164  18.108   9.910  0.00  0.00     0.088 A 
HETATM   20  N   UNK N   1      30.482  18.073   9.577  0.00  0.00    -0.373 N 
HETATM   21  C   UNK N   1      30.884  17.795   8.309  0.00  0.00     0.124 A 
ATOM     22  HN  UNK N   1      31.183  18.260  10.294  1.00  0.00     0.164 HD
ENDBRANCH  15  16
ENDBRANCH  14  15
ENDBRANCH  12  14
ENDBRANCH   4   7
BRANCH   1  23
HETATM   23  C   UNK N   1      35.064  13.565  11.575  0.00  0.00     0.125 A 
HETATM   24  C   UNK N   1      34.979  13.047  12.849  0.00  0.00     0.077 A 
HETATM   25  C   UNK N   1      35.967  13.693  13.536  0.00  0.00     0.037 A 
HETATM   26  N   UNK N   1      36.599  14.564  12.717  0.00  0.00    -0.302 N 
HETATM   27  N   UNK N   1      36.053  14.474  11.509  0.00  0.00    -0.285 N 
ATOM     28  HN  UNK N   1      37.365  15.184  12.980  1.00  0.00     0.186 HD
HETATM   29  H   UNK N   1      36.323  14.981  10.710  0.00  0.00     0.188 HD
BRANCH  25  30
HETATM   30  C   UNK N   1      36.354  13.346  14.948  0.00  0.00    -0.007 C 
HETATM   31  C   UNK N   1      37.268  12.135  14.956  0.00  0.00     0.021 C 
HETATM   32  C   UNK N   1      35.139  13.060  15.808  0.00  0.00     0.021 C 
HETATM   33  C   UNK N   1      37.105  14.520  15.561  0.00  0.00     0.021 C 
ENDBRANCH  25  30
ENDBRANCH   1  23
TORSDOF 6
ENDMDL
MODEL 5
REMARK VINA RESULT:      -7.3      4.970     11.995
REMARK  6 active torsions:
REMARK  status: ('A' for Active; 'I' for Inactive)
REMARK    1  A    between atoms: C_2  and  C_5 
REMARK    2  A    between atoms: C_7  and  N_8 
REMARK       I    between atoms: N_8  and  C_9 
REMARK       I    between atoms: C_9  and  N_11 
REMARK    3  A    between atoms: N_11  and  C_12 
REMARK    4  A    between atoms: C_17  and  C_18 
REMARK    5  A    between atoms: C_18  and  O_19 
REMARK    6  A    between atoms: O_19  and  C_20 
ROOT
HETATM    1  N   UNK N   1      36.225  15.529  12.032  0.00  0.00    -0.293 N 
HETATM    2  C   UNK N   1      36.015  14.552  12.958  0.00  0.00     0.326 C 
HETATM    3  O   UNK N   1      35.020  13.842  12.862  0.00  0.00    -0.247 OA
HETATM    4  N   UNK N   1      36.899  14.319  13.964  0.00  0.00    -0.309 N 
HETATM    5  H   UNK N   1      36.874  16.254  12.183  0.00  0.00     0.172 HD
HETATM    6  H   UNK N   1      37.584  14.986  14.198  0.00  0.00     0.170 HD
ENDROOT
BRANCH   4   7
HETATM    7  C   UNK N   1      36.810  13.083  14.675  0.00  0.00     0.037 A 
HETATM    8  C   UNK N   1      37.418  11.931  14.138  0.00  0.00     0.031 A 
HETATM    9  C   UNK N   1      37.255  10.690  14.733  0.00  0.00     0.026 A 
HETATM   10  C   UNK N   1      36.475  10.569  15.876  0.00  0.00     0.042 A 
HETATM   11 Cl   UNK N   1      36.252   8.963  16.553  0.00  0.00    -0.084 Cl
HETATM   12  C   UNK N   1      35.880  11.717  16.445  0.00  0.00    -0.010 A 
HETATM   13  C   UNK N   1      36.055  12.974  15.843  0.00  0.00     0.040 A 
BRANCH  12  14
HETATM   14  C   UNK N   1      35.002  11.612  17.642  0.00  0.00     0.216 C 
BRANCH  14  15
HETATM   15  O   UNK N   1      35.699  11.896  18.794  0.00  0.00    -0.345 OA
BRANCH  15  16
HETATM   16  C   UNK N   1      35.775  11.036  19.832  0.00  0.00     0.084 A 
HETATM   17  C   UNK N   1      36.916  10.248  19.983  0.00  0.00     0.039 A 
HETATM   18  C   UNK N   1      36.993   9.329  21.029  0.00  0.00     0.020 A 
HETATM   19  C   UNK N   1      35.923   9.215  21.920  0.00  0.00     0.088 A 
HETATM   20  N   UNK N   1      34.820   9.996  21.768  0.00  0.00    -0.373 N 
HETATM   21  C   UNK N   1      34.723  10.893  20.751  0.00  0.00     0.124 A 
ATOM     22  HN  UNK N   1      34.050   9.908  22.431  1.00  0.00     0.164 HD
ENDBRANCH  15  16
ENDBRANCH  14  15
ENDBRANCH  12  14
ENDBRANCH   4   7
BRANCH   1  23
HETATM   23  C   UNK N   1      35.459  15.449  10.837  0.00  0.00     0.125 A 
HETATM   24  C   UNK N   1      34.792  16.537  10.318  0.00  0.00     0.077 A 
HETATM   25  C   UNK N   1      34.555  16.191   9.017  0.00  0.00     0.037 A 
HETATM   26  N   UNK N   1      35.043  14.952   8.778  0.00  0.00    -0.302 N 
HETATM   27  N   UNK N   1      35.610  14.503   9.893  0.00  0.00    -0.285 N 
ATOM     28  HN  UNK N   1      34.986  14.448   7.894  1.00  0.00     0.186 HD
HETATM   29  H   UNK N   1      36.060  13.635  10.008  0.00  0.00     0.188 HD
BRANCH  25  30
HETATM   30  C   UNK N   1      33.972  17.138   8.004  0.00  0.00    -0.007 C 
HETATM   31  C   UNK N   1      32.481  17.297   8.237  0.00  0.00     0.021 C 
HETATM   32  C   UNK N   1      34.208  16.657   6.587  0.00  0.00     0.021 C 
HETATM   33  C   UNK N   1      34.632  18.501   8.159  0.00  0.00     0.021 C 
ENDBRANCH  25  30
ENDBRANCH   1  23
TORSDOF 6
ENDMDL
MODEL 6
REMARK VINA RESULT:      -7.2      3.388     10.011
REMARK  6 active torsions:
REMARK  status: ('A' for Active; 'I' for Inactive)
REMARK    1  A    between atoms: C_2  and  C_5 
REMARK    2  A    between atoms: C_7  and  N_8 
REMARK       I    between atoms: N_8  and  C_9 
REMARK       I    between atoms: C_9  and  N_11 
REMARK    3  A    between atoms: N_11  and  C_12 
REMARK    4  A    between atoms: C_17  and  C_18 
REMARK    5  A    between atoms: C_18  and  O_19 
REMARK    6  A    between atoms: O_19  and  C_20 
ROOT
HETATM    1  N   UNK N   1      34.198  17.438   9.600  0.00  0.00    -0.293 N 
HETATM    2  C   UNK N   1      34.689  16.232  10.001  0.00  0.00     0.326 C 
HETATM    3  O   UNK N   1      34.048  15.214   9.758  0.00  0.00    -0.247 OA
HETATM    4  N   UNK N   1      35.889  16.123  10.631  0.00  0.00    -0.309 N 
HETATM    5  H   UNK N   1      34.552  18.285   9.955  0.00  0.00     0.172 HD
HETATM    6  H   UNK N   1      36.325  16.912  11.025  0.00  0.00     0.170 HD
ENDROOT
BRANCH   4   7
HETATM    7  C   UNK N   1      36.503  14.835  10.706  0.00  0.00     0.037 A 
HETATM    8  C   UNK N   1      37.197  14.333   9.588  0.00  0.00     0.031 A 
HETATM    9  C   UNK N   1      37.704  13.043   9.577  0.00  0.00     0.026 A 
HETATM   10  C   UNK N   1      37.524  12.221  10.682  0.00  0.00     0.042 A 
HETATM   11 Cl   UNK N   1      38.133  10.575  10.590  0.00  0.00    -0.084 Cl
HETATM   12  C   UNK N   1      36.855  12.715  11.824  0.00  0.00    -0.010 A 
HETATM   13  C   UNK N   1      36.350  14.026  11.833  0.00  0.00     0.040 A 
BRANCH  12  14
HETATM   14  C   UNK N   1      36.607  11.844  13.004  0.00  0.00     0.216 C 
BRANCH  14  15
HETATM   15  O   UNK N   1      37.161  12.382  14.143  0.00  0.00    -0.345 OA
BRANCH  15  16
HETATM   16  C   UNK N   1      36.541  12.349  15.341  0.00  0.00     0.084 A 
HETATM   17  C   UNK N   1      36.432  11.135  16.020  0.00  0.00     0.039 A 
HETATM   18  C   UNK N   1      35.762  11.079  17.242  0.00  0.00     0.020 A 
HETATM   19  C   UNK N   1      35.214  12.247  17.776  0.00  0.00     0.088 A 
HETATM   20  N   UNK N   1      35.336  13.426  17.109  0.00  0.00    -0.373 N 
HETATM   21  C   UNK N   1      35.979  13.501  15.914  0.00  0.00     0.124 A 
ATOM     22  HN  UNK N   1      34.938  14.273  17.515  1.00  0.00     0.164 HD
ENDBRANCH  15  16
ENDBRANCH  14  15
ENDBRANCH  12  14
ENDBRANCH   4   7
BRANCH   1  23
HETATM   23  C   UNK N   1      33.146  17.410   8.644  0.00  0.00     0.125 A 
HETATM   24  C   UNK N   1      33.377  17.565   7.294  0.00  0.00     0.077 A 
HETATM   25  C   UNK N   1      32.249  17.067   6.705  0.00  0.00     0.037 A 
HETATM   26  N   UNK N   1      31.382  16.651   7.658  0.00  0.00    -0.302 N 
HETATM   27  N   UNK N   1      31.941  16.849   8.847  0.00  0.00    -0.285 N 
ATOM     28  HN  UNK N   1      30.459  16.252   7.491  1.00  0.00     0.186 HD
HETATM   29  H   UNK N   1      31.544  16.626   9.720  0.00  0.00     0.188 HD
BRANCH  25  30
HETATM   30  C   UNK N   1      32.102  16.891   5.218  0.00  0.00    -0.007 C 
HETATM   31  C   UNK N   1      33.182  17.670   4.492  0.00  0.00     0.021 C 
HETATM   32  C   UNK N   1      30.742  17.349   4.732  0.00  0.00     0.021 C 
HETATM   33  C   UNK N   1      32.258  15.416   4.874  0.00  0.00     0.021 C 
ENDBRANCH  25  30
ENDBRANCH   1  23
TORSDOF 6
ENDMDL
MODEL 7
REMARK VINA RESULT:      -7.2      6.768     10.467
REMARK  6 active torsions:
REMARK  status: ('A' for Active; 'I' for Inactive)
REMARK    1  A    between atoms: C_2  and  C_5 
REMARK    2  A    between atoms: C_7  and  N_8 
REMARK       I    between atoms: N_8  and  C_9 
REMARK       I    between atoms: C_9  and  N_11 
REMARK    3  A    between atoms: N_11  and  C_12 
REMARK    4  A    between atoms: C_17  and  C_18 
REMARK    5  A    between atoms: C_18  and  O_19 
REMARK    6  A    between atoms: O_19  and  C_20 
ROOT
HETATM    1  N   UNK N   1      26.055  19.004   5.404  0.00  0.00    -0.293 N 
HETATM    2  C   UNK N   1      25.213  18.009   5.010  0.00  0.00     0.326 C 
HETATM    3  O   UNK N   1      25.631  17.133   4.260  0.00  0.00    -0.247 OA
HETATM    4  N   UNK N   1      23.930  17.940   5.456  0.00  0.00    -0.309 N 
HETATM    5  H   UNK N   1      25.721  19.833   5.816  0.00  0.00     0.172 HD
HETATM    6  H   UNK N   1      23.501  18.718   5.879  0.00  0.00     0.170 HD
ENDROOT
BRANCH   4   7
HETATM    7  C   UNK N   1      23.220  16.711   5.298  0.00  0.00     0.037 A 
HETATM    8  C   UNK N   1      22.350  16.551   4.201  0.00  0.00     0.031 A 
HETATM    9  C   UNK N   1      21.554  15.424   4.075  0.00  0.00     0.026 A 
HETATM   10  C   UNK N   1      21.604  14.430   5.044  0.00  0.00     0.042 A 
HETATM   11 Cl   UNK N   1      20.528  13.052   4.866  0.00  0.00    -0.084 Cl
HETATM   12  C   UNK N   1      22.491  14.559   6.137  0.00  0.00    -0.010 A 
HETATM   13  C   UNK N   1      23.302  15.700   6.256  0.00  0.00     0.040 A 
BRANCH  12  14
HETATM   14  C   UNK N   1      22.534  13.534   7.214  0.00  0.00     0.216 C 
BRANCH  14  15
HETATM   15  O   UNK N   1      23.466  13.861   8.172  0.00  0.00    -0.345 OA
BRANCH  15  16
HETATM   16  C   UNK N   1      23.561  13.207   9.350  0.00  0.00     0.084 A 
HETATM   17  C   UNK N   1      22.396  12.806  10.004  0.00  0.00     0.039 A 
HETATM   18  C   UNK N   1      22.478  12.163  11.238  0.00  0.00     0.020 A 
HETATM   19  C   UNK N   1      23.733  11.920  11.801  0.00  0.00     0.088 A 
HETATM   20  N   UNK N   1      24.862  12.307  11.149  0.00  0.00    -0.373 N 
HETATM   21  C   UNK N   1      24.803  12.942   9.949  0.00  0.00     0.124 A 
ATOM     22  HN  UNK N   1      25.772  12.116  11.569  1.00  0.00     0.164 HD
ENDBRANCH  15  16
ENDBRANCH  14  15
ENDBRANCH  12  14
ENDBRANCH   4   7
BRANCH   1  23
HETATM   23  C   UNK N   1      27.444  18.784   5.188  0.00  0.00     0.125 A 
HETATM   24  C   UNK N   1      28.243  18.165   6.123  0.00  0.00     0.077 A 
HETATM   25  C   UNK N   1      29.340  17.768   5.412  0.00  0.00     0.037 A 
HETATM   26  N   UNK N   1      29.208  18.148   4.120  0.00  0.00    -0.302 N 
HETATM   27  N   UNK N   1      28.036  18.760   3.981  0.00  0.00    -0.285 N 
ATOM     28  HN  UNK N   1      29.890  17.990   3.379  1.00  0.00     0.186 HD
HETATM   29  H   UNK N   1      27.669  19.128   3.146  0.00  0.00     0.188 HD
BRANCH  25  30
HETATM   30  C   UNK N   1      30.433  16.911   5.989  0.00  0.00    -0.007 C 
HETATM   31  C   UNK N   1      30.109  15.443   5.785  0.00  0.00     0.021 C 
HETATM   32  C   UNK N   1      30.632  17.178   7.468  0.00  0.00     0.021 C 
HETATM   33  C   UNK N   1      31.740  17.221   5.271  0.00  0.00     0.021 C 
ENDBRANCH  25  30
ENDBRANCH   1  23
TORSDOF 6
ENDMDL
MODEL 8
REMARK VINA RESULT:      -7.1      3.534      9.918
REMARK  6 active torsions:
REMARK  status: ('A' for Active; 'I' for Inactive)
REMARK    1  A    between atoms: C_2  and  C_5 
REMARK    2  A    between atoms: C_7  and  N_8 
REMARK       I    between atoms: N_8  and  C_9 
REMARK       I    between atoms: C_9  and  N_11 
REMARK    3  A    between atoms: N_11  and  C_12 
REMARK    4  A    between atoms: C_17  and  C_18 
REMARK    5  A    between atoms: C_18  and  O_19 
REMARK    6  A    between atoms: O_19  and  C_20 
ROOT
HETATM    1  N   UNK N   1      33.041  17.892   8.323  0.00  0.00    -0.293 N 
HETATM    2  C   UNK N   1      33.598  16.912   9.087  0.00  0.00     0.326 C 
HETATM    3  O   UNK N   1      33.160  15.769   9.006  0.00  0.00    -0.247 OA
HETATM    4  N   UNK N   1      34.652  17.159   9.910  0.00  0.00    -0.309 N 
HETATM    5  H   UNK N   1      33.202  18.846   8.506  0.00  0.00     0.172 HD
HETATM    6  H   UNK N   1      34.892  18.080  10.159  0.00  0.00     0.170 HD
ENDROOT
BRANCH   4   7
HETATM    7  C   UNK N   1      35.404  16.049  10.403  0.00  0.00     0.037 A 
HETATM    8  C   UNK N   1      36.023  15.172   9.491  0.00  0.00     0.031 A 
HETATM    9  C   UNK N   1      36.660  14.019   9.923  0.00  0.00     0.026 A 
HETATM   10  C   UNK N   1      36.689  13.712  11.277  0.00  0.00     0.042 A 
HETATM   11 Cl   UNK N   1      37.456  12.208  11.762  0.00  0.00    -0.084 Cl
HETATM   12  C   UNK N   1      36.098  14.593  12.210  0.00  0.00    -0.010 A 
HETATM   13  C   UNK N   1      35.461  15.764  11.768  0.00  0.00     0.040 A 
BRANCH  12  14
HETATM   14  C   UNK N   1      36.074  14.268  13.662  0.00  0.00     0.216 C 
BRANCH  14  15
HETATM   15  O   UNK N   1      34.938  13.565  13.993  0.00  0.00    -0.345 OA
BRANCH  15  16
HETATM   16  C   UNK N   1      34.930  12.591  14.928  0.00  0.00     0.084 A 
HETATM   17  C   UNK N   1      35.292  12.901  16.239  0.00  0.00     0.039 A 
HETATM   18  C   UNK N   1      35.324  11.898  17.207  0.00  0.00     0.020 A 
HETATM   19  C   UNK N   1      34.982  10.592  16.850  0.00  0.00     0.088 A 
HETATM   20  N   UNK N   1      34.620  10.305  15.571  0.00  0.00    -0.373 N 
HETATM   21  C   UNK N   1      34.590  11.266  14.611  0.00  0.00     0.124 A 
ATOM     22  HN  UNK N   1      34.365   9.347  15.327  1.00  0.00     0.164 HD
ENDBRANCH  15  16
ENDBRANCH  14  15
ENDBRANCH  12  14
ENDBRANCH   4   7
BRANCH   1  23
HETATM   23  C   UNK N   1      32.214  17.467   7.246  0.00  0.00     0.125 A 
HETATM   24  C   UNK N   1      32.698  17.313   5.966  0.00  0.00     0.077 A 
HETATM   25  C   UNK N   1      31.770  16.520   5.354  0.00  0.00     0.037 A 
HETATM   26  N   UNK N   1      30.774  16.229   6.222  0.00  0.00    -0.302 N 
HETATM   27  N   UNK N   1      31.055  16.800   7.389  0.00  0.00    -0.285 N 
ATOM     28  HN  UNK N   1      29.949  15.666   6.017  1.00  0.00     0.186 HD
HETATM   29  H   UNK N   1      30.514  16.744   8.208  0.00  0.00     0.188 HD
BRANCH  25  30
HETATM   30  C   UNK N   1      31.947  15.958   3.969  0.00  0.00    -0.007 C 
HETATM   31  C   UNK N   1      32.691  14.637   4.033  0.00  0.00     0.021 C 
HETATM   32  C   UNK N   1      32.703  16.914   3.069  0.00  0.00     0.021 C 
HETATM   33  C   UNK N   1      30.577  15.709   3.354  0.00  0.00     0.021 C 
ENDBRANCH  25  30
ENDBRANCH   1  23
TORSDOF 6
ENDMDL
MODEL 9
REMARK VINA RESULT:      -7.1      3.086      9.991
REMARK  6 active torsions:
REMARK  status: ('A' for Active; 'I' for Inactive)
REMARK    1  A    between atoms: C_2  and  C_5 
REMARK    2  A    between atoms: C_7  and  N_8 
REMARK       I    between atoms: N_8  and  C_9 
REMARK       I    between atoms: C_9  and  N_11 
REMARK    3  A    between atoms: N_11  and  C_12 
REMARK    4  A    between atoms: C_17  and  C_18 
REMARK    5  A    between atoms: C_18  and  O_19 
REMARK    6  A    between atoms: O_19  and  C_20 
ROOT
HETATM    1  N   UNK N   1      32.778  17.596   8.626  0.00  0.00    -0.293 N 
HETATM    2  C   UNK N   1      33.431  16.685   9.400  0.00  0.00     0.326 C 
HETATM    3  O   UNK N   1      32.946  15.567   9.547  0.00  0.00    -0.247 OA
HETATM    4  N   UNK N   1      34.626  16.968   9.983  0.00  0.00    -0.309 N 
HETATM    5  H   UNK N   1      33.002  18.554   8.653  0.00  0.00     0.172 HD
HETATM    6  H   UNK N   1      34.939  17.898  10.064  0.00  0.00     0.170 HD
ENDROOT
BRANCH   4   7
HETATM    7  C   UNK N   1      35.417  15.885  10.475  0.00  0.00     0.037 A 
HETATM    8  C   UNK N   1      35.963  14.958   9.565  0.00  0.00     0.031 A 
HETATM    9  C   UNK N   1      36.634  13.829  10.007  0.00  0.00     0.026 A 
HETATM   10  C   UNK N   1      36.771  13.595  11.369  0.00  0.00     0.042 A 
HETATM   11 Cl   UNK N   1      37.577  12.118  11.873  0.00  0.00    -0.084 Cl
HETATM   12  C   UNK N   1      36.255  14.528  12.297  0.00  0.00    -0.010 A 
HETATM   13  C   UNK N   1      35.582  15.675  11.844  0.00  0.00     0.040 A 
BRANCH  12  14
HETATM   14  C   UNK N   1      36.346  14.281  13.762  0.00  0.00     0.216 C 
BRANCH  14  15
HETATM   15  O   UNK N   1      35.179  13.735  14.246  0.00  0.00    -0.345 OA
BRANCH  15  16
HETATM   16  C   UNK N   1      35.119  12.495  14.775  0.00  0.00     0.084 A 
HETATM   17  C   UNK N   1      34.240  11.561  14.227  0.00  0.00     0.039 A 
HETATM   18  C   UNK N   1      34.141  10.287  14.786  0.00  0.00     0.020 A 
HETATM   19  C   UNK N   1      34.935   9.960  15.888  0.00  0.00     0.088 A 
HETATM   20  N   UNK N   1      35.795  10.877  16.406  0.00  0.00    -0.373 N 
HETATM   21  C   UNK N   1      35.901  12.126  15.881  0.00  0.00     0.124 A 
ATOM     22  HN  UNK N   1      36.375  10.621  17.207  1.00  0.00     0.164 HD
ENDBRANCH  15  16
ENDBRANCH  14  15
ENDBRANCH  12  14
ENDBRANCH   4   7
BRANCH   1  23
HETATM   23  C   UNK N   1      31.754  17.092   7.778  0.00  0.00     0.125 A 
HETATM   24  C   UNK N   1      30.460  17.563   7.829  0.00  0.00     0.077 A 
HETATM   25  C   UNK N   1      29.917  17.172   6.638  0.00  0.00     0.037 A 
HETATM   26  N   UNK N   1      30.837  16.487   5.920  0.00  0.00    -0.302 N 
HETATM   27  N   UNK N   1      31.969  16.451   6.615  0.00  0.00    -0.285 N 
ATOM     28  HN  UNK N   1      30.688  16.071   5.001  1.00  0.00     0.186 HD
HETATM   29  H   UNK N   1      32.812  16.032   6.331  0.00  0.00     0.188 HD
BRANCH  25  30
HETATM   30  C   UNK N   1      28.548  17.592   6.177  0.00  0.00    -0.007 C 
HETATM   31  C   UNK N   1      27.548  16.480   6.432  0.00  0.00     0.021 C 
HETATM   32  C   UNK N   1      28.537  17.945   4.703  0.00  0.00     0.021 C 
HETATM   33  C   UNK N   1      28.113  18.821   6.963  0.00  0.00     0.021 C 
ENDBRANCH  25  30
ENDBRANCH   1  23
TORSDOF 6
ENDMDL
