MODEL 1
REMARK VINA RESULT:      -5.9      0.000      0.000
REMARK  1 active torsions:
REMARK  status: ('A' for Active; 'I' for Inactive)
REMARK    1  A    between atoms: C_3  and  C_7 
ROOT
HETATM    1  C   UNK N   1      35.335  14.839  11.775  0.00  0.00     0.135 A 
HETATM    2  N   UNK N   1      36.213  15.144  12.767  0.00  0.00    -0.339 N 
ATOM      3  HN  UNK N   1      36.821  15.959  12.843  1.00  0.00     0.167 HD
HETATM    4  C   UNK N   1      36.090  14.120  13.623  0.00  0.00     0.060 A 
HETATM    5  C   UNK N   1      36.742  13.938  14.839  0.00  0.00     0.032 A 
HETATM    6  C   UNK N   1      36.409  12.791  15.587  0.00  0.00     0.002 A 
HETATM    7  C   UNK N   1      35.445  11.873  15.101  0.00  0.00     0.002 A 
HETATM    8  C   UNK N   1      34.811  12.093  13.862  0.00  0.00     0.032 A 
HETATM    9  C   UNK N   1      35.169  13.235  13.156  0.00  0.00     0.060 A 
HETATM   10  N   UNK N   1      34.681  13.668  11.984  0.00  0.00    -0.339 N 
HETATM   11  H   UNK N   1      34.008  13.238  11.409  0.00  0.00     0.167 HD
ENDROOT
BRANCH   1  12
HETATM   12  C   UNK N   1      35.049  15.730  10.649  0.00  0.00     0.093 A 
HETATM   13  C   UNK N   1      34.769  15.340   9.358  0.00  0.00     0.053 A 
HETATM   14  C   UNK N   1      34.645  16.530   8.662  0.00  0.00     0.109 A 
HETATM   15  N   UNK N   1      34.847  17.555   9.515  0.00  0.00    -0.311 N 
HETATM   16  N   UNK N   1      35.096  17.070  10.720  0.00  0.00    -0.297 N 
HETATM   17  H   UNK N   1      34.814  18.510   9.279  0.00  0.00     0.186 HD
ATOM     18  HN  UNK N   1      35.288  17.618  11.557  1.00  0.00     0.187 HD
ENDBRANCH   1  12
TORSDOF 1
ENDMDL
MODEL 2
REMARK VINA RESULT:      -5.8      1.519      5.778
REMARK  1 active torsions:
REMARK  status: ('A' for Active; 'I' for Inactive)
REMARK    1  A    between atoms: C_3  and  C_7 
ROOT
HETATM    1  C   UNK N   1      34.740  15.452  10.964  0.00  0.00     0.135 A 
HETATM    2  N   UNK N   1      35.289  16.526  10.338  0.00  0.00    -0.339 N 
ATOM      3  HN  UNK N   1      36.176  16.987  10.539  1.00  0.00     0.167 HD
HETATM    4  C   UNK N   1      34.390  16.836   9.394  0.00  0.00     0.060 A 
HETATM    5  C   UNK N   1      34.465  17.844   8.439  0.00  0.00     0.032 A 
HETATM    6  C   UNK N   1      33.404  17.944   7.518  0.00  0.00     0.002 A 
HETATM    7  C   UNK N   1      32.313  17.043   7.580  0.00  0.00     0.002 A 
HETATM    8  C   UNK N   1      32.273  16.038   8.567  0.00  0.00     0.032 A 
HETATM    9  C   UNK N   1      33.340  15.974   9.456  0.00  0.00     0.060 A 
HETATM   10  N   UNK N   1      33.537  15.092  10.447  0.00  0.00    -0.339 N 
HETATM   11  H   UNK N   1      32.949  14.357  10.733  0.00  0.00     0.167 HD
ENDROOT
BRANCH   1  12
HETATM   12  C   UNK N   1      35.419  14.699  12.020  0.00  0.00     0.093 A 
HETATM   13  C   UNK N   1      35.108  13.422  12.433  0.00  0.00     0.053 A 
HETATM   14  C   UNK N   1      35.974  13.185  13.486  0.00  0.00     0.109 A 
HETATM   15  N   UNK N   1      36.746  14.276  13.669  0.00  0.00    -0.311 N 
HETATM   16  N   UNK N   1      36.406  15.196  12.782  0.00  0.00    -0.297 N 
HETATM   17  H   UNK N   1      37.447  14.372  14.353  0.00  0.00     0.186 HD
ATOM     18  HN  UNK N   1      36.823  16.122  12.691  1.00  0.00     0.187 HD
ENDBRANCH   1  12
TORSDOF 1
ENDMDL
MODEL 3
REMARK VINA RESULT:      -5.6      1.437      2.697
REMARK  1 active torsions:
REMARK  status: ('A' for Active; 'I' for Inactive)
REMARK    1  A    between atoms: C_3  and  C_7 
ROOT
HETATM    1  C   UNK N   1      35.251  13.559  13.223  0.00  0.00     0.135 A 
HETATM    2  N   UNK N   1      34.571  12.396  13.041  0.00  0.00    -0.339 N 
ATOM      3  HN  UNK N   1      34.105  12.064  12.197  1.00  0.00     0.167 HD
HETATM    4  C   UNK N   1      34.656  11.789  14.233  0.00  0.00     0.060 A 
HETATM    5  C   UNK N   1      34.157  10.543  14.596  0.00  0.00     0.032 A 
HETATM    6  C   UNK N   1      34.416  10.099  15.908  0.00  0.00     0.002 A 
HETATM    7  C   UNK N   1      35.158  10.906  16.805  0.00  0.00     0.002 A 
HETATM    8  C   UNK N   1      35.643  12.165  16.398  0.00  0.00     0.032 A 
HETATM    9  C   UNK N   1      35.365  12.565  15.096  0.00  0.00     0.060 A 
HETATM   10  N   UNK N   1      35.746  13.693  14.480  0.00  0.00    -0.339 N 
HETATM   11  H   UNK N   1      36.264  14.444  14.850  0.00  0.00     0.167 HD
ENDROOT
BRANCH   1  12
HETATM   12  C   UNK N   1      35.508  14.520  12.149  0.00  0.00     0.093 A 
HETATM   13  C   UNK N   1      34.580  15.000  11.252  0.00  0.00     0.053 A 
HETATM   14  C   UNK N   1      35.314  15.812  10.405  0.00  0.00     0.109 A 
HETATM   15  N   UNK N   1      36.604  15.798  10.800  0.00  0.00    -0.311 N 
HETATM   16  N   UNK N   1      36.723  15.011  11.855  0.00  0.00    -0.297 N 
HETATM   17  H   UNK N   1      37.338  16.293  10.370  0.00  0.00     0.186 HD
ATOM     18  HN  UNK N   1      37.586  14.812  12.359  1.00  0.00     0.187 HD
ENDBRANCH   1  12
TORSDOF 1
ENDMDL
MODEL 4
REMARK VINA RESULT:      -5.5      3.262      7.767
REMARK  1 active torsions:
REMARK  status: ('A' for Active; 'I' for Inactive)
REMARK    1  A    between atoms: C_3  and  C_7 
ROOT
HETATM    1  C   UNK N   1      33.465  16.559   8.040  0.00  0.00     0.135 A 
HETATM    2  N   UNK N   1      32.121  16.450   7.870  0.00  0.00    -0.339 N 
ATOM      3  HN  UNK N   1      31.422  16.150   8.550  1.00  0.00     0.167 HD
HETATM    4  C   UNK N   1      31.931  16.828   6.599  0.00  0.00     0.060 A 
HETATM    5  C   UNK N   1      30.728  16.933   5.908  0.00  0.00     0.032 A 
HETATM    6  C   UNK N   1      30.783  17.400   4.580  0.00  0.00     0.002 A 
HETATM    7  C   UNK N   1      32.025  17.742   3.991  0.00  0.00     0.002 A 
HETATM    8  C   UNK N   1      33.222  17.616   4.724  0.00  0.00     0.032 A 
HETATM    9  C   UNK N   1      33.123  17.152   6.030  0.00  0.00     0.060 A 
HETATM   10  N   UNK N   1      34.110  16.984   6.924  0.00  0.00    -0.339 N 
HETATM   11  H   UNK N   1      35.074  17.133   6.800  0.00  0.00     0.167 HD
ENDROOT
BRANCH   1  12
HETATM   12  C   UNK N   1      34.137  16.339   9.322  0.00  0.00     0.093 A 
HETATM   13  C   UNK N   1      34.180  15.153  10.021  0.00  0.00     0.053 A 
HETATM   14  C   UNK N   1      34.860  15.468  11.184  0.00  0.00     0.109 A 
HETATM   15  N   UNK N   1      35.192  16.775  11.154  0.00  0.00    -0.311 N 
HETATM   16  N   UNK N   1      34.750  17.305  10.026  0.00  0.00    -0.297 N 
HETATM   17  H   UNK N   1      35.682  17.257  11.858  0.00  0.00     0.186 HD
ATOM     18  HN  UNK N   1      34.856  18.277   9.739  1.00  0.00     0.187 HD
ENDBRANCH   1  12
TORSDOF 1
ENDMDL
MODEL 5
REMARK VINA RESULT:      -5.5      2.757      4.432
REMARK  1 active torsions:
REMARK  status: ('A' for Active; 'I' for Inactive)
REMARK    1  A    between atoms: C_3  and  C_7 
ROOT
HETATM    1  C   UNK N   1      35.588  12.989  15.346  0.00  0.00     0.135 A 
HETATM    2  N   UNK N   1      35.582  11.671  15.678  0.00  0.00    -0.339 N 
ATOM      3  HN  UNK N   1      35.673  10.865  15.060  1.00  0.00     0.167 HD
HETATM    4  C   UNK N   1      35.426  11.681  17.009  0.00  0.00     0.060 A 
HETATM    5  C   UNK N   1      35.384  10.592  17.874  0.00  0.00     0.032 A 
HETATM    6  C   UNK N   1      35.256  10.863  19.250  0.00  0.00     0.002 A 
HETATM    7  C   UNK N   1      35.174  12.200  19.714  0.00  0.00     0.002 A 
HETATM    8  C   UNK N   1      35.216  13.274  18.804  0.00  0.00     0.032 A 
HETATM    9  C   UNK N   1      35.343  12.963  17.455  0.00  0.00     0.060 A 
HETATM   10  N   UNK N   1      35.437  13.809  16.418  0.00  0.00    -0.339 N 
HETATM   11  H   UNK N   1      35.405  14.792  16.430  0.00  0.00     0.167 HD
ENDROOT
BRANCH   1  12
HETATM   12  C   UNK N   1      35.832  13.478  13.988  0.00  0.00     0.093 A 
HETATM   13  C   UNK N   1      35.221  13.022  12.840  0.00  0.00     0.053 A 
HETATM   14  C   UNK N   1      35.830  13.736  11.824  0.00  0.00     0.109 A 
HETATM   15  N   UNK N   1      36.749  14.563  12.364  0.00  0.00    -0.311 N 
HETATM   16  N   UNK N   1      36.753  14.404  13.676  0.00  0.00    -0.297 N 
HETATM   17  H   UNK N   1      37.325  15.184  11.861  0.00  0.00     0.186 HD
ATOM     18  HN  UNK N   1      37.351  14.899  14.337  1.00  0.00     0.187 HD
ENDBRANCH   1  12
TORSDOF 1
ENDMDL
MODEL 6
REMARK VINA RESULT:      -5.5     14.269     15.993
REMARK  1 active torsions:
REMARK  status: ('A' for Active; 'I' for Inactive)
REMARK    1  A    between atoms: C_3  and  C_7 
ROOT
HETATM    1  C   UNK N   1      41.887  23.037   1.897  0.00  0.00     0.135 A 
HETATM    2  N   UNK N   1      41.532  24.326   1.650  0.00  0.00    -0.339 N 
ATOM      3  HN  UNK N   1      41.849  25.170   2.128  1.00  0.00     0.167 HD
HETATM    4  C   UNK N   1      40.667  24.226   0.632  0.00  0.00     0.060 A 
HETATM    5  C   UNK N   1      40.016  25.255  -0.041  0.00  0.00     0.032 A 
HETATM    6  C   UNK N   1      39.180  24.897  -1.118  0.00  0.00     0.002 A 
HETATM    7  C   UNK N   1      39.025  23.538  -1.484  0.00  0.00     0.002 A 
HETATM    8  C   UNK N   1      39.699  22.526  -0.772  0.00  0.00     0.032 A 
HETATM    9  C   UNK N   1      40.513  22.921   0.283  0.00  0.00     0.060 A 
HETATM   10  N   UNK N   1      41.272  22.150   1.074  0.00  0.00    -0.339 N 
HETATM   11  H   UNK N   1      41.363  21.170   1.063  0.00  0.00     0.167 HD
ENDROOT
BRANCH   1  12
HETATM   12  C   UNK N   1      42.903  22.654   2.879  0.00  0.00     0.093 A 
HETATM   13  C   UNK N   1      43.459  21.402   3.023  0.00  0.00     0.053 A 
HETATM   14  C   UNK N   1      44.301  21.527   4.114  0.00  0.00     0.109 A 
HETATM   15  N   UNK N   1      44.230  22.793   4.575  0.00  0.00    -0.311 N 
HETATM   16  N   UNK N   1      43.379  23.475   3.828  0.00  0.00    -0.297 N 
HETATM   17  H   UNK N   1      44.730  23.150   5.344  0.00  0.00     0.186 HD
ATOM     18  HN  UNK N   1      43.129  24.456   3.950  1.00  0.00     0.187 HD
ENDBRANCH   1  12
TORSDOF 1
ENDMDL
MODEL 7
REMARK VINA RESULT:      -5.3     12.994     15.808
REMARK  1 active torsions:
REMARK  status: ('A' for Active; 'I' for Inactive)
REMARK    1  A    between atoms: C_3  and  C_7 
ROOT
HETATM    1  C   UNK N   1      23.126  19.618   3.403  0.00  0.00     0.135 A 
HETATM    2  N   UNK N   1      23.624  18.654   4.221  0.00  0.00    -0.339 N 
ATOM      3  HN  UNK N   1      23.122  17.892   4.677  1.00  0.00     0.167 HD
HETATM    4  C   UNK N   1      24.931  18.942   4.289  0.00  0.00     0.060 A 
HETATM    5  C   UNK N   1      25.925  18.249   4.973  0.00  0.00     0.032 A 
HETATM    6  C   UNK N   1      27.246  18.727   4.855  0.00  0.00     0.002 A 
HETATM    7  C   UNK N   1      27.527  19.869   4.065  0.00  0.00     0.002 A 
HETATM    8  C   UNK N   1      26.490  20.544   3.392  0.00  0.00     0.032 A 
HETATM    9  C   UNK N   1      25.202  20.040   3.535  0.00  0.00     0.060 A 
HETATM   10  N   UNK N   1      24.072  20.489   2.969  0.00  0.00    -0.339 N 
HETATM   11  H   UNK N   1      23.955  21.267   2.378  0.00  0.00     0.167 HD
ENDROOT
BRANCH   1  12
HETATM   12  C   UNK N   1      21.733  19.655   2.955  0.00  0.00     0.093 A 
HETATM   13  C   UNK N   1      20.670  19.018   3.558  0.00  0.00     0.053 A 
HETATM   14  C   UNK N   1      19.595  19.295   2.732  0.00  0.00     0.109 A 
HETATM   15  N   UNK N   1      20.021  20.055   1.703  0.00  0.00    -0.311 N 
HETATM   16  N   UNK N   1      21.319  20.270   1.835  0.00  0.00    -0.297 N 
HETATM   17  H   UNK N   1      19.458  20.393   0.970  0.00  0.00     0.186 HD
ATOM     18  HN  UNK N   1      21.904  20.810   1.199  1.00  0.00     0.187 HD
ENDBRANCH   1  12
TORSDOF 1
ENDMDL
MODEL 8
REMARK VINA RESULT:      -5.2      4.501      7.938
REMARK  1 active torsions:
REMARK  status: ('A' for Active; 'I' for Inactive)
REMARK    1  A    between atoms: C_3  and  C_7 
ROOT
HETATM    1  C   UNK N   1      31.464  16.245   8.669  0.00  0.00     0.135 A 
HETATM    2  N   UNK N   1      30.759  17.154   9.392  0.00  0.00    -0.339 N 
ATOM      3  HN  UNK N   1      30.861  17.392  10.378  1.00  0.00     0.167 HD
HETATM    4  C   UNK N   1      29.896  17.664   8.502  0.00  0.00     0.060 A 
HETATM    5  C   UNK N   1      28.952  18.666   8.702  0.00  0.00     0.032 A 
HETATM    6  C   UNK N   1      28.185  19.065   7.590  0.00  0.00     0.002 A 
HETATM    7  C   UNK N   1      28.384  18.456   6.326  0.00  0.00     0.002 A 
HETATM    8  C   UNK N   1      29.348  17.441   6.167  0.00  0.00     0.032 A 
HETATM    9  C   UNK N   1      30.083  17.078   7.289  0.00  0.00     0.060 A 
HETATM   10  N   UNK N   1      31.068  16.171   7.373  0.00  0.00    -0.339 N 
HETATM   11  H   UNK N   1      31.421  15.589   6.663  0.00  0.00     0.167 HD
ENDROOT
BRANCH   1  12
HETATM   12  C   UNK N   1      32.601  15.495   9.207  0.00  0.00     0.093 A 
HETATM   13  C   UNK N   1      33.727  15.119   8.508  0.00  0.00     0.053 A 
HETATM   14  C   UNK N   1      34.463  14.382   9.419  0.00  0.00     0.109 A 
HETATM   15  N   UNK N   1      33.789  14.336  10.587  0.00  0.00    -0.311 N 
HETATM   16  N   UNK N   1      32.658  15.008  10.457  0.00  0.00    -0.297 N 
HETATM   17  H   UNK N   1      34.090  13.876  11.403  0.00  0.00     0.186 HD
ATOM     18  HN  UNK N   1      31.951  15.136  11.180  1.00  0.00     0.187 HD
ENDBRANCH   1  12
TORSDOF 1
ENDMDL
MODEL 9
REMARK VINA RESULT:      -5.2      8.909     12.591
REMARK  1 active torsions:
REMARK  status: ('A' for Active; 'I' for Inactive)
REMARK    1  A    between atoms: C_3  and  C_7 
ROOT
HETATM    1  C   UNK N   1      27.479  18.877   6.262  0.00  0.00     0.135 A 
HETATM    2  N   UNK N   1      26.249  18.366   5.988  0.00  0.00    -0.339 N 
ATOM      3  HN  UNK N   1      25.724  17.669   6.516  1.00  0.00     0.167 HD
HETATM    4  C   UNK N   1      25.890  18.993   4.860  0.00  0.00     0.060 A 
HETATM    5  C   UNK N   1      24.698  18.868   4.153  0.00  0.00     0.032 A 
HETATM    6  C   UNK N   1      24.536  19.675   3.009  0.00  0.00     0.002 A 
HETATM    7  C   UNK N   1      25.559  20.570   2.612  0.00  0.00     0.002 A 
HETATM    8  C   UNK N   1      26.754  20.663   3.354  0.00  0.00     0.032 A 
HETATM    9  C   UNK N   1      26.873  19.850   4.475  0.00  0.00     0.060 A 
HETATM   10  N   UNK N   1      27.892  19.789   5.345  0.00  0.00    -0.339 N 
HETATM   11  H   UNK N   1      28.740  20.288   5.325  0.00  0.00     0.167 HD
ENDROOT
BRANCH   1  12
HETATM   12  C   UNK N   1      28.236  18.553   7.472  0.00  0.00     0.093 A 
HETATM   13  C   UNK N   1      29.436  17.879   7.521  0.00  0.00     0.053 A 
HETATM   14  C   UNK N   1      29.705  17.761   8.874  0.00  0.00     0.109 A 
HETATM   15  N   UNK N   1      28.704  18.340   9.568  0.00  0.00    -0.311 N 
HETATM   16  N   UNK N   1      27.811  18.817   8.718  0.00  0.00    -0.297 N 
HETATM   17  H   UNK N   1      28.647  18.397  10.549  0.00  0.00     0.186 HD
ATOM     18  HN  UNK N   1      26.949  19.303   8.965  1.00  0.00     0.187 HD
ENDBRANCH   1  12
TORSDOF 1
ENDMDL
