MODEL 1
REMARK VINA RESULT:      -7.5      0.000      0.000
REMARK  3 active torsions:
REMARK  status: ('A' for Active; 'I' for Inactive)
REMARK       I    between atoms: C_2  and  N_3 
REMARK    1  A    between atoms: C_2  and  C_20 
REMARK    2  A    between atoms: N_3  and  C_4 
REMARK    3  A    between atoms: C_9  and  C_10 
ROOT
HETATM    1  C   UNK N   1      20.551  15.464   6.217  0.00  0.00     0.084 A 
HETATM    2  C   UNK N   1      20.519  15.622   4.852  0.00  0.00     0.139 A 
HETATM    3  N   UNK N   1      21.471  14.819   4.324  0.00  0.00    -0.309 N 
HETATM    4  N   UNK N   1      22.082  14.159   5.298  0.00  0.00    -0.295 N 
ATOM      5  HN  UNK N   1      22.843  13.489   5.177  1.00  0.00     0.187 HD
HETATM    6  C   UNK N   1      21.532  14.518   6.472  0.00  0.00     0.120 A 
HETATM    7  H   UNK N   1      21.678  14.738   3.365  0.00  0.00     0.186 HD
ENDROOT
BRANCH   6   8
HETATM    8  C   UNK N   1      21.934  13.925   7.764  0.00  0.00     0.137 A 
HETATM    9  N   UNK N   1      21.047  13.525   8.713  0.00  0.00    -0.339 N 
HETATM   10  C   UNK N   1      21.824  13.015   9.682  0.00  0.00     0.060 A 
ATOM     11  HN  UNK N   1      20.031  13.596   8.693  1.00  0.00     0.167 HD
HETATM   12  C   UNK N   1      21.432  12.429  10.881  0.00  0.00     0.032 A 
HETATM   13  C   UNK N   1      23.131  13.125   9.328  0.00  0.00     0.060 A 
HETATM   14  C   UNK N   1      22.449  11.945  11.729  0.00  0.00     0.002 A 
HETATM   15  C   UNK N   1      23.811  12.062  11.358  0.00  0.00     0.002 A 
HETATM   16  C   UNK N   1      24.165  12.663  10.135  0.00  0.00     0.032 A 
HETATM   17  N   UNK N   1      23.225  13.704   8.127  0.00  0.00    -0.339 N 
HETATM   18  H   UNK N   1      24.041  13.920   7.622  0.00  0.00     0.167 HD
ENDBRANCH   6   8
BRANCH   1  19
HETATM   19  N   UNK N   1      19.712  16.149   7.140  0.00  0.00    -0.320 N 
HETATM   20  C   UNK N   1      20.052  17.322   7.739  0.00  0.00     0.256 C 
HETATM   21  O   UNK N   1      21.030  17.952   7.355  0.00  0.00    -0.267 OA
HETATM   22  H   UNK N   1      18.837  15.751   7.359  0.00  0.00     0.169 HD
BRANCH  20  23
HETATM   23  C   UNK N   1      19.263  17.833   8.876  0.00  0.00     0.032 A 
HETATM   24  C   UNK N   1      18.011  17.268   9.168  0.00  0.00     0.017 A 
HETATM   25  C   UNK N   1      17.229  17.782  10.204  0.00  0.00     0.001 A 
HETATM   26  C   UNK N   1      17.697  18.857  10.964  0.00  0.00     0.000 A 
HETATM   27  C   UNK N   1      18.945  19.422  10.684  0.00  0.00     0.001 A 
HETATM   28  C   UNK N   1      19.721  18.919   9.635  0.00  0.00     0.017 A 
ENDBRANCH  20  23
ENDBRANCH   1  19
TORSDOF 3
ENDMDL
MODEL 2
REMARK VINA RESULT:      -7.2     24.686     26.175
REMARK  3 active torsions:
REMARK  status: ('A' for Active; 'I' for Inactive)
REMARK       I    between atoms: C_2  and  N_3 
REMARK    1  A    between atoms: C_2  and  C_20 
REMARK    2  A    between atoms: N_3  and  C_4 
REMARK    3  A    between atoms: C_9  and  C_10 
ROOT
HETATM    1  C   UNK N   1      43.430  23.227   2.887  0.00  0.00     0.084 A 
HETATM    2  C   UNK N   1      43.479  22.357   3.950  0.00  0.00     0.139 A 
HETATM    3  N   UNK N   1      44.778  22.203   4.294  0.00  0.00    -0.309 N 
HETATM    4  N   UNK N   1      45.536  22.950   3.502  0.00  0.00    -0.295 N 
ATOM      5  HN  UNK N   1      46.554  23.017   3.543  1.00  0.00     0.187 HD
HETATM    6  C   UNK N   1      44.740  23.604   2.637  0.00  0.00     0.120 A 
HETATM    7  H   UNK N   1      45.109  21.626   5.020  0.00  0.00     0.186 HD
ENDROOT
BRANCH   6   8
HETATM    8  C   UNK N   1      45.253  24.576   1.649  0.00  0.00     0.137 A 
HETATM    9  N   UNK N   1      46.454  24.447   1.026  0.00  0.00    -0.339 N 
HETATM   10  C   UNK N   1      46.498  25.501   0.196  0.00  0.00     0.060 A 
ATOM     11  HN  UNK N   1      47.156  23.721   1.158  1.00  0.00     0.167 HD
HETATM   12  C   UNK N   1      47.496  25.843  -0.710  0.00  0.00     0.032 A 
HETATM   13  C   UNK N   1      45.367  26.242   0.334  0.00  0.00     0.060 A 
HETATM   14  C   UNK N   1      47.294  26.999  -1.492  0.00  0.00     0.002 A 
HETATM   15  C   UNK N   1      46.115  27.769  -1.346  0.00  0.00     0.002 A 
HETATM   16  C   UNK N   1      45.129  27.388  -0.415  0.00  0.00     0.032 A 
HETATM   17  N   UNK N   1      44.572  25.682   1.251  0.00  0.00    -0.339 N 
HETATM   18  H   UNK N   1      43.695  25.999   1.566  0.00  0.00     0.167 HD
ENDBRANCH   6   8
BRANCH   1  19
HETATM   19  N   UNK N   1      42.242  23.639   2.220  0.00  0.00    -0.320 N 
HETATM   20  C   UNK N   1      41.861  23.166   1.002  0.00  0.00     0.256 C 
HETATM   21  O   UNK N   1      42.433  22.205   0.504  0.00  0.00    -0.267 OA
HETATM   22  H   UNK N   1      41.664  24.302   2.664  0.00  0.00     0.169 HD
BRANCH  20  23
HETATM   23  C   UNK N   1      40.773  23.827   0.256  0.00  0.00     0.032 A 
HETATM   24  C   UNK N   1      39.960  23.076  -0.607  0.00  0.00     0.017 A 
HETATM   25  C   UNK N   1      38.966  23.701  -1.363  0.00  0.00     0.001 A 
HETATM   26  C   UNK N   1      38.770  25.080  -1.253  0.00  0.00     0.000 A 
HETATM   27  C   UNK N   1      39.571  25.834  -0.392  0.00  0.00     0.001 A 
HETATM   28  C   UNK N   1      40.578  25.213   0.353  0.00  0.00     0.017 A 
ENDBRANCH  20  23
ENDBRANCH   1  19
TORSDOF 3
ENDMDL
MODEL 3
REMARK VINA RESULT:      -7.1     14.369     16.444
REMARK  3 active torsions:
REMARK  status: ('A' for Active; 'I' for Inactive)
REMARK       I    between atoms: C_2  and  N_3 
REMARK    1  A    between atoms: C_2  and  C_20 
REMARK    2  A    between atoms: N_3  and  C_4 
REMARK    3  A    between atoms: C_9  and  C_10 
ROOT
HETATM    1  C   UNK N   1      36.132  13.584  13.821  0.00  0.00     0.084 A 
HETATM    2  C   UNK N   1      36.440  14.910  13.630  0.00  0.00     0.139 A 
HETATM    3  N   UNK N   1      36.275  15.185  12.316  0.00  0.00    -0.309 N 
HETATM    4  N   UNK N   1      35.863  14.093  11.686  0.00  0.00    -0.295 N 
ATOM      5  HN  UNK N   1      35.665  14.022  10.687  1.00  0.00     0.187 HD
HETATM    6  C   UNK N   1      35.749  13.096  12.581  0.00  0.00     0.120 A 
HETATM    7  H   UNK N   1      36.435  16.060  11.894  0.00  0.00     0.186 HD
ENDROOT
BRANCH   6   8
HETATM    8  C   UNK N   1      35.252  11.750  12.228  0.00  0.00     0.137 A 
HETATM    9  N   UNK N   1      34.123  11.536  11.504  0.00  0.00    -0.339 N 
HETATM   10  C   UNK N   1      34.071  10.200  11.380  0.00  0.00     0.060 A 
ATOM     11  HN  UNK N   1      33.468  12.227  11.139  1.00  0.00     0.167 HD
HETATM   12  C   UNK N   1      33.132   9.433  10.698  0.00  0.00     0.032 A 
HETATM   13  C   UNK N   1      35.126   9.638  12.026  0.00  0.00     0.060 A 
HETATM   14  C   UNK N   1      33.312   8.035  10.698  0.00  0.00     0.002 A 
HETATM   15  C   UNK N   1      34.413   7.452  11.373  0.00  0.00     0.002 A 
HETATM   16  C   UNK N   1      35.340   8.265  12.053  0.00  0.00     0.032 A 
HETATM   17  N   UNK N   1      35.879  10.596  12.576  0.00  0.00    -0.339 N 
HETATM   18  H   UNK N   1      36.699  10.489  13.110  0.00  0.00     0.167 HD
ENDBRANCH   6   8
BRANCH   1  19
HETATM   19  N   UNK N   1      36.195  12.900  15.067  0.00  0.00    -0.320 N 
HETATM   20  C   UNK N   1      35.127  12.751  15.898  0.00  0.00     0.256 C 
HETATM   21  O   UNK N   1      34.000  13.036  15.514  0.00  0.00    -0.267 OA
HETATM   22  H   UNK N   1      37.058  12.513  15.344  0.00  0.00     0.169 HD
BRANCH  20  23
HETATM   23  C   UNK N   1      35.322  12.272  17.279  0.00  0.00     0.032 A 
HETATM   24  C   UNK N   1      35.633  10.924  17.515  0.00  0.00     0.017 A 
HETATM   25  C   UNK N   1      35.760  10.447  18.821  0.00  0.00     0.001 A 
HETATM   26  C   UNK N   1      35.591  11.317  19.901  0.00  0.00     0.000 A 
HETATM   27  C   UNK N   1      35.288  12.662  19.675  0.00  0.00     0.001 A 
HETATM   28  C   UNK N   1      35.142  13.137  18.369  0.00  0.00     0.017 A 
ENDBRANCH  20  23
ENDBRANCH   1  19
TORSDOF 3
ENDMDL
MODEL 4
REMARK VINA RESULT:      -7.1     12.494     15.130
REMARK  3 active torsions:
REMARK  status: ('A' for Active; 'I' for Inactive)
REMARK       I    between atoms: C_2  and  N_3 
REMARK    1  A    between atoms: C_2  and  C_20 
REMARK    2  A    between atoms: N_3  and  C_4 
REMARK    3  A    between atoms: C_9  and  C_10 
ROOT
HETATM    1  C   UNK N   1      37.209  14.327   9.983  0.00  0.00     0.084 A 
HETATM    2  C   UNK N   1      38.228  14.153   9.078  0.00  0.00     0.139 A 
HETATM    3  N   UNK N   1      39.095  13.258   9.603  0.00  0.00    -0.309 N 
HETATM    4  N   UNK N   1      38.652  12.858  10.787  0.00  0.00    -0.295 N 
ATOM      5  HN  UNK N   1      39.117  12.188  11.401  1.00  0.00     0.187 HD
HETATM    6  C   UNK N   1      37.489  13.482  11.045  0.00  0.00     0.120 A 
HETATM    7  H   UNK N   1      39.926  12.952   9.174  0.00  0.00     0.186 HD
ENDROOT
BRANCH   6   8
HETATM    8  C   UNK N   1      36.686  13.220  12.258  0.00  0.00     0.137 A 
HETATM    9  N   UNK N   1      35.658  12.334  12.299  0.00  0.00    -0.339 N 
HETATM   10  C   UNK N   1      35.249  12.377  13.577  0.00  0.00     0.060 A 
ATOM     11  HN  UNK N   1      35.284  11.768  11.537  1.00  0.00     0.167 HD
HETATM   12  C   UNK N   1      34.238  11.639  14.183  0.00  0.00     0.032 A 
HETATM   13  C   UNK N   1      35.999  13.274  14.269  0.00  0.00     0.060 A 
HETATM   14  C   UNK N   1      34.014  11.853  15.558  0.00  0.00     0.002 A 
HETATM   15  C   UNK N   1      34.797  12.789  16.277  0.00  0.00     0.002 A 
HETATM   16  C   UNK N   1      35.810  13.517  15.624  0.00  0.00     0.032 A 
HETATM   17  N   UNK N   1      36.905  13.824  13.456  0.00  0.00    -0.339 N 
HETATM   18  H   UNK N   1      37.577  14.510  13.675  0.00  0.00     0.167 HD
ENDBRANCH   6   8
BRANCH   1  19
HETATM   19  N   UNK N   1      36.100  15.203   9.809  0.00  0.00    -0.320 N 
HETATM   20  C   UNK N   1      34.865  14.784   9.422  0.00  0.00     0.256 C 
HETATM   21  O   UNK N   1      34.597  13.590   9.393  0.00  0.00    -0.267 OA
HETATM   22  H   UNK N   1      36.234  16.164   9.978  0.00  0.00     0.169 HD
BRANCH  20  23
HETATM   23  C   UNK N   1      33.845  15.765   9.005  0.00  0.00     0.032 A 
HETATM   24  C   UNK N   1      34.234  17.056   8.615  0.00  0.00     0.017 A 
HETATM   25  C   UNK N   1      33.273  18.011   8.276  0.00  0.00     0.001 A 
HETATM   26  C   UNK N   1      31.917  17.679   8.312  0.00  0.00     0.000 A 
HETATM   27  C   UNK N   1      31.521  16.394   8.694  0.00  0.00     0.001 A 
HETATM   28  C   UNK N   1      32.481  15.442   9.050  0.00  0.00     0.017 A 
ENDBRANCH  20  23
ENDBRANCH   1  19
TORSDOF 3
ENDMDL
MODEL 5
REMARK VINA RESULT:      -7.0     13.478     15.364
REMARK  3 active torsions:
REMARK  status: ('A' for Active; 'I' for Inactive)
REMARK       I    between atoms: C_2  and  N_3 
REMARK    1  A    between atoms: C_2  and  C_20 
REMARK    2  A    between atoms: N_3  and  C_4 
REMARK    3  A    between atoms: C_9  and  C_10 
ROOT
HETATM    1  C   UNK N   1      35.306  13.678  12.361  0.00  0.00     0.084 A 
HETATM    2  C   UNK N   1      35.929  13.648  13.585  0.00  0.00     0.139 A 
HETATM    3  N   UNK N   1      36.621  14.801  13.722  0.00  0.00    -0.309 N 
HETATM    4  N   UNK N   1      36.443  15.553  12.645  0.00  0.00    -0.295 N 
ATOM      5  HN  UNK N   1      36.856  16.473  12.486  1.00  0.00     0.187 HD
HETATM    6  C   UNK N   1      35.629  14.902  11.795  0.00  0.00     0.120 A 
HETATM    7  H   UNK N   1      37.171  15.045  14.502  0.00  0.00     0.186 HD
ENDROOT
BRANCH   6   8
HETATM    8  C   UNK N   1      35.170  15.482  10.516  0.00  0.00     0.137 A 
HETATM    9  N   UNK N   1      34.624  16.722  10.409  0.00  0.00    -0.339 N 
HETATM   10  C   UNK N   1      34.398  16.859   9.092  0.00  0.00     0.060 A 
ATOM     11  HN  UNK N   1      34.432  17.391  11.153  1.00  0.00     0.167 HD
HETATM   12  C   UNK N   1      33.877  17.958   8.418  0.00  0.00     0.032 A 
HETATM   13  C   UNK N   1      34.781  15.730   8.441  0.00  0.00     0.060 A 
HETATM   14  C   UNK N   1      33.758  17.862   7.017  0.00  0.00     0.002 A 
HETATM   15  C   UNK N   1      34.157  16.683   6.340  0.00  0.00     0.002 A 
HETATM   16  C   UNK N   1      34.678  15.593   7.061  0.00  0.00     0.032 A 
HETATM   17  N   UNK N   1      35.261  14.845   9.319  0.00  0.00    -0.339 N 
HETATM   18  H   UNK N   1      35.603  13.939   9.140  0.00  0.00     0.167 HD
ENDBRANCH   6   8
BRANCH   1  19
HETATM   19  N   UNK N   1      34.488  12.640  11.831  0.00  0.00    -0.320 N 
HETATM   20  C   UNK N   1      34.952  11.668  10.999  0.00  0.00     0.256 C 
HETATM   21  O   UNK N   1      36.156  11.529  10.821  0.00  0.00    -0.267 OA
HETATM   22  H   UNK N   1      33.535  12.624  12.080  0.00  0.00     0.169 HD
BRANCH  20  23
HETATM   23  C   UNK N   1      34.008  10.792  10.281  0.00  0.00     0.032 A 
HETATM   24  C   UNK N   1      33.333   9.774  10.973  0.00  0.00     0.017 A 
HETATM   25  C   UNK N   1      32.483   8.901  10.292  0.00  0.00     0.001 A 
HETATM   26  C   UNK N   1      32.289   9.047   8.916  0.00  0.00     0.000 A 
HETATM   27  C   UNK N   1      32.952  10.062   8.220  0.00  0.00     0.001 A 
HETATM   28  C   UNK N   1      33.818  10.926   8.898  0.00  0.00     0.017 A 
ENDBRANCH  20  23
ENDBRANCH   1  19
TORSDOF 3
ENDMDL
MODEL 6
REMARK VINA RESULT:      -7.0      4.891      6.553
REMARK  3 active torsions:
REMARK  status: ('A' for Active; 'I' for Inactive)
REMARK       I    between atoms: C_2  and  N_3 
REMARK    1  A    between atoms: C_2  and  C_20 
REMARK    2  A    between atoms: N_3  and  C_4 
REMARK    3  A    between atoms: C_9  and  C_10 
ROOT
HETATM    1  C   UNK N   1      22.023  18.687   4.160  0.00  0.00     0.084 A 
HETATM    2  C   UNK N   1      21.061  19.415   3.502  0.00  0.00     0.139 A 
HETATM    3  N   UNK N   1      21.687  20.401   2.820  0.00  0.00    -0.309 N 
HETATM    4  N   UNK N   1      22.996  20.308   3.012  0.00  0.00    -0.295 N 
ATOM      5  HN  UNK N   1      23.701  20.930   2.616  1.00  0.00     0.187 HD
HETATM    6  C   UNK N   1      23.239  19.257   3.817  0.00  0.00     0.120 A 
HETATM    7  H   UNK N   1      21.241  21.081   2.266  0.00  0.00     0.186 HD
ENDROOT
BRANCH   6   8
HETATM    8  C   UNK N   1      24.603  18.826   4.188  0.00  0.00     0.137 A 
HETATM    9  N   UNK N   1      25.356  17.989   3.428  0.00  0.00    -0.339 N 
HETATM   10  C   UNK N   1      26.515  17.903   4.100  0.00  0.00     0.060 A 
ATOM     11  HN  UNK N   1      25.101  17.533   2.552  1.00  0.00     0.167 HD
HETATM   12  C   UNK N   1      27.663  17.198   3.752  0.00  0.00     0.032 A 
HETATM   13  C   UNK N   1      26.446  18.651   5.232  0.00  0.00     0.060 A 
HETATM   14  C   UNK N   1      28.768  17.286   4.623  0.00  0.00     0.002 A 
HETATM   15  C   UNK N   1      28.692  18.066   5.803  0.00  0.00     0.002 A 
HETATM   16  C   UNK N   1      27.511  18.764   6.119  0.00  0.00     0.032 A 
HETATM   17  N   UNK N   1      25.247  19.234   5.312  0.00  0.00    -0.339 N 
HETATM   18  H   UNK N   1      24.908  19.825   6.024  0.00  0.00     0.167 HD
ENDBRANCH   6   8
BRANCH   1  19
HETATM   19  N   UNK N   1      21.770  17.568   5.002  0.00  0.00    -0.320 N 
HETATM   20  C   UNK N   1      21.434  17.677   6.317  0.00  0.00     0.256 C 
HETATM   21  O   UNK N   1      21.140  18.766   6.792  0.00  0.00    -0.267 OA
HETATM   22  H   UNK N   1      21.842  16.666   4.613  0.00  0.00     0.169 HD
BRANCH  20  23
HETATM   23  C   UNK N   1      21.450  16.487   7.188  0.00  0.00     0.032 A 
HETATM   24  C   UNK N   1      22.334  15.431   6.914  0.00  0.00     0.017 A 
HETATM   25  C   UNK N   1      22.316  14.274   7.697  0.00  0.00     0.001 A 
HETATM   26  C   UNK N   1      21.424  14.170   8.767  0.00  0.00     0.000 A 
HETATM   27  C   UNK N   1      20.546  15.219   9.051  0.00  0.00     0.001 A 
HETATM   28  C   UNK N   1      20.550  16.370   8.258  0.00  0.00     0.017 A 
ENDBRANCH  20  23
ENDBRANCH   1  19
TORSDOF 3
ENDMDL
MODEL 7
REMARK VINA RESULT:      -7.0     17.423     19.399
REMARK  3 active torsions:
REMARK  status: ('A' for Active; 'I' for Inactive)
REMARK       I    between atoms: C_2  and  N_3 
REMARK    1  A    between atoms: C_2  and  C_20 
REMARK    2  A    between atoms: N_3  and  C_4 
REMARK    3  A    between atoms: C_9  and  C_10 
ROOT
HETATM    1  C   UNK N   1      26.548  23.359  -6.929  0.00  0.00     0.084 A 
HETATM    2  C   UNK N   1      26.100  22.481  -7.887  0.00  0.00     0.139 A 
HETATM    3  N   UNK N   1      25.249  23.154  -8.694  0.00  0.00    -0.309 N 
HETATM    4  N   UNK N   1      25.159  24.413  -8.289  0.00  0.00    -0.295 N 
ATOM      5  HN  UNK N   1      24.581  25.137  -8.719  1.00  0.00     0.187 HD
HETATM    6  C   UNK N   1      25.955  24.578  -7.217  0.00  0.00     0.120 A 
HETATM    7  H   UNK N   1      24.769  22.768  -9.462  0.00  0.00     0.186 HD
ENDROOT
BRANCH   6   8
HETATM    8  C   UNK N   1      26.144  25.882  -6.548  0.00  0.00     0.137 A 
HETATM    9  N   UNK N   1      25.446  26.266  -5.447  0.00  0.00    -0.339 N 
HETATM   10  C   UNK N   1      25.956  27.473  -5.151  0.00  0.00     0.060 A 
ATOM     11  HN  UNK N   1      24.709  25.758  -4.961  1.00  0.00     0.167 HD
HETATM   12  C   UNK N   1      25.626  28.310  -4.090  0.00  0.00     0.032 A 
HETATM   13  C   UNK N   1      26.913  27.802  -6.057  0.00  0.00     0.060 A 
HETATM   14  C   UNK N   1      26.328  29.528  -3.983  0.00  0.00     0.002 A 
HETATM   15  C   UNK N   1      27.325  29.869  -4.930  0.00  0.00     0.002 A 
HETATM   16  C   UNK N   1      27.627  28.993  -5.990  0.00  0.00     0.032 A 
HETATM   17  N   UNK N   1      27.042  26.818  -6.952  0.00  0.00    -0.339 N 
HETATM   18  H   UNK N   1      27.649  26.781  -7.726  0.00  0.00     0.167 HD
ENDBRANCH   6   8
BRANCH   1  19
HETATM   19  N   UNK N   1      27.452  23.034  -5.879  0.00  0.00    -0.320 N 
HETATM   20  C   UNK N   1      28.764  23.396  -5.878  0.00  0.00     0.256 C 
HETATM   21  O   UNK N   1      29.186  24.198  -6.702  0.00  0.00    -0.267 OA
HETATM   22  H   UNK N   1      27.110  22.519  -5.112  0.00  0.00     0.169 HD
BRANCH  20  23
HETATM   23  C   UNK N   1      29.697  22.803  -4.901  0.00  0.00     0.032 A 
HETATM   24  C   UNK N   1      30.101  21.466  -5.043  0.00  0.00     0.017 A 
HETATM   25  C   UNK N   1      30.937  20.877  -4.091  0.00  0.00     0.001 A 
HETATM   26  C   UNK N   1      31.385  21.623  -2.999  0.00  0.00     0.000 A 
HETATM   27  C   UNK N   1      30.993  22.957  -2.854  0.00  0.00     0.001 A 
HETATM   28  C   UNK N   1      30.142  23.543  -3.796  0.00  0.00     0.017 A 
ENDBRANCH  20  23
ENDBRANCH   1  19
TORSDOF 3
ENDMDL
MODEL 8
REMARK VINA RESULT:      -6.9     14.148     16.425
REMARK  3 active torsions:
REMARK  status: ('A' for Active; 'I' for Inactive)
REMARK       I    between atoms: C_2  and  N_3 
REMARK    1  A    between atoms: C_2  and  C_20 
REMARK    2  A    between atoms: N_3  and  C_4 
REMARK    3  A    between atoms: C_9  and  C_10 
ROOT
HETATM    1  C   UNK N   1      35.287  13.231  12.338  0.00  0.00     0.084 A 
HETATM    2  C   UNK N   1      35.656  14.202  11.439  0.00  0.00     0.139 A 
HETATM    3  N   UNK N   1      36.346  15.147  12.116  0.00  0.00    -0.309 N 
HETATM    4  N   UNK N   1      36.435  14.799  13.392  0.00  0.00    -0.295 N 
ATOM      5  HN  UNK N   1      36.901  15.336  14.124  1.00  0.00     0.187 HD
HETATM    6  C   UNK N   1      35.810  13.620  13.561  0.00  0.00     0.120 A 
HETATM    7  H   UNK N   1      36.723  15.967  11.722  0.00  0.00     0.186 HD
ENDROOT
BRANCH   6   8
HETATM    8  C   UNK N   1      35.772  12.907  14.855  0.00  0.00     0.137 A 
HETATM    9  N   UNK N   1      36.277  11.660  15.038  0.00  0.00    -0.339 N 
HETATM   10  C   UNK N   1      36.076  11.422  16.344  0.00  0.00     0.060 A 
ATOM     11  HN  UNK N   1      36.709  11.048  14.346  1.00  0.00     0.167 HD
HETATM   12  C   UNK N   1      36.435  10.297  17.080  0.00  0.00     0.032 A 
HETATM   13  C   UNK N   1      35.455  12.487  16.915  0.00  0.00     0.060 A 
HETATM   14  C   UNK N   1      36.130  10.298  18.456  0.00  0.00     0.002 A 
HETATM   15  C   UNK N   1      35.481  11.410  19.048  0.00  0.00     0.002 A 
HETATM   16  C   UNK N   1      35.134  12.528  18.267  0.00  0.00     0.032 A 
HETATM   17  N   UNK N   1      35.245  13.431  15.993  0.00  0.00    -0.339 N 
HETATM   18  H   UNK N   1      34.808  14.306  16.111  0.00  0.00     0.167 HD
ENDBRANCH   6   8
BRANCH   1  19
HETATM   19  N   UNK N   1      34.531  12.066  12.022  0.00  0.00    -0.320 N 
HETATM   20  C   UNK N   1      35.085  10.837  11.836  0.00  0.00     0.256 C 
HETATM   21  O   UNK N   1      36.257  10.637  12.128  0.00  0.00    -0.267 OA
HETATM   22  H   UNK N   1      33.554  12.155  11.934  0.00  0.00     0.169 HD
BRANCH  20  23
HETATM   23  C   UNK N   1      34.286   9.743  11.253  0.00  0.00     0.032 A 
HETATM   24  C   UNK N   1      33.151  10.039  10.483  0.00  0.00     0.017 A 
HETATM   25  C   UNK N   1      32.354   9.011   9.976  0.00  0.00     0.001 A 
HETATM   26  C   UNK N   1      32.692   7.678  10.225  0.00  0.00     0.000 A 
HETATM   27  C   UNK N   1      33.824   7.375  10.986  0.00  0.00     0.001 A 
HETATM   28  C   UNK N   1      34.613   8.403  11.509  0.00  0.00     0.017 A 
ENDBRANCH  20  23
ENDBRANCH   1  19
TORSDOF 3
ENDMDL
MODEL 9
REMARK VINA RESULT:      -6.8     16.684     18.236
REMARK  3 active torsions:
REMARK  status: ('A' for Active; 'I' for Inactive)
REMARK       I    between atoms: C_2  and  N_3 
REMARK    1  A    between atoms: C_2  and  C_20 
REMARK    2  A    between atoms: N_3  and  C_4 
REMARK    3  A    between atoms: C_9  and  C_10 
ROOT
HETATM    1  C   UNK N   1      29.634  23.413  -3.620  0.00  0.00     0.084 A 
HETATM    2  C   UNK N   1      30.407  23.271  -2.493  0.00  0.00     0.139 A 
HETATM    3  N   UNK N   1      31.073  22.099  -2.596  0.00  0.00    -0.309 N 
HETATM    4  N   UNK N   1      30.759  21.514  -3.744  0.00  0.00    -0.295 N 
ATOM      5  HN  UNK N   1      31.117  20.615  -4.072  1.00  0.00     0.187 HD
HETATM    6  C   UNK N   1      29.890  22.300  -4.405  0.00  0.00     0.120 A 
HETATM    7  H   UNK N   1      31.693  21.736  -1.924  0.00  0.00     0.186 HD
ENDROOT
BRANCH   6   8
HETATM    8  C   UNK N   1      29.379  21.979  -5.754  0.00  0.00     0.137 A 
HETATM    9  N   UNK N   1      28.340  22.633  -6.336  0.00  0.00    -0.339 N 
HETATM   10  C   UNK N   1      28.243  22.064  -7.548  0.00  0.00     0.060 A 
ATOM     11  HN  UNK N   1      27.768  23.380  -5.944  1.00  0.00     0.167 HD
HETATM   12  C   UNK N   1      27.361  22.375  -8.578  0.00  0.00     0.032 A 
HETATM   13  C   UNK N   1      29.183  21.091  -7.675  0.00  0.00     0.060 A 
HETATM   14  C   UNK N   1      27.476  21.639  -9.775  0.00  0.00     0.002 A 
HETATM   15  C   UNK N   1      28.457  20.625  -9.904  0.00  0.00     0.002 A 
HETATM   16  C   UNK N   1      29.329  20.341  -8.836  0.00  0.00     0.032 A 
HETATM   17  N   UNK N   1      29.905  21.014  -6.553  0.00  0.00    -0.339 N 
HETATM   18  H   UNK N   1      30.647  20.399  -6.352  0.00  0.00     0.167 HD
ENDBRANCH   6   8
BRANCH   1  19
HETATM   19  N   UNK N   1      28.770  24.513  -3.887  0.00  0.00    -0.320 N 
HETATM   20  C   UNK N   1      27.482  24.580  -3.452  0.00  0.00     0.256 C 
HETATM   21  O   UNK N   1      27.063  23.772  -2.633  0.00  0.00    -0.267 OA
HETATM   22  H   UNK N   1      29.123  25.265  -4.416  0.00  0.00     0.169 HD
BRANCH  20  23
HETATM   23  C   UNK N   1      26.570  25.609  -3.986  0.00  0.00     0.032 A 
HETATM   24  C   UNK N   1      25.894  25.385  -5.196  0.00  0.00     0.017 A 
HETATM   25  C   UNK N   1      25.075  26.376  -5.741  0.00  0.00     0.001 A 
HETATM   26  C   UNK N   1      24.916  27.594  -5.075  0.00  0.00     0.000 A 
HETATM   27  C   UNK N   1      25.581  27.823  -3.867  0.00  0.00     0.001 A 
HETATM   28  C   UNK N   1      26.415  26.838  -3.329  0.00  0.00     0.017 A 
ENDBRANCH  20  23
ENDBRANCH   1  19
TORSDOF 3
ENDMDL
