MODEL 1
REMARK VINA RESULT:      -7.8      0.000      0.000
REMARK  5 active torsions:
REMARK  status: ('A' for Active; 'I' for Inactive)
REMARK       I    between atoms: C_2  and  N_7 
REMARK       I    between atoms: N_3  and  C_2 
REMARK    1  A    between atoms: C_4  and  N_3 
REMARK    2  A    between atoms: N_7  and  C_8 
REMARK    3  A    between atoms: C_14  and  C_13 
REMARK    4  A    between atoms: C_21  and  C_20 
REMARK    5  A    between atoms: N_22  and  C_21 
ROOT
HETATM    1  C   UNK N   1      34.836  15.405  11.117  0.00  0.00     0.137 A 
HETATM    2  N   UNK N   1      35.135  16.619  10.596  0.00  0.00    -0.339 N 
ATOM      3  HN  UNK N   1      35.812  17.300  10.940  1.00  0.00     0.167 HD
HETATM    4  C   UNK N   1      34.339  16.721   9.528  0.00  0.00     0.060 A 
HETATM    5  C   UNK N   1      34.278  17.763   8.615  0.00  0.00     0.032 A 
HETATM    6  C   UNK N   1      33.427  17.602   7.511  0.00  0.00     0.011 A 
HETATM    7  C   UNK N   1      32.658  16.421   7.355  0.00  0.00    -0.030 A 
HETATM    8  C   UNK N   1      32.738  15.393   8.319  0.00  0.00     0.040 A 
HETATM    9  C   UNK N   1      33.593  15.593   9.402  0.00  0.00     0.061 A 
HETATM   10  N   UNK N   1      33.880  14.748  10.405  0.00  0.00    -0.339 N 
HETATM   11  H   UNK N   1      33.489  13.862  10.585  0.00  0.00     0.167 HD
ENDROOT
BRANCH   1  12
HETATM   12  C   UNK N   1      35.562  14.801  12.246  0.00  0.00     0.120 A 
HETATM   13  C   UNK N   1      35.385  13.547  12.805  0.00  0.00     0.085 A 
HETATM   14  C   UNK N   1      36.190  13.511  13.919  0.00  0.00     0.139 A 
HETATM   15  N   UNK N   1      36.845  14.689  13.991  0.00  0.00    -0.309 N 
HETATM   16  N   UNK N   1      36.458  15.471  12.992  0.00  0.00    -0.295 N 
HETATM   17  H   UNK N   1      37.508  14.930  14.679  0.00  0.00     0.186 HD
ATOM     18  HN  UNK N   1      36.784  16.422  12.819  1.00  0.00     0.187 HD
BRANCH  13  19
HETATM   19  N   UNK N   1      34.461  12.533  12.440  0.00  0.00    -0.305 N 
HETATM   20  C   UNK N   1      34.684  11.610  11.474  0.00  0.00     0.321 C 
HETATM   21  O   UNK N   1      35.782  11.524  10.938  0.00  0.00    -0.247 OA
HETATM   22  N   UNK N   1      33.689  10.757  11.136  0.00  0.00    -0.338 N 
HETATM   23  H   UNK N   1      32.815  10.844  11.581  0.00  0.00     0.164 HD
HETATM   24  H   UNK N   1      33.602  12.499  12.920  0.00  0.00     0.171 HD
BRANCH  22  25
HETATM   25  C   UNK N   1      33.867   9.727  10.145  0.00  0.00     0.086 A 
HETATM   26  C   UNK N   1      33.108   8.491  10.586  0.00  0.00     0.027 A 
HETATM   27  C   UNK N   1      32.525   9.395   9.523  0.00  0.00     0.027 A 
ENDBRANCH  22  25
ENDBRANCH  13  19
ENDBRANCH   1  12
BRANCH   7  28
HETATM   28  C   UNK N   1      31.865  16.211   6.100  0.00  0.00     0.273 C 
BRANCH  28  29
HETATM   29  N   UNK N   1      31.679  17.425   5.299  0.00  0.00    -0.063 N 
HETATM   30  C   UNK N   1      30.259  17.511   4.928  0.00  0.00     0.261 A 
HETATM   31  C   UNK N   1      29.915  16.507   3.815  0.00  0.00     0.195 C 
HETATM   32  H   UNK N   1      31.329  17.490   4.343  0.00  0.00     0.280 HD
HETATM   33  O   UNK N   1      30.705  16.777   2.685  0.00  0.00    -0.388 OA
HETATM   34  C   UNK N   1      32.022  16.448   3.043  0.00  0.00     0.195 C 
HETATM   35  C   UNK N   1      32.524  17.447   4.091  0.00  0.00     0.261 A 
ENDBRANCH  28  29
ENDBRANCH   7  28
TORSDOF 5
ENDMDL
MODEL 2
REMARK VINA RESULT:      -7.8     10.466     15.229
REMARK  5 active torsions:
REMARK  status: ('A' for Active; 'I' for Inactive)
REMARK       I    between atoms: C_2  and  N_7 
REMARK       I    between atoms: N_3  and  C_2 
REMARK    1  A    between atoms: C_4  and  N_3 
REMARK    2  A    between atoms: N_7  and  C_8 
REMARK    3  A    between atoms: C_14  and  C_13 
REMARK    4  A    between atoms: C_21  and  C_20 
REMARK    5  A    between atoms: N_22  and  C_21 
ROOT
HETATM    1  C   UNK N   1      20.358  17.567   3.625  0.00  0.00     0.137 A 
HETATM    2  N   UNK N   1      19.687  16.469   3.201  0.00  0.00    -0.339 N 
ATOM      3  HN  UNK N   1      19.179  16.343   2.325  1.00  0.00     0.167 HD
HETATM    4  C   UNK N   1      19.841  15.589   4.194  0.00  0.00     0.060 A 
HETATM    5  C   UNK N   1      19.378  14.283   4.246  0.00  0.00     0.032 A 
HETATM    6  C   UNK N   1      19.750  13.512   5.358  0.00  0.00     0.011 A 
HETATM    7  C   UNK N   1      20.556  14.065   6.386  0.00  0.00    -0.030 A 
HETATM    8  C   UNK N   1      20.990  15.406   6.301  0.00  0.00     0.040 A 
HETATM    9  C   UNK N   1      20.597  16.138   5.181  0.00  0.00     0.061 A 
HETATM   10  N   UNK N   1      20.926  17.397   4.850  0.00  0.00    -0.339 N 
HETATM   11  H   UNK N   1      21.454  18.044   5.371  0.00  0.00     0.167 HD
ENDROOT
BRANCH   1  12
HETATM   12  C   UNK N   1      20.569  18.764   2.795  0.00  0.00     0.120 A 
HETATM   13  C   UNK N   1      21.656  19.622   2.790  0.00  0.00     0.085 A 
HETATM   14  C   UNK N   1      21.316  20.661   1.956  0.00  0.00     0.139 A 
HETATM   15  N   UNK N   1      20.087  20.404   1.459  0.00  0.00    -0.309 N 
HETATM   16  N   UNK N   1      19.632  19.269   1.974  0.00  0.00    -0.295 N 
HETATM   17  H   UNK N   1      19.604  20.971   0.815  0.00  0.00     0.186 HD
ATOM     18  HN  UNK N   1      18.723  18.850   1.779  1.00  0.00     0.187 HD
BRANCH  13  19
HETATM   19  N   UNK N   1      22.832  19.571   3.583  0.00  0.00    -0.305 N 
HETATM   20  C   UNK N   1      24.022  20.103   3.217  0.00  0.00     0.321 C 
HETATM   21  O   UNK N   1      24.113  20.787   2.205  0.00  0.00    -0.247 OA
HETATM   22  N   UNK N   1      25.104  19.901   4.006  0.00  0.00    -0.338 N 
HETATM   23  H   UNK N   1      25.008  19.349   4.815  0.00  0.00     0.164 HD
HETATM   24  H   UNK N   1      22.778  19.120   4.457  0.00  0.00     0.171 HD
BRANCH  22  25
HETATM   25  C   UNK N   1      26.392  20.468   3.698  0.00  0.00     0.086 A 
HETATM   26  C   UNK N   1      27.128  20.736   4.995  0.00  0.00     0.027 A 
HETATM   27  C   UNK N   1      27.479  19.521   4.167  0.00  0.00     0.027 A 
ENDBRANCH  22  25
ENDBRANCH  13  19
ENDBRANCH   1  12
BRANCH   7  28
HETATM   28  C   UNK N   1      21.056  13.186   7.493  0.00  0.00     0.273 C 
BRANCH  28  29
HETATM   29  N   UNK N   1      21.808  13.899   8.530  0.00  0.00    -0.063 N 
HETATM   30  C   UNK N   1      23.039  13.142   8.799  0.00  0.00     0.261 A 
HETATM   31  C   UNK N   1      22.744  11.881   9.628  0.00  0.00     0.195 C 
HETATM   32  H   UNK N   1      22.088  13.548   9.446  0.00  0.00     0.280 HD
HETATM   33  O   UNK N   1      22.154  12.253  10.847  0.00  0.00    -0.388 OA
HETATM   34  C   UNK N   1      20.883  12.753  10.527  0.00  0.00     0.195 C 
HETATM   35  C   UNK N   1      21.037  14.079   9.774  0.00  0.00     0.261 A 
ENDBRANCH  28  29
ENDBRANCH   7  28
TORSDOF 5
ENDMDL
MODEL 3
REMARK VINA RESULT:      -7.6      7.254     12.238
REMARK  5 active torsions:
REMARK  status: ('A' for Active; 'I' for Inactive)
REMARK       I    between atoms: C_2  and  N_7 
REMARK       I    between atoms: N_3  and  C_2 
REMARK    1  A    between atoms: C_4  and  N_3 
REMARK    2  A    between atoms: N_7  and  C_8 
REMARK    3  A    between atoms: C_14  and  C_13 
REMARK    4  A    between atoms: C_21  and  C_20 
REMARK    5  A    between atoms: N_22  and  C_21 
ROOT
HETATM    1  C   UNK N   1      24.197  18.567   4.195  0.00  0.00     0.137 A 
HETATM    2  N   UNK N   1      24.803  17.637   3.419  0.00  0.00    -0.339 N 
ATOM      3  HN  UNK N   1      24.433  17.174   2.590  1.00  0.00     0.167 HD
HETATM    4  C   UNK N   1      25.999  17.465   3.990  0.00  0.00     0.060 A 
HETATM    5  C   UNK N   1      27.031  16.644   3.562  0.00  0.00     0.032 A 
HETATM    6  C   UNK N   1      28.239  16.704   4.273  0.00  0.00     0.011 A 
HETATM    7  C   UNK N   1      28.380  17.565   5.390  0.00  0.00    -0.030 A 
HETATM    8  C   UNK N   1      27.297  18.372   5.803  0.00  0.00     0.040 A 
HETATM    9  C   UNK N   1      26.114  18.281   5.071  0.00  0.00     0.061 A 
HETATM   10  N   UNK N   1      24.978  18.980   5.230  0.00  0.00    -0.339 N 
HETATM   11  H   UNK N   1      24.762  19.637   5.932  0.00  0.00     0.167 HD
ENDROOT
BRANCH   1  12
HETATM   12  C   UNK N   1      22.891  19.168   3.878  0.00  0.00     0.120 A 
HETATM   13  C   UNK N   1      21.635  18.751   4.281  0.00  0.00     0.085 A 
HETATM   14  C   UNK N   1      20.737  19.543   3.606  0.00  0.00     0.139 A 
HETATM   15  N   UNK N   1      21.441  20.421   2.861  0.00  0.00    -0.309 N 
HETATM   16  N   UNK N   1      22.738  20.187   3.014  0.00  0.00    -0.295 N 
HETATM   17  H   UNK N   1      21.052  21.125   2.293  0.00  0.00     0.186 HD
ATOM     18  HN  UNK N   1      23.493  20.696   2.553  1.00  0.00     0.187 HD
BRANCH  13  19
HETATM   19  N   UNK N   1      21.286  17.639   5.092  0.00  0.00    -0.305 N 
HETATM   20  C   UNK N   1      21.085  17.704   6.430  0.00  0.00     0.321 C 
HETATM   21  O   UNK N   1      21.071  18.786   7.004  0.00  0.00    -0.247 OA
HETATM   22  N   UNK N   1      20.861  16.560   7.118  0.00  0.00    -0.338 N 
HETATM   23  H   UNK N   1      20.876  15.702   6.636  0.00  0.00     0.164 HD
HETATM   24  H   UNK N   1      21.183  16.764   4.653  0.00  0.00     0.171 HD
BRANCH  22  25
HETATM   25  C   UNK N   1      20.603  16.559   8.536  0.00  0.00     0.086 A 
HETATM   26  C   UNK N   1      19.522  15.538   8.832  0.00  0.00     0.027 A 
HETATM   27  C   UNK N   1      20.971  15.204   9.108  0.00  0.00     0.027 A 
ENDBRANCH  22  25
ENDBRANCH  13  19
ENDBRANCH   1  12
BRANCH   7  28
HETATM   28  C   UNK N   1      29.718  17.717   6.048  0.00  0.00     0.273 C 
BRANCH  28  29
HETATM   29  N   UNK N   1      30.060  16.626   6.968  0.00  0.00    -0.063 N 
HETATM   30  C   UNK N   1      29.980  17.149   8.340  0.00  0.00     0.261 A 
HETATM   31  C   UNK N   1      31.189  18.042   8.664  0.00  0.00     0.195 C 
HETATM   32  H   UNK N   1      30.821  16.602   7.646  0.00  0.00     0.280 HD
HETATM   33  O   UNK N   1      32.371  17.295   8.521  0.00  0.00    -0.388 OA
HETATM   34  C   UNK N   1      32.502  17.033   7.149  0.00  0.00     0.195 C 
HETATM   35  C   UNK N   1      31.398  16.062   6.713  0.00  0.00     0.261 A 
ENDBRANCH  28  29
ENDBRANCH   7  28
TORSDOF 5
ENDMDL
MODEL 4
REMARK VINA RESULT:      -7.6      3.659     10.250
REMARK  5 active torsions:
REMARK  status: ('A' for Active; 'I' for Inactive)
REMARK       I    between atoms: C_2  and  N_7 
REMARK       I    between atoms: N_3  and  C_2 
REMARK    1  A    between atoms: C_4  and  N_3 
REMARK    2  A    between atoms: N_7  and  C_8 
REMARK    3  A    between atoms: C_14  and  C_13 
REMARK    4  A    between atoms: C_21  and  C_20 
REMARK    5  A    between atoms: N_22  and  C_21 
ROOT
HETATM    1  C   UNK N   1      29.053  16.067   3.534  0.00  0.00     0.137 A 
HETATM    2  N   UNK N   1      29.918  17.055   3.200  0.00  0.00    -0.339 N 
ATOM      3  HN  UNK N   1      29.808  17.769   2.480  1.00  0.00     0.167 HD
HETATM    4  C   UNK N   1      30.950  16.878   4.029  0.00  0.00     0.060 A 
HETATM    5  C   UNK N   1      32.096  17.652   4.130  0.00  0.00     0.032 A 
HETATM    6  C   UNK N   1      33.003  17.329   5.151  0.00  0.00     0.011 A 
HETATM    7  C   UNK N   1      32.751  16.244   6.027  0.00  0.00    -0.030 A 
HETATM    8  C   UNK N   1      31.579  15.470   5.877  0.00  0.00     0.040 A 
HETATM    9  C   UNK N   1      30.705  15.823   4.850  0.00  0.00     0.061 A 
HETATM   10  N   UNK N   1      29.514  15.283   4.546  0.00  0.00    -0.339 N 
HETATM   11  H   UNK N   1      29.077  14.503   4.959  0.00  0.00     0.167 HD
ENDROOT
BRANCH   1  12
HETATM   12  C   UNK N   1      27.702  15.939   2.962  0.00  0.00     0.120 A 
HETATM   13  C   UNK N   1      26.522  16.502   3.416  0.00  0.00     0.085 A 
HETATM   14  C   UNK N   1      25.522  15.968   2.639  0.00  0.00     0.139 A 
HETATM   15  N   UNK N   1      26.098  15.147   1.735  0.00  0.00    -0.309 N 
HETATM   16  N   UNK N   1      27.409  15.119   1.937  0.00  0.00    -0.295 N 
HETATM   17  H   UNK N   1      25.619  14.648   1.034  0.00  0.00     0.186 HD
ATOM     18  HN  UNK N   1      28.082  14.568   1.404  1.00  0.00     0.187 HD
BRANCH  13  19
HETATM   19  N   UNK N   1      26.313  17.336   4.547  0.00  0.00    -0.305 N 
HETATM   20  C   UNK N   1      26.355  18.689   4.514  0.00  0.00     0.321 C 
HETATM   21  O   UNK N   1      26.453  19.282   3.447  0.00  0.00    -0.247 OA
HETATM   22  N   UNK N   1      26.246  19.379   5.673  0.00  0.00    -0.338 N 
HETATM   23  H   UNK N   1      26.167  18.881   6.519  0.00  0.00     0.164 HD
HETATM   24  H   UNK N   1      26.125  16.901   5.410  0.00  0.00     0.171 HD
BRANCH  22  25
HETATM   25  C   UNK N   1      26.245  20.819   5.709  0.00  0.00     0.086 A 
HETATM   26  C   UNK N   1      26.384  21.270   7.150  0.00  0.00     0.027 A 
HETATM   27  C   UNK N   1      27.583  21.307   6.228  0.00  0.00     0.027 A 
ENDBRANCH  22  25
ENDBRANCH  13  19
ENDBRANCH   1  12
BRANCH   7  28
HETATM   28  C   UNK N   1      33.661  16.003   7.194  0.00  0.00     0.273 C 
BRANCH  28  29
HETATM   29  N   UNK N   1      33.101  16.414   8.486  0.00  0.00    -0.063 N 
HETATM   30  C   UNK N   1      34.118  17.209   9.189  0.00  0.00     0.261 A 
HETATM   31  C   UNK N   1      35.230  16.310   9.755  0.00  0.00     0.195 C 
HETATM   32  H   UNK N   1      33.464  16.204   9.415  0.00  0.00     0.280 HD
HETATM   33  O   UNK N   1      34.669  15.382  10.648  0.00  0.00    -0.388 OA
HETATM   34  C   UNK N   1      33.894  14.511   9.867  0.00  0.00     0.195 C 
HETATM   35  C   UNK N   1      32.682  15.271   9.316  0.00  0.00     0.261 A 
ENDBRANCH  28  29
ENDBRANCH   7  28
TORSDOF 5
ENDMDL
MODEL 5
REMARK VINA RESULT:      -7.5      7.774     12.929
REMARK  5 active torsions:
REMARK  status: ('A' for Active; 'I' for Inactive)
REMARK       I    between atoms: C_2  and  N_7 
REMARK       I    between atoms: N_3  and  C_2 
REMARK    1  A    between atoms: C_4  and  N_3 
REMARK    2  A    between atoms: N_7  and  C_8 
REMARK    3  A    between atoms: C_14  and  C_13 
REMARK    4  A    between atoms: C_21  and  C_20 
REMARK    5  A    between atoms: N_22  and  C_21 
ROOT
HETATM    1  C   UNK N   1      23.176  19.477   3.470  0.00  0.00     0.137 A 
HETATM    2  N   UNK N   1      24.138  20.203   2.851  0.00  0.00    -0.339 N 
ATOM      3  HN  UNK N   1      24.047  20.785   2.019  1.00  0.00     0.167 HD
HETATM    4  C   UNK N   1      25.234  19.981   3.582  0.00  0.00     0.060 A 
HETATM    5  C   UNK N   1      26.497  20.525   3.399  0.00  0.00     0.032 A 
HETATM    6  C   UNK N   1      27.474  20.220   4.359  0.00  0.00     0.011 A 
HETATM    7  C   UNK N   1      27.171  19.378   5.459  0.00  0.00    -0.030 A 
HETATM    8  C   UNK N   1      25.876  18.831   5.596  0.00  0.00     0.040 A 
HETATM    9  C   UNK N   1      24.935  19.157   4.620  0.00  0.00     0.061 A 
HETATM   10  N   UNK N   1      23.639  18.812   4.563  0.00  0.00    -0.339 N 
HETATM   11  H   UNK N   1      23.141  18.217   5.170  0.00  0.00     0.167 HD
ENDROOT
BRANCH   1  12
HETATM   12  C   UNK N   1      21.755  19.512   3.086  0.00  0.00     0.120 A 
HETATM   13  C   UNK N   1      20.772  18.576   3.357  0.00  0.00     0.085 A 
HETATM   14  C   UNK N   1      19.657  18.985   2.665  0.00  0.00     0.139 A 
HETATM   15  N   UNK N   1      19.963  20.141   2.038  0.00  0.00    -0.309 N 
HETATM   16  N   UNK N   1      21.230  20.452   2.281  0.00  0.00    -0.295 N 
HETATM   17  H   UNK N   1      19.342  20.671   1.487  0.00  0.00     0.186 HD
ATOM     18  HN  UNK N   1      21.723  21.267   1.917  1.00  0.00     0.187 HD
BRANCH  13  19
HETATM   19  N   UNK N   1      20.882  17.349   4.063  0.00  0.00    -0.305 N 
HETATM   20  C   UNK N   1      21.071  17.254   5.401  0.00  0.00     0.321 C 
HETATM   21  O   UNK N   1      21.026  18.253   6.108  0.00  0.00    -0.247 OA
HETATM   22  N   UNK N   1      21.269  16.033   5.952  0.00  0.00    -0.338 N 
HETATM   23  H   UNK N   1      21.300  15.244   5.365  0.00  0.00     0.164 HD
HETATM   24  H   UNK N   1      20.818  16.514   3.546  0.00  0.00     0.171 HD
BRANCH  22  25
HETATM   25  C   UNK N   1      21.439  15.853   7.372  0.00  0.00     0.086 A 
HETATM   26  C   UNK N   1      20.685  14.608   7.797  0.00  0.00     0.027 A 
HETATM   27  C   UNK N   1      22.187  14.560   7.625  0.00  0.00     0.027 A 
ENDBRANCH  22  25
ENDBRANCH  13  19
ENDBRANCH   1  12
BRANCH   7  28
HETATM   28  C   UNK N   1      28.186  19.178   6.544  0.00  0.00     0.273 C 
BRANCH  28  29
HETATM   29  N   UNK N   1      27.961  17.980   7.361  0.00  0.00    -0.063 N 
HETATM   30  C   UNK N   1      28.139  18.354   8.771  0.00  0.00     0.261 A 
HETATM   31  C   UNK N   1      29.629  18.526   9.114  0.00  0.00     0.195 C 
HETATM   32  H   UNK N   1      28.616  17.535   8.003  0.00  0.00     0.280 HD
HETATM   33  O   UNK N   1      30.306  17.321   8.865  0.00  0.00    -0.388 OA
HETATM   34  C   UNK N   1      30.297  17.150   7.472  0.00  0.00     0.195 C 
HETATM   35  C   UNK N   1      28.863  16.870   7.008  0.00  0.00     0.261 A 
ENDBRANCH  28  29
ENDBRANCH   7  28
TORSDOF 5
ENDMDL
MODEL 6
REMARK VINA RESULT:      -7.5      3.756      5.464
REMARK  5 active torsions:
REMARK  status: ('A' for Active; 'I' for Inactive)
REMARK       I    between atoms: C_2  and  N_7 
REMARK       I    between atoms: N_3  and  C_2 
REMARK    1  A    between atoms: C_4  and  N_3 
REMARK    2  A    between atoms: N_7  and  C_8 
REMARK    3  A    between atoms: C_14  and  C_13 
REMARK    4  A    between atoms: C_21  and  C_20 
REMARK    5  A    between atoms: N_22  and  C_21 
ROOT
HETATM    1  C   UNK N   1      32.483  16.603   8.531  0.00  0.00     0.137 A 
HETATM    2  N   UNK N   1      31.414  16.891   9.312  0.00  0.00    -0.339 N 
ATOM      3  HN  UNK N   1      31.362  16.885  10.330  1.00  0.00     0.167 HD
HETATM    4  C   UNK N   1      30.444  17.184   8.442  0.00  0.00     0.060 A 
HETATM    5  C   UNK N   1      29.148  17.588   8.725  0.00  0.00     0.032 A 
HETATM    6  C   UNK N   1      28.332  17.939   7.638  0.00  0.00     0.011 A 
HETATM    7  C   UNK N   1      28.822  17.865   6.310  0.00  0.00    -0.030 A 
HETATM    8  C   UNK N   1      30.143  17.430   6.067  0.00  0.00     0.040 A 
HETATM    9  C   UNK N   1      30.921  17.090   7.173  0.00  0.00     0.061 A 
HETATM   10  N   UNK N   1      32.208  16.709   7.202  0.00  0.00    -0.339 N 
HETATM   11  H   UNK N   1      32.811  16.545   6.441  0.00  0.00     0.167 HD
ENDROOT
BRANCH   1  12
HETATM   12  C   UNK N   1      33.831  16.339   9.059  0.00  0.00     0.120 A 
HETATM   13  C   UNK N   1      34.755  15.405   8.623  0.00  0.00     0.085 A 
HETATM   14  C   UNK N   1      35.791  15.445   9.525  0.00  0.00     0.139 A 
HETATM   15  N   UNK N   1      35.505  16.397  10.438  0.00  0.00    -0.309 N 
HETATM   16  N   UNK N   1      34.319  16.926  10.166  0.00  0.00    -0.295 N 
HETATM   17  H   UNK N   1      36.086  16.657  11.190  0.00  0.00     0.186 HD
ATOM     18  HN  UNK N   1      33.855  17.656  10.707  1.00  0.00     0.187 HD
BRANCH  13  19
HETATM   19  N   UNK N   1      34.635  14.463   7.567  0.00  0.00    -0.305 N 
HETATM   20  C   UNK N   1      34.814  14.759   6.258  0.00  0.00     0.321 C 
HETATM   21  O   UNK N   1      35.227  15.862   5.920  0.00  0.00    -0.247 OA
HETATM   22  N   UNK N   1      34.570  13.806   5.328  0.00  0.00    -0.338 N 
HETATM   23  H   UNK N   1      34.241  12.926   5.622  0.00  0.00     0.164 HD
HETATM   24  H   UNK N   1      34.407  13.535   7.802  0.00  0.00     0.171 HD
BRANCH  22  25
HETATM   25  C   UNK N   1      34.775  14.039   3.921  0.00  0.00     0.086 A 
HETATM   26  C   UNK N   1      34.032  12.975   3.138  0.00  0.00     0.027 A 
HETATM   27  C   UNK N   1      33.445  14.363   3.269  0.00  0.00     0.027 A 
ENDBRANCH  22  25
ENDBRANCH  13  19
ENDBRANCH   1  12
BRANCH   7  28
HETATM   28  C   UNK N   1      27.982  18.374   5.178  0.00  0.00     0.273 C 
BRANCH  28  29
HETATM   29  N   UNK N   1      26.630  18.784   5.572  0.00  0.00    -0.063 N 
HETATM   30  C   UNK N   1      25.672  17.895   4.899  0.00  0.00     0.261 A 
HETATM   31  C   UNK N   1      25.539  18.251   3.409  0.00  0.00     0.195 C 
HETATM   32  H   UNK N   1      25.873  19.096   4.964  0.00  0.00     0.280 HD
HETATM   33  O   UNK N   1      25.102  19.580   3.285  0.00  0.00    -0.388 OA
HETATM   34  C   UNK N   1      26.164  20.382   3.731  0.00  0.00     0.195 C 
HETATM   35  C   UNK N   1      26.340  20.191   5.242  0.00  0.00     0.261 A 
ENDBRANCH  28  29
ENDBRANCH   7  28
TORSDOF 5
ENDMDL
MODEL 7
REMARK VINA RESULT:      -7.5      3.341      9.056
REMARK  5 active torsions:
REMARK  status: ('A' for Active; 'I' for Inactive)
REMARK       I    between atoms: C_2  and  N_7 
REMARK       I    between atoms: N_3  and  C_2 
REMARK    1  A    between atoms: C_4  and  N_3 
REMARK    2  A    between atoms: N_7  and  C_8 
REMARK    3  A    between atoms: C_14  and  C_13 
REMARK    4  A    between atoms: C_21  and  C_20 
REMARK    5  A    between atoms: N_22  and  C_21 
ROOT
HETATM    1  C   UNK N   1      35.348  14.888  11.634  0.00  0.00     0.137 A 
HETATM    2  N   UNK N   1      36.217  15.259  12.605  0.00  0.00    -0.339 N 
ATOM      3  HN  UNK N   1      36.805  16.091  12.636  1.00  0.00     0.167 HD
HETATM    4  C   UNK N   1      36.127  14.284  13.514  0.00  0.00     0.060 A 
HETATM    5  C   UNK N   1      36.785  14.199  14.731  0.00  0.00     0.032 A 
HETATM    6  C   UNK N   1      36.453  13.122  15.568  0.00  0.00     0.011 A 
HETATM    7  C   UNK N   1      35.492  12.161  15.166  0.00  0.00    -0.030 A 
HETATM    8  C   UNK N   1      34.858  12.277  13.909  0.00  0.00     0.040 A 
HETATM    9  C   UNK N   1      35.217  13.360  13.107  0.00  0.00     0.061 A 
HETATM   10  N   UNK N   1      34.720  13.713  11.911  0.00  0.00    -0.339 N 
HETATM   11  H   UNK N   1      34.056  13.234  11.363  0.00  0.00     0.167 HD
ENDROOT
BRANCH   1  12
HETATM   12  C   UNK N   1      35.016  15.729  10.473  0.00  0.00     0.120 A 
HETATM   13  C   UNK N   1      34.922  15.355   9.143  0.00  0.00     0.085 A 
HETATM   14  C   UNK N   1      34.735  16.518   8.434  0.00  0.00     0.139 A 
HETATM   15  N   UNK N   1      34.684  17.536   9.319  0.00  0.00    -0.309 N 
HETATM   16  N   UNK N   1      34.866  17.063  10.545  0.00  0.00    -0.295 N 
HETATM   17  H   UNK N   1      34.536  18.482   9.089  0.00  0.00     0.186 HD
ATOM     18  HN  UNK N   1      34.889  17.619  11.400  1.00  0.00     0.187 HD
BRANCH  13  19
HETATM   19  N   UNK N   1      35.127  14.076   8.563  0.00  0.00    -0.305 N 
HETATM   20  C   UNK N   1      34.220  13.071   8.590  0.00  0.00     0.321 C 
HETATM   21  O   UNK N   1      33.090  13.266   9.021  0.00  0.00    -0.247 OA
HETATM   22  N   UNK N   1      34.565  11.858   8.099  0.00  0.00    -0.338 N 
HETATM   23  H   UNK N   1      35.478  11.725   7.756  0.00  0.00     0.164 HD
HETATM   24  H   UNK N   1      35.986  13.908   8.112  0.00  0.00     0.171 HD
BRANCH  22  25
HETATM   25  C   UNK N   1      33.638  10.755   8.061  0.00  0.00     0.086 A 
HETATM   26  C   UNK N   1      34.414   9.477   7.815  0.00  0.00     0.027 A 
HETATM   27  C   UNK N   1      33.937   9.813   9.210  0.00  0.00     0.027 A 
ENDBRANCH  22  25
ENDBRANCH  13  19
ENDBRANCH   1  12
BRANCH   7  28
HETATM   28  C   UNK N   1      35.052  11.101  16.130  0.00  0.00     0.273 C 
BRANCH  28  29
HETATM   29  N   UNK N   1      36.038  10.792  17.171  0.00  0.00    -0.063 N 
HETATM   30  C   UNK N   1      36.570   9.447  16.906  0.00  0.00     0.261 A 
HETATM   31  C   UNK N   1      35.552   8.362  17.297  0.00  0.00     0.195 C 
HETATM   32  H   UNK N   1      36.018  10.017  17.833  0.00  0.00     0.280 HD
HETATM   33  O   UNK N   1      35.248   8.479  18.663  0.00  0.00    -0.388 OA
HETATM   34  C   UNK N   1      34.533   9.679  18.801  0.00  0.00     0.195 C 
HETATM   35  C   UNK N   1      35.473  10.859  18.531  0.00  0.00     0.261 A 
ENDBRANCH  28  29
ENDBRANCH   7  28
TORSDOF 5
ENDMDL
MODEL 8
REMARK VINA RESULT:      -7.4      4.109      9.578
REMARK  5 active torsions:
REMARK  status: ('A' for Active; 'I' for Inactive)
REMARK       I    between atoms: C_2  and  N_7 
REMARK       I    between atoms: N_3  and  C_2 
REMARK    1  A    between atoms: C_4  and  N_3 
REMARK    2  A    between atoms: N_7  and  C_8 
REMARK    3  A    between atoms: C_14  and  C_13 
REMARK    4  A    between atoms: C_21  and  C_20 
REMARK    5  A    between atoms: N_22  and  C_21 
ROOT
HETATM    1  C   UNK N   1      35.397  14.749  11.842  0.00  0.00     0.137 A 
HETATM    2  N   UNK N   1      36.258  15.143  12.810  0.00  0.00    -0.339 N 
ATOM      3  HN  UNK N   1      36.848  15.976  12.825  1.00  0.00     0.167 HD
HETATM    4  C   UNK N   1      36.159  14.191  13.742  0.00  0.00     0.060 A 
HETATM    5  C   UNK N   1      36.808  14.136  14.966  0.00  0.00     0.032 A 
HETATM    6  C   UNK N   1      36.467  13.081  15.827  0.00  0.00     0.011 A 
HETATM    7  C   UNK N   1      35.508  12.112  15.441  0.00  0.00    -0.030 A 
HETATM    8  C   UNK N   1      34.884  12.197  14.177  0.00  0.00     0.040 A 
HETATM    9  C   UNK N   1      35.252  13.259  13.351  0.00  0.00     0.061 A 
HETATM   10  N   UNK N   1      34.764  13.583  12.143  0.00  0.00    -0.339 N 
HETATM   11  H   UNK N   1      34.104  13.091  11.602  0.00  0.00     0.167 HD
ENDROOT
BRANCH   1  12
HETATM   12  C   UNK N   1      35.075  15.562  10.657  0.00  0.00     0.120 A 
HETATM   13  C   UNK N   1      35.368  15.296   9.330  0.00  0.00     0.085 A 
HETATM   14  C   UNK N   1      34.996  16.416   8.627  0.00  0.00     0.139 A 
HETATM   15  N   UNK N   1      34.468  17.296   9.504  0.00  0.00    -0.309 N 
HETATM   16  N   UNK N   1      34.527  16.788  10.728  0.00  0.00    -0.295 N 
HETATM   17  H   UNK N   1      34.097  18.178   9.271  0.00  0.00     0.186 HD
ATOM     18  HN  UNK N   1      34.210  17.249  11.580  1.00  0.00     0.187 HD
BRANCH  13  19
HETATM   19  N   UNK N   1      36.056  14.183   8.778  0.00  0.00    -0.305 N 
HETATM   20  C   UNK N   1      37.389  13.978   8.891  0.00  0.00     0.321 C 
HETATM   21  O   UNK N   1      38.071  14.701   9.607  0.00  0.00    -0.247 OA
HETATM   22  N   UNK N   1      37.954  12.939   8.232  0.00  0.00    -0.338 N 
HETATM   23  H   UNK N   1      37.387  12.370   7.663  0.00  0.00     0.164 HD
HETATM   24  H   UNK N   1      35.528  13.517   8.280  0.00  0.00     0.171 HD
BRANCH  22  25
HETATM   25  C   UNK N   1      39.360  12.639   8.337  0.00  0.00     0.086 A 
HETATM   26  C   UNK N   1      39.707  11.573   7.316  0.00  0.00     0.027 A 
HETATM   27  C   UNK N   1      40.049  13.021   7.042  0.00  0.00     0.027 A 
ENDBRANCH  22  25
ENDBRANCH  13  19
ENDBRANCH   1  12
BRANCH   7  28
HETATM   28  C   UNK N   1      35.058  11.076  16.428  0.00  0.00     0.273 C 
BRANCH  28  29
HETATM   29  N   UNK N   1      36.071  10.724  17.429  0.00  0.00    -0.063 N 
HETATM   30  C   UNK N   1      36.491   9.338  17.181  0.00  0.00     0.261 A 
HETATM   31  C   UNK N   1      35.419   8.341  17.654  0.00  0.00     0.195 C 
HETATM   32  H   UNK N   1      36.029   9.971  18.116  0.00  0.00     0.280 HD
HETATM   33  O   UNK N   1      35.193   8.517  19.029  0.00  0.00    -0.388 OA
HETATM   34  C   UNK N   1      34.574   9.770  19.164  0.00  0.00     0.195 C 
HETATM   35  C   UNK N   1      35.581  10.871  18.812  0.00  0.00     0.261 A 
ENDBRANCH  28  29
ENDBRANCH   7  28
TORSDOF 5
ENDMDL
MODEL 9
REMARK VINA RESULT:      -7.4     14.623     18.863
REMARK  5 active torsions:
REMARK  status: ('A' for Active; 'I' for Inactive)
REMARK       I    between atoms: C_2  and  N_7 
REMARK       I    between atoms: N_3  and  C_2 
REMARK    1  A    between atoms: C_4  and  N_3 
REMARK    2  A    between atoms: N_7  and  C_8 
REMARK    3  A    between atoms: C_14  and  C_13 
REMARK    4  A    between atoms: C_21  and  C_20 
REMARK    5  A    between atoms: N_22  and  C_21 
ROOT
HETATM    1  C   UNK N   1      27.635  25.472  -4.128  0.00  0.00     0.137 A 
HETATM    2  N   UNK N   1      27.601  24.583  -3.107  0.00  0.00    -0.339 N 
ATOM      3  HN  UNK N   1      26.846  24.420  -2.441  1.00  0.00     0.167 HD
HETATM    4  C   UNK N   1      28.786  23.969  -3.169  0.00  0.00     0.060 A 
HETATM    5  C   UNK N   1      29.247  22.937  -2.366  0.00  0.00     0.032 A 
HETATM    6  C   UNK N   1      30.496  22.381  -2.686  0.00  0.00     0.011 A 
HETATM    7  C   UNK N   1      31.249  22.874  -3.781  0.00  0.00    -0.030 A 
HETATM    8  C   UNK N   1      30.749  23.939  -4.562  0.00  0.00     0.040 A 
HETATM    9  C   UNK N   1      29.506  24.465  -4.210  0.00  0.00     0.061 A 
HETATM   10  N   UNK N   1      28.803  25.429  -4.825  0.00  0.00    -0.339 N 
HETATM   11  H   UNK N   1      29.070  25.976  -5.599  0.00  0.00     0.167 HD
ENDROOT
BRANCH   1  12
HETATM   12  C   UNK N   1      26.484  26.297  -4.529  0.00  0.00     0.120 A 
HETATM   13  C   UNK N   1      25.411  25.941  -5.328  0.00  0.00     0.085 A 
HETATM   14  C   UNK N   1      24.688  27.092  -5.529  0.00  0.00     0.139 A 
HETATM   15  N   UNK N   1      25.293  28.084  -4.842  0.00  0.00    -0.309 N 
HETATM   16  N   UNK N   1      26.382  27.609  -4.251  0.00  0.00    -0.295 N 
HETATM   17  H   UNK N   1      24.977  29.015  -4.788  0.00  0.00     0.186 HD
ATOM     18  HN  UNK N   1      27.034  28.149  -3.681  1.00  0.00     0.187 HD
BRANCH  13  19
HETATM   19  N   UNK N   1      25.151  24.698  -5.965  0.00  0.00    -0.305 N 
HETATM   20  C   UNK N   1      25.851  24.223  -7.023  0.00  0.00     0.321 C 
HETATM   21  O   UNK N   1      26.856  24.803  -7.414  0.00  0.00    -0.247 OA
HETATM   22  N   UNK N   1      25.447  23.076  -7.617  0.00  0.00    -0.338 N 
HETATM   23  H   UNK N   1      24.636  22.626  -7.285  0.00  0.00     0.164 HD
HETATM   24  H   UNK N   1      24.415  24.147  -5.614  0.00  0.00     0.171 HD
BRANCH  22  25
HETATM   25  C   UNK N   1      26.164  22.493  -8.722  0.00  0.00     0.086 A 
HETATM   26  C   UNK N   1      26.888  21.255  -8.233  0.00  0.00     0.027 A 
HETATM   27  C   UNK N   1      25.600  21.116  -9.012  0.00  0.00     0.027 A 
ENDBRANCH  22  25
ENDBRANCH  13  19
ENDBRANCH   1  12
BRANCH   7  28
HETATM   28  C   UNK N   1      32.511  22.177  -4.190  0.00  0.00     0.273 C 
BRANCH  28  29
HETATM   29  N   UNK N   1      32.625  20.802  -3.690  0.00  0.00    -0.063 N 
HETATM   30  C   UNK N   1      33.978  20.630  -3.142  0.00  0.00     0.261 A 
HETATM   31  C   UNK N   1      35.018  20.497  -4.267  0.00  0.00     0.195 C 
HETATM   32  H   UNK N   1      33.287  20.086  -3.987  0.00  0.00     0.280 HD
HETATM   33  O   UNK N   1      34.698  19.388  -5.068  0.00  0.00    -0.388 OA
HETATM   34  C   UNK N   1      33.513  19.723  -5.741  0.00  0.00     0.195 C 
HETATM   35  C   UNK N   1      32.362  19.792  -4.730  0.00  0.00     0.261 A 
ENDBRANCH  28  29
ENDBRANCH   7  28
TORSDOF 5
ENDMDL
