MODEL 1
REMARK VINA RESULT:      -8.4      0.000      0.000
REMARK  6 active torsions:
REMARK  status: ('A' for Active; 'I' for Inactive)
REMARK    1  A    between atoms: C_5  and  C_6 
REMARK    2  A    between atoms: C_6  and  O_7 
REMARK    3  A    between atoms: O_7  and  C_8 
REMARK    4  A    between atoms: C_16  and  N_17 
REMARK       I    between atoms: N_17  and  C_18 
REMARK    5  A    between atoms: C_18  and  C_20 
REMARK    6  A    between atoms: C_25  and  N_27 
ROOT
HETATM    1  N   UNK N   1      36.208  14.518  10.262  0.00  0.00    -0.323 N 
HETATM    2  C   UNK N   1      35.033  14.637   9.587  0.00  0.00     0.252 C 
HETATM    3  O   UNK N   1      34.087  13.900   9.833  0.00  0.00    -0.268 OA
HETATM    4  H   UNK N   1      36.954  15.081   9.957  0.00  0.00     0.169 HD
ENDROOT
BRANCH   1   5
HETATM    5  C   UNK N   1      36.463  13.657  11.364  0.00  0.00     0.035 A 
HETATM    6  C   UNK N   1      36.961  12.377  11.108  0.00  0.00     0.031 A 
HETATM    7  C   UNK N   1      37.306  11.529  12.160  0.00  0.00     0.026 A 
HETATM    8  C   UNK N   1      37.162  11.953  13.483  0.00  0.00     0.042 A 
HETATM    9 Cl   UNK N   1      37.637  10.863  14.777  0.00  0.00    -0.084 Cl
HETATM   10  C   UNK N   1      36.665  13.239  13.757  0.00  0.00    -0.010 A 
HETATM   11  C   UNK N   1      36.324  14.086  12.694  0.00  0.00     0.040 A 
BRANCH  10  12
HETATM   12  C   UNK N   1      36.536  13.702  15.178  0.00  0.00     0.216 C 
BRANCH  12  13
HETATM   13  O   UNK N   1      35.373  13.254  15.770  0.00  0.00    -0.345 OA
BRANCH  13  14
HETATM   14  C   UNK N   1      35.321  12.885  17.072  0.00  0.00     0.084 A 
HETATM   15  C   UNK N   1      35.203  13.867  18.061  0.00  0.00     0.124 A 
HETATM   16  N   UNK N   1      35.171  13.514  19.376  0.00  0.00    -0.373 N 
HETATM   17  C   UNK N   1      35.250  12.213  19.766  0.00  0.00     0.088 A 
ATOM     18  HN  UNK N   1      35.085  14.243  20.084  1.00  0.00     0.164 HD
HETATM   19  C   UNK N   1      35.367  11.200  18.813  0.00  0.00     0.020 A 
HETATM   20  C   UNK N   1      35.404  11.539  17.462  0.00  0.00     0.039 A 
ENDBRANCH  13  14
ENDBRANCH  12  13
ENDBRANCH  10  12
ENDBRANCH   1   5
BRANCH   2  21
HETATM   21  C   UNK N   1      34.856  15.755   8.643  0.00  0.00     0.011 C 
HETATM   22  C   UNK N   1      34.662  17.003   9.113  0.00  0.00     0.022 C 
HETATM   23  C   UNK N   1      34.190  18.146   8.243  0.00  0.00     0.195 C 
HETATM   24  F   UNK N   1      35.144  19.146   8.213  0.00  0.00    -0.245 F 
HETATM   25  C   UNK N   1      33.825  17.737   6.803  0.00  0.00     0.077 C 
HETATM   26  C   UNK N   1      33.449  16.250   6.686  0.00  0.00     0.230 C 
HETATM   27  C   UNK N   1      34.667  15.465   7.181  0.00  0.00     0.080 C 
BRANCH  26  28
HETATM   28  N   UNK N   1      33.056  15.890   5.313  0.00  0.00     0.097 N 
HETATM   29  C   UNK N   1      32.590  17.045   4.536  0.00  0.00     0.299 C 
HETATM   30  C   UNK N   1      32.245  16.578   3.122  0.00  0.00     0.198 C 
HETATM   31  O   UNK N   1      33.411  16.091   2.506  0.00  0.00    -0.388 OA
HETATM   32  C   UNK N   1      33.758  14.904   3.177  0.00  0.00     0.198 C 
HETATM   33  C   UNK N   1      34.171  15.227   4.616  0.00  0.00     0.299 C 
ENDBRANCH  26  28
ENDBRANCH   2  21
TORSDOF 6
ENDMDL
MODEL 2
REMARK VINA RESULT:      -8.0      8.842     14.509
REMARK  6 active torsions:
REMARK  status: ('A' for Active; 'I' for Inactive)
REMARK    1  A    between atoms: C_5  and  C_6 
REMARK    2  A    between atoms: C_6  and  O_7 
REMARK    3  A    between atoms: O_7  and  C_8 
REMARK    4  A    between atoms: C_16  and  N_17 
REMARK       I    between atoms: N_17  and  C_18 
REMARK    5  A    between atoms: C_18  and  C_20 
REMARK    6  A    between atoms: C_25  and  N_27 
ROOT
HETATM    1  N   UNK N   1      26.616  18.252   5.561  0.00  0.00    -0.323 N 
HETATM    2  C   UNK N   1      27.414  18.879   6.467  0.00  0.00     0.252 C 
HETATM    3  O   UNK N   1      27.314  20.082   6.671  0.00  0.00    -0.268 OA
HETATM    4  H   UNK N   1      26.805  17.304   5.383  0.00  0.00     0.169 HD
ENDROOT
BRANCH   1   5
HETATM    5  C   UNK N   1      25.534  18.836   4.846  0.00  0.00     0.035 A 
HETATM    6  C   UNK N   1      25.824  19.753   3.834  0.00  0.00     0.031 A 
HETATM    7  C   UNK N   1      24.802  20.287   3.049  0.00  0.00     0.026 A 
HETATM    8  C   UNK N   1      23.476  19.904   3.264  0.00  0.00     0.042 A 
HETATM    9 Cl   UNK N   1      22.223  20.578   2.233  0.00  0.00    -0.084 Cl
HETATM   10  C   UNK N   1      23.168  18.978   4.276  0.00  0.00    -0.010 A 
HETATM   11  C   UNK N   1      24.202  18.445   5.058  0.00  0.00     0.040 A 
BRANCH  10  12
HETATM   12  C   UNK N   1      21.747  18.549   4.488  0.00  0.00     0.216 C 
BRANCH  12  13
HETATM   13  O   UNK N   1      21.531  17.245   4.093  0.00  0.00    -0.345 OA
BRANCH  13  14
HETATM   14  C   UNK N   1      20.966  16.936   2.902  0.00  0.00     0.084 A 
HETATM   15  C   UNK N   1      19.980  17.773   2.370  0.00  0.00     0.124 A 
HETATM   16  N   UNK N   1      19.386  17.465   1.184  0.00  0.00    -0.373 N 
HETATM   17  C   UNK N   1      19.729  16.348   0.485  0.00  0.00     0.088 A 
ATOM     18  HN  UNK N   1      18.669  18.085   0.810  1.00  0.00     0.164 HD
HETATM   19  C   UNK N   1      20.710  15.486   0.977  0.00  0.00     0.020 A 
HETATM   20  C   UNK N   1      21.328  15.781   2.191  0.00  0.00     0.039 A 
ENDBRANCH  13  14
ENDBRANCH  12  13
ENDBRANCH  10  12
ENDBRANCH   1   5
BRANCH   2  21
HETATM   21  C   UNK N   1      28.317  18.073   7.308  0.00  0.00     0.011 C 
HETATM   22  C   UNK N   1      28.395  18.317   8.631  0.00  0.00     0.022 C 
HETATM   23  C   UNK N   1      29.485  17.749   9.511  0.00  0.00     0.195 C 
HETATM   24  F   UNK N   1      28.936  16.938  10.486  0.00  0.00    -0.245 F 
HETATM   25  C   UNK N   1      30.574  16.972   8.747  0.00  0.00     0.077 C 
HETATM   26  C   UNK N   1      30.683  17.398   7.272  0.00  0.00     0.230 C 
HETATM   27  C   UNK N   1      29.304  17.145   6.657  0.00  0.00     0.080 C 
BRANCH  26  28
HETATM   28  N   UNK N   1      31.761  16.680   6.572  0.00  0.00     0.097 N 
HETATM   29  C   UNK N   1      32.270  17.417   5.408  0.00  0.00     0.299 C 
HETATM   30  C   UNK N   1      33.406  16.613   4.777  0.00  0.00     0.198 C 
HETATM   31  O   UNK N   1      34.457  16.502   5.705  0.00  0.00    -0.388 OA
HETATM   32  C   UNK N   1      33.993  15.673   6.743  0.00  0.00     0.198 C 
HETATM   33  C   UNK N   1      32.863  16.375   7.500  0.00  0.00     0.299 C 
ENDBRANCH  26  28
ENDBRANCH   2  21
TORSDOF 6
ENDMDL
MODEL 3
REMARK VINA RESULT:      -7.9      2.701      3.147
REMARK  6 active torsions:
REMARK  status: ('A' for Active; 'I' for Inactive)
REMARK    1  A    between atoms: C_5  and  C_6 
REMARK    2  A    between atoms: C_6  and  O_7 
REMARK    3  A    between atoms: O_7  and  C_8 
REMARK    4  A    between atoms: C_16  and  N_17 
REMARK       I    between atoms: N_17  and  C_18 
REMARK    5  A    between atoms: C_18  and  C_20 
REMARK    6  A    between atoms: C_25  and  N_27 
ROOT
HETATM    1  N   UNK N   1      34.518  14.142  10.334  0.00  0.00    -0.323 N 
HETATM    2  C   UNK N   1      34.583  15.459  10.001  0.00  0.00     0.252 C 
HETATM    3  O   UNK N   1      35.302  16.232  10.620  0.00  0.00    -0.268 OA
HETATM    4  H   UNK N   1      33.858  13.594   9.853  0.00  0.00     0.169 HD
ENDROOT
BRANCH   1   5
HETATM    5  C   UNK N   1      35.311  13.480  11.311  0.00  0.00     0.035 A 
HETATM    6  C   UNK N   1      36.333  12.633  10.877  0.00  0.00     0.031 A 
HETATM    7  C   UNK N   1      37.190  12.029  11.796  0.00  0.00     0.026 A 
HETATM    8  C   UNK N   1      37.040  12.271  13.164  0.00  0.00     0.042 A 
HETATM    9 Cl   UNK N   1      38.160  11.513  14.285  0.00  0.00    -0.084 Cl
HETATM   10  C   UNK N   1      36.018  13.125  13.617  0.00  0.00    -0.010 A 
HETATM   11  C   UNK N   1      35.164  13.729  12.685  0.00  0.00     0.040 A 
BRANCH  10  12
HETATM   12  C   UNK N   1      35.875  13.403  15.083  0.00  0.00     0.216 C 
BRANCH  12  13
HETATM   13  O   UNK N   1      35.444  12.296  15.786  0.00  0.00    -0.345 OA
BRANCH  13  14
HETATM   14  C   UNK N   1      35.374  12.281  17.137  0.00  0.00     0.084 A 
HETATM   15  C   UNK N   1      35.195  13.482  17.831  0.00  0.00     0.124 A 
HETATM   16  N   UNK N   1      35.144  13.487  19.192  0.00  0.00    -0.373 N 
HETATM   17  C   UNK N   1      35.263  12.338  19.912  0.00  0.00     0.088 A 
ATOM     18  HN  UNK N   1      35.013  14.371  19.682  1.00  0.00     0.164 HD
HETATM   19  C   UNK N   1      35.441  11.117  19.262  0.00  0.00     0.020 A 
HETATM   20  C   UNK N   1      35.499  11.090  17.870  0.00  0.00     0.039 A 
ENDBRANCH  13  14
ENDBRANCH  12  13
ENDBRANCH  10  12
ENDBRANCH   1   5
BRANCH   2  21
HETATM   21  C   UNK N   1      33.881  15.931   8.793  0.00  0.00     0.011 C 
HETATM   22  C   UNK N   1      34.559  16.614   7.850  0.00  0.00     0.022 C 
HETATM   23  C   UNK N   1      33.877  17.376   6.736  0.00  0.00     0.195 C 
HETATM   24  F   UNK N   1      34.243  16.854   5.509  0.00  0.00    -0.245 F 
HETATM   25  C   UNK N   1      32.340  17.413   6.843  0.00  0.00     0.077 C 
HETATM   26  C   UNK N   1      31.841  17.207   8.284  0.00  0.00     0.230 C 
HETATM   27  C   UNK N   1      32.382  15.846   8.729  0.00  0.00     0.080 C 
BRANCH  26  28
HETATM   28  N   UNK N   1      30.373  17.296   8.374  0.00  0.00     0.097 N 
HETATM   29  C   UNK N   1      29.923  18.434   9.186  0.00  0.00     0.299 C 
HETATM   30  C   UNK N   1      28.395  18.462   9.185  0.00  0.00     0.198 C 
HETATM   31  O   UNK N   1      27.944  18.671   7.870  0.00  0.00    -0.388 OA
HETATM   32  C   UNK N   1      28.259  17.508   7.145  0.00  0.00     0.198 C 
HETATM   33  C   UNK N   1      29.779  17.368   7.029  0.00  0.00     0.299 C 
ENDBRANCH  26  28
ENDBRANCH   2  21
TORSDOF 6
ENDMDL
MODEL 4
REMARK VINA RESULT:      -7.8      6.057      9.437
REMARK  6 active torsions:
REMARK  status: ('A' for Active; 'I' for Inactive)
REMARK    1  A    between atoms: C_5  and  C_6 
REMARK    2  A    between atoms: C_6  and  O_7 
REMARK    3  A    between atoms: O_7  and  C_8 
REMARK    4  A    between atoms: C_16  and  N_17 
REMARK       I    between atoms: N_17  and  C_18 
REMARK    5  A    between atoms: C_18  and  C_20 
REMARK    6  A    between atoms: C_25  and  N_27 
ROOT
HETATM    1  N   UNK N   1      30.349  17.987   4.329  0.00  0.00    -0.323 N 
HETATM    2  C   UNK N   1      29.103  17.770   4.829  0.00  0.00     0.252 C 
HETATM    3  O   UNK N   1      28.786  16.679   5.284  0.00  0.00    -0.268 OA
HETATM    4  H   UNK N   1      30.510  18.858   3.900  0.00  0.00     0.169 HD
ENDROOT
BRANCH   1   5
HETATM    5  C   UNK N   1      31.440  17.077   4.364  0.00  0.00     0.035 A 
HETATM    6  C   UNK N   1      31.604  16.193   3.294  0.00  0.00     0.031 A 
HETATM    7  C   UNK N   1      32.707  15.342   3.244  0.00  0.00     0.026 A 
HETATM    8  C   UNK N   1      33.665  15.368   4.260  0.00  0.00     0.042 A 
HETATM    9 Cl   UNK N   1      35.054  14.299   4.142  0.00  0.00    -0.084 Cl
HETATM   10  C   UNK N   1      33.516  16.254   5.341  0.00  0.00    -0.010 A 
HETATM   11  C   UNK N   1      32.406  17.109   5.382  0.00  0.00     0.040 A 
BRANCH  10  12
HETATM   12  C   UNK N   1      34.559  16.299   6.419  0.00  0.00     0.216 C 
BRANCH  12  13
HETATM   13  O   UNK N   1      34.332  15.360   7.404  0.00  0.00    -0.345 OA
BRANCH  13  14
HETATM   14  C   UNK N   1      34.668  15.576   8.698  0.00  0.00     0.084 A 
HETATM   15  C   UNK N   1      34.651  16.879   9.205  0.00  0.00     0.124 A 
HETATM   16  N   UNK N   1      35.007  17.115  10.498  0.00  0.00    -0.373 N 
HETATM   17  C   UNK N   1      35.383  16.105  11.329  0.00  0.00     0.088 A 
ATOM     18  HN  UNK N   1      34.989  18.071  10.852  1.00  0.00     0.164 HD
HETATM   19  C   UNK N   1      35.412  14.789  10.866  0.00  0.00     0.020 A 
HETATM   20  C   UNK N   1      35.055  14.525   9.545  0.00  0.00     0.039 A 
ENDBRANCH  13  14
ENDBRANCH  12  13
ENDBRANCH  10  12
ENDBRANCH   1   5
BRANCH   2  21
HETATM   21  C   UNK N   1      28.167  18.904   4.945  0.00  0.00     0.011 C 
HETATM   22  C   UNK N   1      28.223  19.709   6.025  0.00  0.00     0.022 C 
HETATM   23  C   UNK N   1      27.136  20.703   6.367  0.00  0.00     0.195 C 
HETATM   24  F   UNK N   1      27.646  21.988   6.355  0.00  0.00    -0.245 F 
HETATM   25  C   UNK N   1      25.900  20.629   5.452  0.00  0.00     0.077 C 
HETATM   26  C   UNK N   1      25.737  19.253   4.783  0.00  0.00     0.230 C 
HETATM   27  C   UNK N   1      27.020  19.018   3.981  0.00  0.00     0.080 C 
BRANCH  26  28
HETATM   28  N   UNK N   1      24.523  19.187   3.952  0.00  0.00     0.097 N 
HETATM   29  C   UNK N   1      23.364  18.659   4.683  0.00  0.00     0.299 C 
HETATM   30  C   UNK N   1      22.153  18.667   3.751  0.00  0.00     0.198 C 
HETATM   31  O   UNK N   1      21.862  19.995   3.393  0.00  0.00    -0.388 OA
HETATM   32  C   UNK N   1      22.919  20.433   2.574  0.00  0.00     0.198 C 
HETATM   33  C   UNK N   1      24.209  20.513   3.394  0.00  0.00     0.299 C 
ENDBRANCH  26  28
ENDBRANCH   2  21
TORSDOF 6
ENDMDL
MODEL 5
REMARK VINA RESULT:      -7.8      7.844     10.955
REMARK  6 active torsions:
REMARK  status: ('A' for Active; 'I' for Inactive)
REMARK    1  A    between atoms: C_5  and  C_6 
REMARK    2  A    between atoms: C_6  and  O_7 
REMARK    3  A    between atoms: O_7  and  C_8 
REMARK    4  A    between atoms: C_16  and  N_17 
REMARK       I    between atoms: N_17  and  C_18 
REMARK    5  A    between atoms: C_18  and  C_20 
REMARK    6  A    between atoms: C_25  and  N_27 
ROOT
HETATM    1  N   UNK N   1      28.163  16.516   6.001  0.00  0.00    -0.323 N 
HETATM    2  C   UNK N   1      28.863  17.259   6.899  0.00  0.00     0.252 C 
HETATM    3  O   UNK N   1      28.314  17.747   7.879  0.00  0.00    -0.268 OA
HETATM    4  H   UNK N   1      28.644  16.226   5.193  0.00  0.00     0.169 HD
ENDROOT
BRANCH   1   5
HETATM    5  C   UNK N   1      26.802  16.119   6.115  0.00  0.00     0.035 A 
HETATM    6  C   UNK N   1      25.834  16.860   5.434  0.00  0.00     0.031 A 
HETATM    7  C   UNK N   1      24.499  16.459   5.446  0.00  0.00     0.026 A 
HETATM    8  C   UNK N   1      24.115  15.306   6.136  0.00  0.00     0.042 A 
HETATM    9 Cl   UNK N   1      22.427  14.821   6.101  0.00  0.00    -0.084 Cl
HETATM   10  C   UNK N   1      25.079  14.547   6.823  0.00  0.00    -0.010 A 
HETATM   11  C   UNK N   1      26.420  14.956   6.802  0.00  0.00     0.040 A 
BRANCH  10  12
HETATM   12  C   UNK N   1      24.670  13.296   7.542  0.00  0.00     0.216 C 
BRANCH  12  13
HETATM   13  O   UNK N   1      24.620  13.472   8.909  0.00  0.00    -0.345 OA
BRANCH  13  14
HETATM   14  C   UNK N   1      23.555  13.081   9.648  0.00  0.00     0.084 A 
HETATM   15  C   UNK N   1      23.727  12.124  10.653  0.00  0.00     0.124 A 
HETATM   16  N   UNK N   1      22.662  11.705  11.391  0.00  0.00    -0.373 N 
HETATM   17  C   UNK N   1      21.411  12.199  11.179  0.00  0.00     0.088 A 
ATOM     18  HN  UNK N   1      22.806  11.006  12.119  1.00  0.00     0.164 HD
HETATM   19  C   UNK N   1      21.194  13.158  10.189  0.00  0.00     0.020 A 
HETATM   20  C   UNK N   1      22.269  13.598   9.421  0.00  0.00     0.039 A 
ENDBRANCH  13  14
ENDBRANCH  12  13
ENDBRANCH  10  12
ENDBRANCH   1   5
BRANCH   2  21
HETATM   21  C   UNK N   1      30.327  17.363   6.761  0.00  0.00     0.011 C 
HETATM   22  C   UNK N   1      30.901  17.166   5.557  0.00  0.00     0.022 C 
HETATM   23  C   UNK N   1      32.389  16.969   5.377  0.00  0.00     0.195 C 
HETATM   24  F   UNK N   1      32.911  17.978   4.589  0.00  0.00    -0.245 F 
HETATM   25  C   UNK N   1      33.180  16.882   6.697  0.00  0.00     0.077 C 
HETATM   26  C   UNK N   1      32.310  16.433   7.882  0.00  0.00     0.230 C 
HETATM   27  C   UNK N   1      31.181  17.462   7.993  0.00  0.00     0.080 C 
BRANCH  26  28
HETATM   28  N   UNK N   1      33.094  16.308   9.123  0.00  0.00     0.097 N 
HETATM   29  C   UNK N   1      33.324  14.911   9.510  0.00  0.00     0.299 C 
HETATM   30  C   UNK N   1      34.174  14.887  10.780  0.00  0.00     0.198 C 
HETATM   31  O   UNK N   1      35.426  15.464  10.500  0.00  0.00    -0.388 OA
HETATM   32  C   UNK N   1      35.198  16.834  10.272  0.00  0.00     0.198 C 
HETATM   33  C   UNK N   1      34.379  17.015   8.992  0.00  0.00     0.299 C 
ENDBRANCH  26  28
ENDBRANCH   2  21
TORSDOF 6
ENDMDL
MODEL 6
REMARK VINA RESULT:      -7.6      3.015      3.716
REMARK  6 active torsions:
REMARK  status: ('A' for Active; 'I' for Inactive)
REMARK    1  A    between atoms: C_5  and  C_6 
REMARK    2  A    between atoms: C_6  and  O_7 
REMARK    3  A    between atoms: O_7  and  C_8 
REMARK    4  A    between atoms: C_16  and  N_17 
REMARK       I    between atoms: N_17  and  C_18 
REMARK    5  A    between atoms: C_18  and  C_20 
REMARK    6  A    between atoms: C_25  and  N_27 
ROOT
HETATM    1  N   UNK N   1      32.847  15.735   9.377  0.00  0.00    -0.323 N 
HETATM    2  C   UNK N   1      32.799  16.967   8.804  0.00  0.00     0.252 C 
HETATM    3  O   UNK N   1      33.804  17.658   8.708  0.00  0.00    -0.268 OA
HETATM    4  H   UNK N   1      31.990  15.268   9.500  0.00  0.00     0.169 HD
ENDROOT
BRANCH   1   5
HETATM    5  C   UNK N   1      34.016  15.055   9.816  0.00  0.00     0.035 A 
HETATM    6  C   UNK N   1      34.857  14.487   8.856  0.00  0.00     0.031 A 
HETATM    7  C   UNK N   1      36.057  13.886   9.233  0.00  0.00     0.026 A 
HETATM    8  C   UNK N   1      36.435  13.850  10.578  0.00  0.00     0.042 A 
HETATM    9 Cl   UNK N   1      37.969  13.109  11.005  0.00  0.00    -0.084 Cl
HETATM   10  C   UNK N   1      35.602  14.421  11.556  0.00  0.00    -0.010 A 
HETATM   11  C   UNK N   1      34.399  15.027  11.167  0.00  0.00     0.040 A 
BRANCH  10  12
HETATM   12  C   UNK N   1      36.022  14.405  12.996  0.00  0.00     0.216 C 
BRANCH  12  13
HETATM   13  O   UNK N   1      35.085  13.799  13.807  0.00  0.00    -0.345 OA
BRANCH  13  14
HETATM   14  C   UNK N   1      35.428  12.909  14.766  0.00  0.00     0.084 A 
HETATM   15  C   UNK N   1      36.332  11.885  14.465  0.00  0.00     0.124 A 
HETATM   16  N   UNK N   1      36.672  10.969  15.413  0.00  0.00    -0.373 N 
HETATM   17  C   UNK N   1      36.151  11.019  16.669  0.00  0.00     0.088 A 
ATOM     18  HN  UNK N   1      37.331  10.228  15.175  1.00  0.00     0.164 HD
HETATM   19  C   UNK N   1      35.248  12.024  17.016  0.00  0.00     0.020 A 
HETATM   20  C   UNK N   1      34.885  12.971  16.059  0.00  0.00     0.039 A 
ENDBRANCH  13  14
ENDBRANCH  12  13
ENDBRANCH  10  12
ENDBRANCH   1   5
BRANCH   2  21
HETATM   21  C   UNK N   1      31.546  17.417   8.170  0.00  0.00     0.011 C 
HETATM   22  C   UNK N   1      30.557  17.927   8.931  0.00  0.00     0.022 C 
HETATM   23  C   UNK N   1      29.151  18.142   8.418  0.00  0.00     0.195 C 
HETATM   24  F   UNK N   1      28.825  19.484   8.473  0.00  0.00    -0.245 F 
HETATM   25  C   UNK N   1      28.910  17.609   6.992  0.00  0.00     0.077 C 
HETATM   26  C   UNK N   1      29.892  16.492   6.602  0.00  0.00     0.230 C 
HETATM   27  C   UNK N   1      31.293  17.097   6.724  0.00  0.00     0.080 C 
BRANCH  26  28
HETATM   28  N   UNK N   1      29.613  15.962   5.255  0.00  0.00     0.097 N 
HETATM   29  C   UNK N   1      28.718  16.830   4.479  0.00  0.00     0.299 C 
HETATM   30  C   UNK N   1      28.523  16.218   3.093  0.00  0.00     0.198 C 
HETATM   31  O   UNK N   1      29.763  16.184   2.431  0.00  0.00    -0.388 OA
HETATM   32  C   UNK N   1      30.556  15.239   3.108  0.00  0.00     0.198 C 
HETATM   33  C   UNK N   1      30.869  15.743   4.519  0.00  0.00     0.299 C 
ENDBRANCH  26  28
ENDBRANCH   2  21
TORSDOF 6
ENDMDL
MODEL 7
REMARK VINA RESULT:      -7.5      3.352      5.475
REMARK  6 active torsions:
REMARK  status: ('A' for Active; 'I' for Inactive)
REMARK    1  A    between atoms: C_5  and  C_6 
REMARK    2  A    between atoms: C_6  and  O_7 
REMARK    3  A    between atoms: O_7  and  C_8 
REMARK    4  A    between atoms: C_16  and  N_17 
REMARK       I    between atoms: N_17  and  C_18 
REMARK    5  A    between atoms: C_18  and  C_20 
REMARK    6  A    between atoms: C_25  and  N_27 
ROOT
HETATM    1  N   UNK N   1      36.423  12.452  14.493  0.00  0.00    -0.323 N 
HETATM    2  C   UNK N   1      35.565  12.499  13.440  0.00  0.00     0.252 C 
HETATM    3  O   UNK N   1      34.353  12.448  13.610  0.00  0.00    -0.268 OA
HETATM    4  H   UNK N   1      37.383  12.410  14.283  0.00  0.00     0.169 HD
ENDROOT
BRANCH   1   5
HETATM    5  C   UNK N   1      36.068  12.457  15.870  0.00  0.00     0.035 A 
HETATM    6  C   UNK N   1      35.707  13.670  16.460  0.00  0.00     0.031 A 
HETATM    7  C   UNK N   1      35.270  13.710  17.783  0.00  0.00     0.026 A 
HETATM    8  C   UNK N   1      35.182  12.535  18.533  0.00  0.00     0.042 A 
HETATM    9 Cl   UNK N   1      34.598  12.627  20.187  0.00  0.00    -0.084 Cl
HETATM   10  C   UNK N   1      35.537  11.305  17.951  0.00  0.00    -0.010 A 
HETATM   11  C   UNK N   1      35.973  11.273  16.620  0.00  0.00     0.040 A 
BRANCH  10  12
HETATM   12  C   UNK N   1      35.417  10.040  18.749  0.00  0.00     0.216 C 
BRANCH  12  13
HETATM   13  O   UNK N   1      34.145   9.508  18.697  0.00  0.00    -0.345 OA
BRANCH  13  14
HETATM   14  C   UNK N   1      33.490   9.093  19.806  0.00  0.00     0.084 A 
HETATM   15  C   UNK N   1      34.126   9.166  21.050  0.00  0.00     0.124 A 
HETATM   16  N   UNK N   1      33.489   8.733  22.172  0.00  0.00    -0.373 N 
HETATM   17  C   UNK N   1      32.228   8.223  22.123  0.00  0.00     0.088 A 
ATOM     18  HN  UNK N   1      33.968   8.792  23.070  1.00  0.00     0.164 HD
HETATM   19  C   UNK N   1      31.554   8.135  20.904  0.00  0.00     0.020 A 
HETATM   20  C   UNK N   1      32.189   8.570  19.742  0.00  0.00     0.039 A 
ENDBRANCH  13  14
ENDBRANCH  12  13
ENDBRANCH  10  12
ENDBRANCH   1   5
BRANCH   2  21
HETATM   21  C   UNK N   1      36.098  12.749  12.088  0.00  0.00     0.011 C 
HETATM   22  C   UNK N   1      37.426  12.682  11.870  0.00  0.00     0.022 C 
HETATM   23  C   UNK N   1      38.080  13.198  10.608  0.00  0.00     0.195 C 
HETATM   24  F   UNK N   1      38.708  12.163   9.940  0.00  0.00    -0.245 F 
HETATM   25  C   UNK N   1      37.118  13.923   9.648  0.00  0.00     0.077 C 
HETATM   26  C   UNK N   1      35.880  14.491  10.364  0.00  0.00     0.230 C 
HETATM   27  C   UNK N   1      35.188  13.295  11.024  0.00  0.00     0.080 C 
BRANCH  26  28
HETATM   28  N   UNK N   1      34.998  15.223   9.439  0.00  0.00     0.097 N 
HETATM   29  C   UNK N   1      33.612  14.741   9.477  0.00  0.00     0.299 C 
HETATM   30  C   UNK N   1      32.773  15.585   8.517  0.00  0.00     0.198 C 
HETATM   31  O   UNK N   1      32.775  16.918   8.963  0.00  0.00    -0.388 OA
HETATM   32  C   UNK N   1      34.083  17.404   8.782  0.00  0.00     0.198 C 
HETATM   33  C   UNK N   1      35.041  16.667   9.722  0.00  0.00     0.299 C 
ENDBRANCH  26  28
ENDBRANCH   2  21
TORSDOF 6
ENDMDL
MODEL 8
REMARK VINA RESULT:      -7.5      6.650     10.150
REMARK  6 active torsions:
REMARK  status: ('A' for Active; 'I' for Inactive)
REMARK    1  A    between atoms: C_5  and  C_6 
REMARK    2  A    between atoms: C_6  and  O_7 
REMARK    3  A    between atoms: O_7  and  C_8 
REMARK    4  A    between atoms: C_16  and  N_17 
REMARK       I    between atoms: N_17  and  C_18 
REMARK    5  A    between atoms: C_18  and  C_20 
REMARK    6  A    between atoms: C_25  and  N_27 
ROOT
HETATM    1  N   UNK N   1      29.238  17.436   3.625  0.00  0.00    -0.323 N 
HETATM    2  C   UNK N   1      28.049  17.408   4.285  0.00  0.00     0.252 C 
HETATM    3  O   UNK N   1      27.919  16.774   5.324  0.00  0.00    -0.268 OA
HETATM    4  H   UNK N   1      29.252  17.892   2.753  0.00  0.00     0.169 HD
ENDROOT
BRANCH   1   5
HETATM    5  C   UNK N   1      30.463  16.871   4.073  0.00  0.00     0.035 A 
HETATM    6  C   UNK N   1      30.962  15.750   3.404  0.00  0.00     0.031 A 
HETATM    7  C   UNK N   1      32.201  15.213   3.752  0.00  0.00     0.026 A 
HETATM    8  C   UNK N   1      32.960  15.793   4.771  0.00  0.00     0.042 A 
HETATM    9 Cl   UNK N   1      34.528  15.102   5.156  0.00  0.00    -0.084 Cl
HETATM   10  C   UNK N   1      32.473  16.924   5.451  0.00  0.00    -0.010 A 
HETATM   11  C   UNK N   1      31.228  17.459   5.092  0.00  0.00     0.040 A 
BRANCH  10  12
HETATM   12  C   UNK N   1      33.301  17.561   6.526  0.00  0.00     0.216 C 
BRANCH  12  13
HETATM   13  O   UNK N   1      32.713  17.456   7.770  0.00  0.00    -0.345 OA
BRANCH  13  14
HETATM   14  C   UNK N   1      33.232  16.679   8.750  0.00  0.00     0.084 A 
HETATM   15  C   UNK N   1      32.429  15.711   9.360  0.00  0.00     0.124 A 
HETATM   16  N   UNK N   1      32.929  14.937  10.362  0.00  0.00    -0.373 N 
HETATM   17  C   UNK N   1      34.211  15.077  10.797  0.00  0.00     0.088 A 
ATOM     18  HN  UNK N   1      32.329  14.236  10.796  1.00  0.00     0.164 HD
HETATM   19  C   UNK N   1      35.050  16.029  10.216  0.00  0.00     0.020 A 
HETATM   20  C   UNK N   1      34.557  16.833   9.190  0.00  0.00     0.039 A 
ENDBRANCH  13  14
ENDBRANCH  12  13
ENDBRANCH  10  12
ENDBRANCH   1   5
BRANCH   2  21
HETATM   21  C   UNK N   1      26.943  18.261   3.812  0.00  0.00     0.011 C 
HETATM   22  C   UNK N   1      27.118  19.594   3.723  0.00  0.00     0.022 C 
HETATM   23  C   UNK N   1      25.973  20.563   3.529  0.00  0.00     0.195 C 
HETATM   24  F   UNK N   1      26.128  21.250   2.339  0.00  0.00    -0.245 F 
HETATM   25  C   UNK N   1      24.578  19.911   3.572  0.00  0.00     0.077 C 
HETATM   26  C   UNK N   1      24.566  18.586   4.354  0.00  0.00     0.230 C 
HETATM   27  C   UNK N   1      25.571  17.670   3.650  0.00  0.00     0.080 C 
BRANCH  26  28
HETATM   28  N   UNK N   1      23.214  18.004   4.425  0.00  0.00     0.097 N 
HETATM   29  C   UNK N   1      22.196  18.858   3.800  0.00  0.00     0.299 C 
HETATM   30  C   UNK N   1      20.843  18.153   3.891  0.00  0.00     0.198 C 
HETATM   31  O   UNK N   1      20.904  16.954   3.157  0.00  0.00    -0.388 OA
HETATM   32  C   UNK N   1      21.777  16.098   3.854  0.00  0.00     0.198 C 
HETATM   33  C   UNK N   1      23.198  16.666   3.813  0.00  0.00     0.299 C 
ENDBRANCH  26  28
ENDBRANCH   2  21
TORSDOF 6
ENDMDL
MODEL 9
REMARK VINA RESULT:      -7.3     17.725     20.970
REMARK  6 active torsions:
REMARK  status: ('A' for Active; 'I' for Inactive)
REMARK    1  A    between atoms: C_5  and  C_6 
REMARK    2  A    between atoms: C_6  and  O_7 
REMARK    3  A    between atoms: O_7  and  C_8 
REMARK    4  A    between atoms: C_16  and  N_17 
REMARK       I    between atoms: N_17  and  C_18 
REMARK    5  A    between atoms: C_18  and  C_20 
REMARK    6  A    between atoms: C_25  and  N_27 
ROOT
HETATM    1  N   UNK N   1      30.973  24.473  -3.959  0.00  0.00    -0.323 N 
HETATM    2  C   UNK N   1      30.989  23.418  -3.100  0.00  0.00     0.252 C 
HETATM    3  O   UNK N   1      30.511  23.512  -1.977  0.00  0.00    -0.268 OA
HETATM    4  H   UNK N   1      31.449  24.358  -4.813  0.00  0.00     0.169 HD
ENDROOT
BRANCH   1   5
HETATM    5  C   UNK N   1      30.337  25.726  -3.743  0.00  0.00     0.035 A 
HETATM    6  C   UNK N   1      31.113  26.798  -3.297  0.00  0.00     0.031 A 
HETATM    7  C   UNK N   1      30.551  28.066  -3.153  0.00  0.00     0.026 A 
HETATM    8  C   UNK N   1      29.204  28.279  -3.459  0.00  0.00     0.042 A 
HETATM    9 Cl   UNK N   1      28.545  29.898  -3.291  0.00  0.00    -0.084 Cl
HETATM   10  C   UNK N   1      28.411  27.210  -3.913  0.00  0.00    -0.010 A 
HETATM   11  C   UNK N   1      28.985  25.940  -4.058  0.00  0.00     0.040 A 
BRANCH  10  12
HETATM   12  C   UNK N   1      26.973  27.447  -4.266  0.00  0.00     0.216 C 
BRANCH  12  13
HETATM   13  O   UNK N   1      26.292  26.270  -4.501  0.00  0.00    -0.345 OA
BRANCH  13  14
HETATM   14  C   UNK N   1      26.061  25.807  -5.752  0.00  0.00     0.084 A 
HETATM   15  C   UNK N   1      25.782  24.450  -5.944  0.00  0.00     0.124 A 
HETATM   16  N   UNK N   1      25.569  23.965  -7.198  0.00  0.00    -0.373 N 
HETATM   17  C   UNK N   1      25.616  24.774  -8.292  0.00  0.00     0.088 A 
ATOM     18  HN  UNK N   1      25.367  22.973  -7.320  1.00  0.00     0.164 HD
HETATM   19  C   UNK N   1      25.888  26.134  -8.147  0.00  0.00     0.020 A 
HETATM   20  C   UNK N   1      26.113  26.651  -6.873  0.00  0.00     0.039 A 
ENDBRANCH  13  14
ENDBRANCH  12  13
ENDBRANCH  10  12
ENDBRANCH   1   5
BRANCH   2  21
HETATM   21  C   UNK N   1      31.466  22.108  -3.578  0.00  0.00     0.011 C 
HETATM   22  C   UNK N   1      32.772  21.792  -3.470  0.00  0.00     0.022 C 
HETATM   23  C   UNK N   1      33.395  20.613  -4.182  0.00  0.00     0.195 C 
HETATM   24  F   UNK N   1      33.905  19.716  -3.262  0.00  0.00    -0.245 F 
HETATM   25  C   UNK N   1      32.442  19.879  -5.145  0.00  0.00     0.077 C 
HETATM   26  C   UNK N   1      31.292  20.773  -5.638  0.00  0.00     0.230 C 
HETATM   27  C   UNK N   1      30.545  21.234  -4.383  0.00  0.00     0.080 C 
BRANCH  26  28
HETATM   28  N   UNK N   1      30.420  20.069  -6.595  0.00  0.00     0.097 N 
HETATM   29  C   UNK N   1      29.328  20.914  -7.095  0.00  0.00     0.299 C 
HETATM   30  C   UNK N   1      28.509  20.111  -8.104  0.00  0.00     0.198 C 
HETATM   31  O   UNK N   1      29.330  19.782  -9.198  0.00  0.00    -0.388 OA
HETATM   32  C   UNK N   1      30.282  18.860  -8.726  0.00  0.00     0.198 C 
HETATM   33  C   UNK N   1      31.211  19.545  -7.720  0.00  0.00     0.299 C 
ENDBRANCH  26  28
ENDBRANCH   2  21
TORSDOF 6
ENDMDL
