MODEL 1
REMARK VINA RESULT:      -6.1      0.000      0.000
REMARK  2 active torsions:
REMARK  status: ('A' for Active; 'I' for Inactive)
REMARK    1  A    between atoms: N_1  and  N_2 
REMARK    2  A    between atoms: C_8  and  C_9 
ROOT
HETATM    1  N   UNK N   1      35.387  13.179  13.677  0.00  0.00    -0.217 N 
HETATM    2  C   UNK N   1      35.913  14.132  12.888  0.00  0.00     0.213 A 
HETATM    3  S   UNK N   1      35.596  14.318  11.500  0.00  0.00    -0.037 SA
HETATM    4  N   UNK N   1      36.776  14.903  13.561  0.00  0.00    -0.273 N 
HETATM    5  N   UNK N   1      36.810  14.446  14.806  0.00  0.00    -0.281 N 
ATOM      6  HN  UNK N   1      37.374  14.822  15.568  1.00  0.00     0.188 HD
HETATM    7  C   UNK N   1      35.962  13.391  14.889  0.00  0.00     0.154 A 
HETATM    8  H   UNK N   1      37.288  15.663  13.202  0.00  0.00     0.189 HD
ENDROOT
BRANCH   7   9
HETATM    9  C   UNK N   1      35.794  12.656  16.193  0.00  0.00     0.017 A 
HETATM   10  C   UNK N   1      35.276  13.440  17.241  0.00  0.00     0.016 A 
HETATM   11  C   UNK N   1      35.076  12.926  18.519  0.00  0.00     0.001 A 
HETATM   12  C   UNK N   1      35.398  11.603  18.790  0.00  0.00     0.001 A 
HETATM   13  C   UNK N   1      35.905  10.793  17.778  0.00  0.00     0.007 A 
HETATM   14  C   UNK N   1      36.105  11.289  16.485  0.00  0.00    -0.048 A 
HETATM   15  C   UNK N   1      36.651  10.318  15.509  0.00  0.00     0.049 C 
ENDBRANCH   7   9
BRANCH   1  16
HETATM   16  N   UNK N   1      34.450  12.222  13.274  0.00  0.00    -0.335 N 
HETATM   17  H   UNK N   1      33.516  12.287  13.579  0.00  0.00     0.177 HD
HETATM   18  H   UNK N   1      34.725  11.482  12.685  0.00  0.00     0.177 HD
ENDBRANCH   1  16
TORSDOF 2
ENDMDL
MODEL 2
REMARK VINA RESULT:      -5.8      0.625      1.937
REMARK  2 active torsions:
REMARK  status: ('A' for Active; 'I' for Inactive)
REMARK    1  A    between atoms: N_1  and  N_2 
REMARK    2  A    between atoms: C_8  and  C_9 
ROOT
HETATM    1  N   UNK N   1      35.456  13.161  13.641  0.00  0.00    -0.217 N 
HETATM    2  C   UNK N   1      35.894  14.272  13.023  0.00  0.00     0.213 A 
HETATM    3  S   UNK N   1      35.458  14.722  11.731  0.00  0.00    -0.037 SA
HETATM    4  N   UNK N   1      36.796  14.923  13.769  0.00  0.00    -0.273 N 
HETATM    5  N   UNK N   1      36.943  14.226  14.888  0.00  0.00    -0.281 N 
ATOM      6  HN  UNK N   1      37.562  14.462  15.665  1.00  0.00     0.188 HD
HETATM    7  C   UNK N   1      36.127  13.146  14.821  0.00  0.00     0.154 A 
HETATM    8  H   UNK N   1      37.261  15.758  13.533  0.00  0.00     0.189 HD
ENDROOT
BRANCH   7   9
HETATM    9  C   UNK N   1      36.084  12.157  15.957  0.00  0.00     0.017 A 
HETATM   10  C   UNK N   1      36.662  10.908  15.665  0.00  0.00     0.016 A 
HETATM   11  C   UNK N   1      36.690   9.872  16.593  0.00  0.00     0.001 A 
HETATM   12  C   UNK N   1      36.129  10.054  17.850  0.00  0.00     0.001 A 
HETATM   13  C   UNK N   1      35.555  11.278  18.180  0.00  0.00     0.007 A 
HETATM   14  C   UNK N   1      35.524  12.335  17.263  0.00  0.00    -0.048 A 
HETATM   15  C   UNK N   1      34.881  13.578  17.747  0.00  0.00     0.049 C 
ENDBRANCH   7   9
BRANCH   1  16
HETATM   16  N   UNK N   1      34.508  12.271  13.126  0.00  0.00    -0.335 N 
HETATM   17  H   UNK N   1      33.549  12.485  13.183  0.00  0.00     0.177 HD
HETATM   18  H   UNK N   1      34.801  11.430  12.705  0.00  0.00     0.177 HD
ENDBRANCH   1  16
TORSDOF 2
ENDMDL
MODEL 3
REMARK VINA RESULT:      -5.5      1.665      2.259
REMARK  2 active torsions:
REMARK  status: ('A' for Active; 'I' for Inactive)
REMARK    1  A    between atoms: N_1  and  N_2 
REMARK    2  A    between atoms: C_8  and  C_9 
ROOT
HETATM    1  N   UNK N   1      36.225  12.035  14.240  0.00  0.00    -0.217 N 
HETATM    2  C   UNK N   1      35.615  11.857  13.055  0.00  0.00     0.213 A 
HETATM    3  S   UNK N   1      36.271  11.886  11.778  0.00  0.00    -0.037 SA
HETATM    4  N   UNK N   1      34.302  11.639  13.209  0.00  0.00    -0.273 N 
HETATM    5  N   UNK N   1      34.057  11.674  14.512  0.00  0.00    -0.281 N 
ATOM      6  HN  UNK N   1      33.148  11.542  14.956  1.00  0.00     0.188 HD
HETATM    7  C   UNK N   1      35.228  11.915  15.153  0.00  0.00     0.154 A 
HETATM    8  H   UNK N   1      33.644  11.483  12.493  0.00  0.00     0.189 HD
ENDROOT
BRANCH   7   9
HETATM    9  C   UNK N   1      35.261  12.017  16.656  0.00  0.00     0.017 A 
HETATM   10  C   UNK N   1      35.092  13.321  17.155  0.00  0.00     0.016 A 
HETATM   11  C   UNK N   1      35.117  13.600  18.519  0.00  0.00     0.001 A 
HETATM   12  C   UNK N   1      35.319  12.572  19.431  0.00  0.00     0.001 A 
HETATM   13  C   UNK N   1      35.482  11.267  18.976  0.00  0.00     0.007 A 
HETATM   14  C   UNK N   1      35.452  10.966  17.610  0.00  0.00    -0.048 A 
HETATM   15  C   UNK N   1      35.640   9.537  17.269  0.00  0.00     0.049 C 
ENDBRANCH   7   9
BRANCH   1  16
HETATM   16  N   UNK N   1      37.591  12.276  14.417  0.00  0.00    -0.335 N 
HETATM   17  H   UNK N   1      38.252  11.620  14.097  0.00  0.00     0.177 HD
HETATM   18  H   UNK N   1      37.891  13.102  14.861  0.00  0.00     0.177 HD
ENDBRANCH   1  16
TORSDOF 2
ENDMDL
MODEL 4
REMARK VINA RESULT:      -5.5      1.139      2.036
REMARK  2 active torsions:
REMARK  status: ('A' for Active; 'I' for Inactive)
REMARK    1  A    between atoms: N_1  and  N_2 
REMARK    2  A    between atoms: C_8  and  C_9 
ROOT
HETATM    1  N   UNK N   1      35.918  14.263  13.273  0.00  0.00    -0.217 N 
HETATM    2  C   UNK N   1      35.379  14.461  12.058  0.00  0.00     0.213 A 
HETATM    3  S   UNK N   1      35.625  15.604  11.224  0.00  0.00    -0.037 SA
HETATM    4  N   UNK N   1      34.577  13.447  11.708  0.00  0.00    -0.273 N 
HETATM    5  N   UNK N   1      34.598  12.577  12.709  0.00  0.00    -0.281 N 
ATOM      6  HN  UNK N   1      34.088  11.695  12.748  1.00  0.00     0.188 HD
HETATM    7  C   UNK N   1      35.417  13.067  13.673  0.00  0.00     0.154 A 
HETATM    8  H   UNK N   1      34.069  13.362  10.868  0.00  0.00     0.189 HD
ENDROOT
BRANCH   7   9
HETATM    9  C   UNK N   1      35.634  12.292  14.947  0.00  0.00     0.017 A 
HETATM   10  C   UNK N   1      34.964  12.816  16.069  0.00  0.00     0.016 A 
HETATM   11  C   UNK N   1      35.071  12.237  17.330  0.00  0.00     0.001 A 
HETATM   12  C   UNK N   1      35.863  11.110  17.508  0.00  0.00     0.001 A 
HETATM   13  C   UNK N   1      36.534  10.557  16.421  0.00  0.00     0.007 A 
HETATM   14  C   UNK N   1      36.433  11.120  15.144  0.00  0.00    -0.048 A 
HETATM   15  C   UNK N   1      37.201  10.431  14.082  0.00  0.00     0.049 C 
ENDBRANCH   7   9
BRANCH   1  16
HETATM   16  N   UNK N   1      36.802  15.136  13.917  0.00  0.00    -0.335 N 
HETATM   17  H   UNK N   1      37.734  14.863  14.077  0.00  0.00     0.177 HD
HETATM   18  H   UNK N   1      36.491  16.023  14.210  0.00  0.00     0.177 HD
ENDBRANCH   1  16
TORSDOF 2
ENDMDL
MODEL 5
REMARK VINA RESULT:      -5.5      7.654     10.173
REMARK  2 active torsions:
REMARK  status: ('A' for Active; 'I' for Inactive)
REMARK    1  A    between atoms: N_1  and  N_2 
REMARK    2  A    between atoms: C_8  and  C_9 
ROOT
HETATM    1  N   UNK N   1      33.135  16.421   9.306  0.00  0.00    -0.217 N 
HETATM    2  C   UNK N   1      34.381  16.890   9.498  0.00  0.00     0.213 A 
HETATM    3  S   UNK N   1      35.357  16.300  10.370  0.00  0.00    -0.037 SA
HETATM    4  N   UNK N   1      34.609  17.987   8.763  0.00  0.00    -0.273 N 
HETATM    5  N   UNK N   1      33.497  18.232   8.083  0.00  0.00    -0.281 N 
ATOM      6  HN  UNK N   1      33.351  19.001   7.430  1.00  0.00     0.188 HD
HETATM    7  C   UNK N   1      32.588  17.279   8.407  0.00  0.00     0.154 A 
HETATM    8  H   UNK N   1      35.442  18.511   8.733  0.00  0.00     0.189 HD
ENDROOT
BRANCH   7   9
HETATM    9  C   UNK N   1      31.214  17.302   7.788  0.00  0.00     0.017 A 
HETATM   10  C   UNK N   1      31.127  16.660   6.539  0.00  0.00     0.016 A 
HETATM   11  C   UNK N   1      29.938  16.605   5.818  0.00  0.00     0.001 A 
HETATM   12  C   UNK N   1      28.792  17.203   6.327  0.00  0.00     0.001 A 
HETATM   13  C   UNK N   1      28.837  17.841   7.564  0.00  0.00     0.007 A 
HETATM   14  C   UNK N   1      30.021  17.899   8.308  0.00  0.00    -0.048 A 
HETATM   15  C   UNK N   1      29.924  18.610   9.603  0.00  0.00     0.049 C 
ENDBRANCH   7   9
BRANCH   1  16
HETATM   16  N   UNK N   1      32.594  15.288   9.922  0.00  0.00    -0.335 N 
HETATM   17  H   UNK N   1      33.168  14.511  10.115  0.00  0.00     0.177 HD
HETATM   18  H   UNK N   1      31.640  15.268  10.164  0.00  0.00     0.177 HD
ENDBRANCH   1  16
TORSDOF 2
ENDMDL
MODEL 6
REMARK VINA RESULT:      -5.4      6.109      9.334
REMARK  2 active torsions:
REMARK  status: ('A' for Active; 'I' for Inactive)
REMARK    1  A    between atoms: N_1  and  N_2 
REMARK    2  A    between atoms: C_8  and  C_9 
ROOT
HETATM    1  N   UNK N   1      34.132  15.176   9.764  0.00  0.00    -0.217 N 
HETATM    2  C   UNK N   1      34.846  15.500  10.857  0.00  0.00     0.213 A 
HETATM    3  S   UNK N   1      35.283  14.571  11.860  0.00  0.00    -0.037 SA
HETATM    4  N   UNK N   1      35.109  16.813  10.895  0.00  0.00    -0.273 N 
HETATM    5  N   UNK N   1      34.562  17.347   9.812  0.00  0.00    -0.281 N 
ATOM      6  HN  UNK N   1      34.588  18.333   9.551  1.00  0.00     0.188 HD
HETATM    7  C   UNK N   1      33.961  16.354   9.111  0.00  0.00     0.154 A 
HETATM    8  H   UNK N   1      35.614  17.290  11.594  0.00  0.00     0.189 HD
ENDROOT
BRANCH   7   9
HETATM    9  C   UNK N   1      33.242  16.663   7.824  0.00  0.00     0.017 A 
HETATM   10  C   UNK N   1      34.080  16.760   6.698  0.00  0.00     0.016 A 
HETATM   11  C   UNK N   1      33.585  17.060   5.432  0.00  0.00     0.001 A 
HETATM   12  C   UNK N   1      32.225  17.282   5.257  0.00  0.00     0.001 A 
HETATM   13  C   UNK N   1      31.363  17.188   6.345  0.00  0.00     0.007 A 
HETATM   14  C   UNK N   1      31.841  16.878   7.624  0.00  0.00    -0.048 A 
HETATM   15  C   UNK N   1      30.813  16.812   8.688  0.00  0.00     0.049 C 
ENDBRANCH   7   9
BRANCH   1  16
HETATM   16  N   UNK N   1      33.704  13.886   9.432  0.00  0.00    -0.335 N 
HETATM   17  H   UNK N   1      33.630  13.620   8.487  0.00  0.00     0.177 HD
HETATM   18  H   UNK N   1      33.478  13.244  10.144  0.00  0.00     0.177 HD
ENDBRANCH   1  16
TORSDOF 2
ENDMDL
MODEL 7
REMARK VINA RESULT:      -5.3     24.655     26.415
REMARK  2 active torsions:
REMARK  status: ('A' for Active; 'I' for Inactive)
REMARK    1  A    between atoms: N_1  and  N_2 
REMARK    2  A    between atoms: C_8  and  C_9 
ROOT
HETATM    1  N   UNK N   1      26.774  23.944  -7.424  0.00  0.00    -0.217 N 
HETATM    2  C   UNK N   1      26.416  22.729  -7.875  0.00  0.00     0.213 A 
HETATM    3  S   UNK N   1      26.969  22.084  -9.032  0.00  0.00    -0.037 SA
HETATM    4  N   UNK N   1      25.471  22.179  -7.100  0.00  0.00    -0.273 N 
HETATM    5  N   UNK N   1      25.214  23.048  -6.132  0.00  0.00    -0.281 N 
ATOM      6  HN  UNK N   1      24.539  22.923  -5.377  1.00  0.00     0.188 HD
HETATM    7  C   UNK N   1      26.007  24.133  -6.320  0.00  0.00     0.154 A 
HETATM    8  H   UNK N   1      25.049  21.298  -7.225  0.00  0.00     0.189 HD
ENDROOT
BRANCH   7   9
HETATM    9  C   UNK N   1      25.931  25.299  -5.369  0.00  0.00     0.017 A 
HETATM   10  C   UNK N   1      25.257  26.424  -5.881  0.00  0.00     0.016 A 
HETATM   11  C   UNK N   1      25.112  27.596  -5.145  0.00  0.00     0.001 A 
HETATM   12  C   UNK N   1      25.649  27.681  -3.867  0.00  0.00     0.001 A 
HETATM   13  C   UNK N   1      26.314  26.587  -3.323  0.00  0.00     0.007 A 
HETATM   14  C   UNK N   1      26.463  25.396  -4.044  0.00  0.00    -0.048 A 
HETATM   15  C   UNK N   1      27.194  24.315  -3.344  0.00  0.00     0.049 C 
ENDBRANCH   7   9
BRANCH   1  16
HETATM   16  N   UNK N   1      27.739  24.771  -8.008  0.00  0.00    -0.335 N 
HETATM   17  H   UNK N   1      28.463  25.148  -7.458  0.00  0.00     0.177 HD
HETATM   18  H   UNK N   1      27.694  24.975  -8.971  0.00  0.00     0.177 HD
ENDBRANCH   1  16
TORSDOF 2
ENDMDL
MODEL 8
REMARK VINA RESULT:      -5.3      2.062      2.538
REMARK  2 active torsions:
REMARK  status: ('A' for Active; 'I' for Inactive)
REMARK    1  A    between atoms: N_1  and  N_2 
REMARK    2  A    between atoms: C_8  and  C_9 
ROOT
HETATM    1  N   UNK N   1      35.685  13.640  11.559  0.00  0.00    -0.217 N 
HETATM    2  C   UNK N   1      36.681  13.782  10.667  0.00  0.00     0.213 A 
HETATM    3  S   UNK N   1      36.519  14.252   9.320  0.00  0.00    -0.037 SA
HETATM    4  N   UNK N   1      37.862  13.434  11.194  0.00  0.00    -0.273 N 
HETATM    5  N   UNK N   1      37.630  13.063  12.446  0.00  0.00    -0.281 N 
ATOM      6  HN  UNK N   1      38.329  12.743  13.116  1.00  0.00     0.188 HD
HETATM    7  C   UNK N   1      36.300  13.186  12.681  0.00  0.00     0.154 A 
HETATM    8  H   UNK N   1      38.736  13.451  10.740  0.00  0.00     0.189 HD
ENDROOT
BRANCH   7   9
HETATM    9  C   UNK N   1      35.733  12.826  14.030  0.00  0.00     0.017 A 
HETATM   10  C   UNK N   1      36.202  13.624  15.090  0.00  0.00     0.016 A 
HETATM   11  C   UNK N   1      35.798  13.416  16.405  0.00  0.00     0.001 A 
HETATM   12  C   UNK N   1      34.910  12.390  16.702  0.00  0.00     0.001 A 
HETATM   13  C   UNK N   1      34.418  11.585  15.679  0.00  0.00     0.007 A 
HETATM   14  C   UNK N   1      34.806  11.783  14.349  0.00  0.00    -0.048 A 
HETATM   15  C   UNK N   1      34.206  10.853  13.366  0.00  0.00     0.049 C 
ENDBRANCH   7   9
BRANCH   1  16
HETATM   16  N   UNK N   1      34.337  13.926  11.317  0.00  0.00    -0.335 N 
HETATM   17  H   UNK N   1      34.006  13.992  10.393  0.00  0.00     0.177 HD
HETATM   18  H   UNK N   1      33.720  14.059  12.073  0.00  0.00     0.177 HD
ENDBRANCH   1  16
TORSDOF 2
ENDMDL
MODEL 9
REMARK VINA RESULT:      -5.2     16.872     18.460
REMARK  2 active torsions:
REMARK  status: ('A' for Active; 'I' for Inactive)
REMARK    1  A    between atoms: N_1  and  N_2 
REMARK    2  A    between atoms: C_8  and  C_9 
ROOT
HETATM    1  N   UNK N   1      44.529  23.548   1.166  0.00  0.00    -0.217 N 
HETATM    2  C   UNK N   1      45.417  24.466   1.587  0.00  0.00     0.213 A 
HETATM    3  S   UNK N   1      46.447  25.048   0.773  0.00  0.00    -0.037 SA
HETATM    4  N   UNK N   1      45.218  24.784   2.872  0.00  0.00    -0.273 N 
HETATM    5  N   UNK N   1      44.187  24.064   3.292  0.00  0.00    -0.281 N 
ATOM      6  HN  UNK N   1      43.786  24.079   4.230  1.00  0.00     0.188 HD
HETATM    7  C   UNK N   1      43.756  23.304   2.255  0.00  0.00     0.154 A 
HETATM    8  H   UNK N   1      45.739  25.429   3.405  0.00  0.00     0.189 HD
ENDROOT
BRANCH   7   9
HETATM    9  C   UNK N   1      42.588  22.369   2.436  0.00  0.00     0.017 A 
HETATM   10  C   UNK N   1      42.869  21.230   3.215  0.00  0.00     0.016 A 
HETATM   11  C   UNK N   1      41.912  20.252   3.466  0.00  0.00     0.001 A 
HETATM   12  C   UNK N   1      40.636  20.382   2.934  0.00  0.00     0.001 A 
HETATM   13  C   UNK N   1      40.317  21.497   2.165  0.00  0.00     0.007 A 
HETATM   14  C   UNK N   1      41.263  22.496   1.909  0.00  0.00    -0.048 A 
HETATM   15  C   UNK N   1      40.788  23.624   1.076  0.00  0.00     0.049 C 
ENDBRANCH   7   9
BRANCH   1  16
HETATM   16  N   UNK N   1      44.468  23.015  -0.126  0.00  0.00    -0.335 N 
HETATM   17  H   UNK N   1      43.793  23.344  -0.763  0.00  0.00     0.177 HD
HETATM   18  H   UNK N   1      45.100  22.311  -0.398  0.00  0.00     0.177 HD
ENDBRANCH   1  16
TORSDOF 2
ENDMDL
