REMARK  2 active torsions:
REMARK  status: ('A' for Active; 'I' for Inactive)
REMARK    1  A    between atoms: N_1  and  N_2 
REMARK    2  A    between atoms: C_8  and  C_9 
ROOT
HETATM    1  N   UNK N   1       2.313  -0.213   0.095  0.00  0.00    -0.217 N 
HETATM    2  C   UNK N   1       3.247  -1.180   0.122  0.00  0.00     0.213 A 
HETATM    3  S   UNK N   1       4.665  -0.955   0.121  0.00  0.00    -0.037 SA
HETATM    4  N   UNK N   1       2.689  -2.397   0.157  0.00  0.00    -0.273 N 
HETATM    5  N   UNK N   1       1.375  -2.218   0.155  0.00  0.00    -0.281 N 
ATOM      6  HN  UNK N   1       0.669  -2.954   0.178  1.00  0.00     0.188 HD
HETATM    7  C   UNK N   1       1.133  -0.884   0.118  0.00  0.00     0.154 A 
HETATM    8  H   UNK N   1       3.163  -3.260   0.180  0.00  0.00     0.189 HD
ENDROOT
BRANCH   7   9
HETATM    9  C   UNK N   1      -0.284  -0.372   0.100  0.00  0.00     0.017 A 
HETATM   10  C   UNK N   1      -1.267  -1.376   0.178  0.00  0.00     0.016 A 
HETATM   11  C   UNK N   1      -2.627  -1.082   0.153  0.00  0.00     0.001 A 
HETATM   12  C   UNK N   1      -3.047   0.237   0.041  0.00  0.00     0.001 A 
HETATM   13  C   UNK N   1      -2.105   1.259  -0.030  0.00  0.00     0.007 A 
HETATM   14  C   UNK N   1      -0.733   0.984   0.002  0.00  0.00    -0.048 A 
HETATM   15  C   UNK N   1       0.155   2.166  -0.084  0.00  0.00     0.049 C 
ENDBRANCH   7   9
BRANCH   1  16
HETATM   16  N   UNK N   1       2.573   1.161   0.062  0.00  0.00    -0.335 N 
HETATM   17  H   UNK N   1       3.502   1.486   0.038  0.00  0.00     0.177 HD
HETATM   18  H   UNK N   1       1.826   1.803   0.062  0.00  0.00     0.177 HD
ENDBRANCH   1  16
TORSDOF 2
