REMARK  4 active torsions:
REMARK  status: ('A' for Active; 'I' for Inactive)
REMARK    1  A    between atoms: C_7  and  C_8 
REMARK    2  A    between atoms: C_11  and  C_12 
REMARK    3  A    between atoms: C_12  and  C_13 
REMARK    4  A    between atoms: C_13  and  N_14 
ROOT
HETATM    1  C   UNK N   1       1.592  -1.551   0.000  0.00  0.00    -0.023 A 
HETATM    2  C   UNK N   1       0.534  -2.477  -0.000  0.00  0.00     0.013 A 
HETATM    3  C   UNK N   1      -0.795  -2.028  -0.000  0.00  0.00     0.008 A 
HETATM    4  C   UNK N   1      -1.075  -0.654   0.000  0.00  0.00    -0.057 A 
HETATM    5  C   UNK N   1      -0.014   0.261   0.000  0.00  0.00     0.008 A 
HETATM    6  C   UNK N   1       1.302  -0.185   0.000  0.00  0.00     0.013 A 
ENDROOT
BRANCH   1   7
HETATM    7  C   UNK N   1       3.001  -2.001   0.000  0.00  0.00     0.015 A 
HETATM    8  C   UNK N   1       4.144  -1.223  -0.000  0.00  0.00     0.034 A 
HETATM    9  C   UNK N   1       4.235   0.265  -0.000  0.00  0.00     0.070 C 
HETATM   10  N   UNK N   1       5.218  -2.028  -0.000  0.00  0.00    -0.305 N 
HETATM   11  N   UNK N   1       4.802  -3.284  -0.000  0.00  0.00    -0.311 N 
ATOM     12  HN  UNK N   1       6.192  -1.723  -0.000  1.00  0.00     0.186 HD
HETATM   13  C   UNK N   1       3.450  -3.307   0.000  0.00  0.00     0.121 A 
HETATM   14  H   UNK N   1       5.385  -4.077  -0.000  0.00  0.00     0.186 HD
ENDBRANCH   1   7
BRANCH   4  15
HETATM   15  C   UNK N   1      -2.501  -0.182  -0.000  0.00  0.00     0.057 C 
BRANCH  15  16
HETATM   16  C   UNK N   1      -2.618   1.341   0.000  0.00  0.00     0.115 C 
BRANCH  16  17
HETATM   17  N   UNK N   1      -4.012   1.736  -0.000  0.00  0.00    -0.430 N 
HETATM   18  H   UNK N   1      -4.262   2.725  -0.000  0.00  0.00     0.149 HD
HETATM   19  H   UNK N   1      -4.744   1.026  -0.000  0.00  0.00     0.149 HD
ENDBRANCH  16  17
ENDBRANCH  15  16
ENDBRANCH   4  15
TORSDOF 4
