MODEL 1
REMARK VINA RESULT:      -6.0      0.000      0.000
REMARK  4 active torsions:
REMARK  status: ('A' for Active; 'I' for Inactive)
REMARK    1  A    between atoms: C_7  and  C_8 
REMARK    2  A    between atoms: C_11  and  C_12 
REMARK    3  A    between atoms: C_12  and  C_13 
REMARK    4  A    between atoms: C_13  and  N_14 
ROOT
HETATM    1  C   UNK N   1      35.722  12.814  16.490  0.00  0.00    -0.023 A 
HETATM    2  C   UNK N   1      35.295  13.550  17.610  0.00  0.00     0.013 A 
HETATM    3  C   UNK N   1      35.084  12.904  18.837  0.00  0.00     0.008 A 
HETATM    4  C   UNK N   1      35.297  11.523  18.954  0.00  0.00    -0.057 A 
HETATM    5  C   UNK N   1      35.723  10.799  17.832  0.00  0.00     0.008 A 
HETATM    6  C   UNK N   1      35.932  11.439  16.617  0.00  0.00     0.013 A 
ENDROOT
BRANCH   1   7
HETATM    7  C   UNK N   1      35.952  13.473  15.186  0.00  0.00     0.015 A 
HETATM    8  C   UNK N   1      36.693  14.610  14.924  0.00  0.00     0.034 A 
HETATM    9  C   UNK N   1      37.446  15.453  15.897  0.00  0.00     0.070 C 
HETATM   10  N   UNK N   1      36.644  14.869  13.608  0.00  0.00    -0.305 N 
HETATM   11  N   UNK N   1      35.901  13.942  13.025  0.00  0.00    -0.311 N 
ATOM     12  HN  UNK N   1      37.102  15.649  13.136  1.00  0.00     0.186 HD
HETATM   13  C   UNK N   1      35.460  13.070  13.960  0.00  0.00     0.121 A 
HETATM   14  H   UNK N   1      35.701  13.894  12.063  0.00  0.00     0.186 HD
ENDBRANCH   1   7
BRANCH   4  15
HETATM   15  C   UNK N   1      35.069  10.840  20.272  0.00  0.00     0.057 C 
BRANCH  15  16
HETATM   16  C   UNK N   1      36.292  10.061  20.753  0.00  0.00     0.115 C 
BRANCH  16  17
HETATM   17  N   UNK N   1      37.141  10.913  21.560  0.00  0.00    -0.430 N 
HETATM   18  H   UNK N   1      36.942  11.038  22.553  0.00  0.00     0.149 HD
HETATM   19  H   UNK N   1      37.939  11.386  21.138  0.00  0.00     0.149 HD
ENDBRANCH  16  17
ENDBRANCH  15  16
ENDBRANCH   4  15
TORSDOF 4
ENDMDL
MODEL 2
REMARK VINA RESULT:      -5.6      1.458      2.659
REMARK  4 active torsions:
REMARK  status: ('A' for Active; 'I' for Inactive)
REMARK    1  A    between atoms: C_7  and  C_8 
REMARK    2  A    between atoms: C_11  and  C_12 
REMARK    3  A    between atoms: C_12  and  C_13 
REMARK    4  A    between atoms: C_13  and  N_14 
ROOT
HETATM    1  C   UNK N   1      35.377  12.172  16.182  0.00  0.00    -0.023 A 
HETATM    2  C   UNK N   1      35.886  10.913  16.546  0.00  0.00     0.013 A 
HETATM    3  C   UNK N   1      36.000  10.564  17.900  0.00  0.00     0.008 A 
HETATM    4  C   UNK N   1      35.606  11.469  18.897  0.00  0.00    -0.057 A 
HETATM    5  C   UNK N   1      35.099  12.721  18.524  0.00  0.00     0.008 A 
HETATM    6  C   UNK N   1      34.988  13.065  17.182  0.00  0.00     0.013 A 
ENDROOT
BRANCH   1   7
HETATM    7  C   UNK N   1      35.248  12.562  14.761  0.00  0.00     0.015 A 
HETATM    8  C   UNK N   1      34.545  11.917  13.761  0.00  0.00     0.034 A 
HETATM    9  C   UNK N   1      33.741  10.666  13.871  0.00  0.00     0.070 C 
HETATM   10  N   UNK N   1      34.689  12.603  12.616  0.00  0.00    -0.305 N 
HETATM   11  N   UNK N   1      35.455  13.656  12.850  0.00  0.00    -0.311 N 
ATOM     12  HN  UNK N   1      34.277  12.354  11.716  1.00  0.00     0.186 HD
HETATM   13  C   UNK N   1      35.817  13.664  14.153  0.00  0.00     0.121 A 
HETATM   14  H   UNK N   1      35.720  14.327  12.181  0.00  0.00     0.186 HD
ENDBRANCH   1   7
BRANCH   4  15
HETATM   15  C   UNK N   1      35.731  11.087  20.344  0.00  0.00     0.057 C 
BRANCH  15  16
HETATM   16  C   UNK N   1      34.561  10.234  20.832  0.00  0.00     0.115 C 
BRANCH  16  17
HETATM   17  N   UNK N   1      33.760  10.979  21.782  0.00  0.00    -0.430 N 
HETATM   18  H   UNK N   1      32.838  10.636  22.052  0.00  0.00     0.149 HD
HETATM   19  H   UNK N   1      34.117  11.846  22.182  0.00  0.00     0.149 HD
ENDBRANCH  16  17
ENDBRANCH  15  16
ENDBRANCH   4  15
TORSDOF 4
ENDMDL
MODEL 3
REMARK VINA RESULT:      -5.5      1.688      6.207
REMARK  4 active torsions:
REMARK  status: ('A' for Active; 'I' for Inactive)
REMARK    1  A    between atoms: C_7  and  C_8 
REMARK    2  A    between atoms: C_11  and  C_12 
REMARK    3  A    between atoms: C_12  and  C_13 
REMARK    4  A    between atoms: C_13  and  N_14 
ROOT
HETATM    1  C   UNK N   1      35.437  12.959  16.541  0.00  0.00    -0.023 A 
HETATM    2  C   UNK N   1      36.421  13.805  15.998  0.00  0.00     0.013 A 
HETATM    3  C   UNK N   1      36.514  13.975  14.608  0.00  0.00     0.008 A 
HETATM    4  C   UNK N   1      35.628  13.303  13.755  0.00  0.00    -0.057 A 
HETATM    5  C   UNK N   1      34.651  12.462  14.305  0.00  0.00     0.008 A 
HETATM    6  C   UNK N   1      34.560  12.295  15.682  0.00  0.00     0.013 A 
ENDROOT
BRANCH   1   7
HETATM    7  C   UNK N   1      35.320  12.764  18.002  0.00  0.00     0.015 A 
HETATM    8  C   UNK N   1      35.484  11.595  18.722  0.00  0.00     0.034 A 
HETATM    9  C   UNK N   1      35.821  10.241  18.198  0.00  0.00     0.070 C 
HETATM   10  N   UNK N   1      35.290  11.855  20.024  0.00  0.00    -0.305 N 
HETATM   11  N   UNK N   1      35.010  13.141  20.159  0.00  0.00    -0.311 N 
ATOM     12  HN  UNK N   1      35.349  11.176  20.784  1.00  0.00     0.186 HD
HETATM   13  C   UNK N   1      35.019  13.731  18.942  0.00  0.00     0.121 A 
HETATM   14  H   UNK N   1      34.823  13.597  21.011  0.00  0.00     0.186 HD
ENDBRANCH   1   7
BRANCH   4  15
HETATM   15  C   UNK N   1      35.735  13.491  12.268  0.00  0.00     0.057 C 
BRANCH  15  16
HETATM   16  C   UNK N   1      35.558  14.948  11.844  0.00  0.00     0.115 C 
BRANCH  16  17
HETATM   17  N   UNK N   1      36.749  15.420  11.167  0.00  0.00    -0.430 N 
HETATM   18  H   UNK N   1      36.707  16.257  10.585  0.00  0.00     0.149 HD
HETATM   19  H   UNK N   1      37.630  14.916  11.272  0.00  0.00     0.149 HD
ENDBRANCH  16  17
ENDBRANCH  15  16
ENDBRANCH   4  15
TORSDOF 4
ENDMDL
MODEL 4
REMARK VINA RESULT:      -5.5     10.094     12.927
REMARK  4 active torsions:
REMARK  status: ('A' for Active; 'I' for Inactive)
REMARK    1  A    between atoms: C_7  and  C_8 
REMARK    2  A    between atoms: C_11  and  C_12 
REMARK    3  A    between atoms: C_12  and  C_13 
REMARK    4  A    between atoms: C_13  and  N_14 
ROOT
HETATM    1  C   UNK N   1      29.550  17.513   7.047  0.00  0.00    -0.023 A 
HETATM    2  C   UNK N   1      29.859  18.054   8.307  0.00  0.00     0.013 A 
HETATM    3  C   UNK N   1      31.195  18.152   8.723  0.00  0.00     0.008 A 
HETATM    4  C   UNK N   1      32.229  17.712   7.884  0.00  0.00    -0.057 A 
HETATM    5  C   UNK N   1      31.911  17.175   6.630  0.00  0.00     0.008 A 
HETATM    6  C   UNK N   1      30.587  17.078   6.219  0.00  0.00     0.013 A 
ENDROOT
BRANCH   1   7
HETATM    7  C   UNK N   1      28.149  17.399   6.587  0.00  0.00     0.015 A 
HETATM    8  C   UNK N   1      27.415  18.315   5.856  0.00  0.00     0.034 A 
HETATM    9  C   UNK N   1      27.859  19.646   5.352  0.00  0.00     0.070 C 
HETATM   10  N   UNK N   1      26.184  17.821   5.650  0.00  0.00    -0.305 N 
HETATM   11  N   UNK N   1      26.109  16.630   6.220  0.00  0.00    -0.311 N 
ATOM     12  HN  UNK N   1      25.432  18.286   5.140  1.00  0.00     0.186 HD
HETATM   13  C   UNK N   1      27.293  16.338   6.804  0.00  0.00     0.121 A 
HETATM   14  H   UNK N   1      25.315  16.047   6.220  0.00  0.00     0.186 HD
ENDBRANCH   1   7
BRANCH   4  15
HETATM   15  C   UNK N   1      33.657  17.821   8.338  0.00  0.00     0.057 C 
BRANCH  15  16
HETATM   16  C   UNK N   1      34.105  16.620   9.168  0.00  0.00     0.115 C 
BRANCH  16  17
HETATM   17  N   UNK N   1      34.806  17.066  10.355  0.00  0.00    -0.430 N 
HETATM   18  H   UNK N   1      35.824  17.009  10.399  0.00  0.00     0.149 HD
HETATM   19  H   UNK N   1      34.283  17.437  11.148  0.00  0.00     0.149 HD
ENDBRANCH  16  17
ENDBRANCH  15  16
ENDBRANCH   4  15
TORSDOF 4
ENDMDL
MODEL 5
REMARK VINA RESULT:      -5.5      8.321     11.242
REMARK  4 active torsions:
REMARK  status: ('A' for Active; 'I' for Inactive)
REMARK    1  A    between atoms: C_7  and  C_8 
REMARK    2  A    between atoms: C_11  and  C_12 
REMARK    3  A    between atoms: C_12  and  C_13 
REMARK    4  A    between atoms: C_13  and  N_14 
ROOT
HETATM    1  C   UNK N   1      31.044  17.366   8.490  0.00  0.00    -0.023 A 
HETATM    2  C   UNK N   1      32.131  18.211   8.209  0.00  0.00     0.013 A 
HETATM    3  C   UNK N   1      33.444  17.728   8.316  0.00  0.00     0.008 A 
HETATM    4  C   UNK N   1      33.678  16.401   8.705  0.00  0.00    -0.057 A 
HETATM    5  C   UNK N   1      32.588  15.567   8.983  0.00  0.00     0.008 A 
HETATM    6  C   UNK N   1      31.288  16.046   8.876  0.00  0.00     0.013 A 
ENDROOT
BRANCH   1   7
HETATM    7  C   UNK N   1      29.651  17.852   8.384  0.00  0.00     0.015 A 
HETATM    8  C   UNK N   1      28.861  17.935   7.252  0.00  0.00     0.034 A 
HETATM    9  C   UNK N   1      29.222  17.551   5.857  0.00  0.00     0.070 C 
HETATM   10  N   UNK N   1      27.662  18.432   7.594  0.00  0.00    -0.305 N 
HETATM   11  N   UNK N   1      27.660  18.668   8.895  0.00  0.00    -0.311 N 
ATOM     12  HN  UNK N   1      26.882  18.600   6.956  1.00  0.00     0.186 HD
HETATM   13  C   UNK N   1      28.861  18.325   9.414  0.00  0.00     0.121 A 
HETATM   14  H   UNK N   1      26.903  19.035   9.407  0.00  0.00     0.186 HD
ENDBRANCH   1   7
BRANCH   4  15
HETATM   15  C   UNK N   1      35.087  15.893   8.817  0.00  0.00     0.057 C 
BRANCH  15  16
HETATM   16  C   UNK N   1      35.537  15.718  10.266  0.00  0.00     0.115 C 
BRANCH  16  17
HETATM   17  N   UNK N   1      35.178  16.885  11.046  0.00  0.00    -0.430 N 
HETATM   18  H   UNK N   1      35.030  16.801  12.052  0.00  0.00     0.149 HD
HETATM   19  H   UNK N   1      35.074  17.792  10.591  0.00  0.00     0.149 HD
ENDBRANCH  16  17
ENDBRANCH  15  16
ENDBRANCH   4  15
TORSDOF 4
ENDMDL
MODEL 6
REMARK VINA RESULT:      -5.5      1.124      6.321
REMARK  4 active torsions:
REMARK  status: ('A' for Active; 'I' for Inactive)
REMARK    1  A    between atoms: C_7  and  C_8 
REMARK    2  A    between atoms: C_11  and  C_12 
REMARK    3  A    between atoms: C_12  and  C_13 
REMARK    4  A    between atoms: C_13  and  N_14 
ROOT
HETATM    1  C   UNK N   1      35.242  11.350  19.115  0.00  0.00    -0.023 A 
HETATM    2  C   UNK N   1      35.210  12.751  18.993  0.00  0.00     0.013 A 
HETATM    3  C   UNK N   1      35.257  13.348  17.724  0.00  0.00     0.008 A 
HETATM    4  C   UNK N   1      35.336  12.552  16.573  0.00  0.00    -0.057 A 
HETATM    5  C   UNK N   1      35.367  11.157  16.705  0.00  0.00     0.008 A 
HETATM    6  C   UNK N   1      35.321  10.567  17.962  0.00  0.00     0.013 A 
ENDROOT
BRANCH   1   7
HETATM    7  C   UNK N   1      35.194  10.698  20.442  0.00  0.00     0.015 A 
HETATM    8  C   UNK N   1      36.235  10.124  21.147  0.00  0.00     0.034 A 
HETATM    9  C   UNK N   1      37.666  10.021  20.741  0.00  0.00     0.070 C 
HETATM   10  N   UNK N   1      35.762   9.645  22.309  0.00  0.00    -0.305 N 
HETATM   11  N   UNK N   1      34.464   9.893  22.368  0.00  0.00    -0.311 N 
ATOM     12  HN  UNK N   1      36.311   9.170  23.026  1.00  0.00     0.186 HD
HETATM   13  C   UNK N   1      34.080  10.537  21.242  0.00  0.00     0.121 A 
HETATM   14  H   UNK N   1      33.871   9.647  23.114  0.00  0.00     0.186 HD
ENDBRANCH   1   7
BRANCH   4  15
HETATM   15  C   UNK N   1      35.385  13.200  15.218  0.00  0.00     0.057 C 
BRANCH  15  16
HETATM   16  C   UNK N   1      36.647  14.035  15.010  0.00  0.00     0.115 C 
BRANCH  16  17
HETATM   17  N   UNK N   1      36.697  14.536  13.652  0.00  0.00    -0.430 N 
HETATM   18  H   UNK N   1      37.521  15.039  13.323  0.00  0.00     0.149 HD
HETATM   19  H   UNK N   1      35.908  14.387  13.023  0.00  0.00     0.149 HD
ENDBRANCH  16  17
ENDBRANCH  15  16
ENDBRANCH   4  15
TORSDOF 4
ENDMDL
MODEL 7
REMARK VINA RESULT:      -5.5     16.795     19.471
REMARK  4 active torsions:
REMARK  status: ('A' for Active; 'I' for Inactive)
REMARK    1  A    between atoms: C_7  and  C_8 
REMARK    2  A    between atoms: C_11  and  C_12 
REMARK    3  A    between atoms: C_12  and  C_13 
REMARK    4  A    between atoms: C_13  and  N_14 
ROOT
HETATM    1  C   UNK N   1      24.815  19.482   3.920  0.00  0.00    -0.023 A 
HETATM    2  C   UNK N   1      24.334  20.479   3.053  0.00  0.00     0.013 A 
HETATM    3  C   UNK N   1      22.962  20.564   2.769  0.00  0.00     0.008 A 
HETATM    4  C   UNK N   1      22.065  19.655   3.348  0.00  0.00    -0.057 A 
HETATM    5  C   UNK N   1      22.554  18.665   4.211  0.00  0.00     0.008 A 
HETATM    6  C   UNK N   1      23.913  18.582   4.491  0.00  0.00     0.013 A 
ENDROOT
BRANCH   1   7
HETATM    7  C   UNK N   1      26.256  19.373   4.233  0.00  0.00     0.015 A 
HETATM    8  C   UNK N   1      26.993  20.128   5.127  0.00  0.00     0.034 A 
HETATM    9  C   UNK N   1      26.513  21.240   5.995  0.00  0.00     0.070 C 
HETATM   10  N   UNK N   1      28.267  19.704   5.107  0.00  0.00    -0.305 N 
HETATM   11  N   UNK N   1      28.366  18.712   4.238  0.00  0.00    -0.311 N 
ATOM     12  HN  UNK N   1      29.030  20.084   5.669  1.00  0.00     0.186 HD
HETATM   13  C   UNK N   1      27.155  18.480   3.683  0.00  0.00     0.121 A 
HETATM   14  H   UNK N   1      29.192  18.219   4.029  0.00  0.00     0.186 HD
ENDBRANCH   1   7
BRANCH   4  15
HETATM   15  C   UNK N   1      20.598  19.753   3.039  0.00  0.00     0.057 C 
BRANCH  15  16
HETATM   16  C   UNK N   1      20.004  18.426   2.572  0.00  0.00     0.115 C 
BRANCH  16  17
HETATM   17  N   UNK N   1      18.596  18.587   2.269  0.00  0.00    -0.430 N 
HETATM   18  H   UNK N   1      18.281  19.383   1.715  0.00  0.00     0.149 HD
HETATM   19  H   UNK N   1      17.920  17.904   2.609  0.00  0.00     0.149 HD
ENDBRANCH  16  17
ENDBRANCH  15  16
ENDBRANCH   4  15
TORSDOF 4
ENDMDL
MODEL 8
REMARK VINA RESULT:      -5.5     15.681     18.153
REMARK  4 active torsions:
REMARK  status: ('A' for Active; 'I' for Inactive)
REMARK    1  A    between atoms: C_7  and  C_8 
REMARK    2  A    between atoms: C_11  and  C_12 
REMARK    3  A    between atoms: C_12  and  C_13 
REMARK    4  A    between atoms: C_13  and  N_14 
ROOT
HETATM    1  C   UNK N   1      21.253  13.698   9.060  0.00  0.00    -0.023 A 
HETATM    2  C   UNK N   1      21.203  13.147   7.767  0.00  0.00     0.013 A 
HETATM    3  C   UNK N   1      20.810  13.940   6.679  0.00  0.00     0.008 A 
HETATM    4  C   UNK N   1      20.466  15.285   6.874  0.00  0.00    -0.057 A 
HETATM    5  C   UNK N   1      20.520  15.825   8.166  0.00  0.00     0.008 A 
HETATM    6  C   UNK N   1      20.909  15.038   9.243  0.00  0.00     0.013 A 
ENDROOT
BRANCH   1   7
HETATM    7  C   UNK N   1      21.664  12.881  10.223  0.00  0.00     0.015 A 
HETATM    8  C   UNK N   1      22.941  12.494  10.584  0.00  0.00     0.034 A 
HETATM    9  C   UNK N   1      24.221  12.807   9.886  0.00  0.00     0.070 C 
HETATM   10  N   UNK N   1      22.873  11.760  11.705  0.00  0.00    -0.305 N 
HETATM   11  N   UNK N   1      21.605  11.666  12.070  0.00  0.00    -0.311 N 
ATOM     12  HN  UNK N   1      23.666  11.344  12.195  1.00  0.00     0.186 HD
HETATM   13  C   UNK N   1      20.835  12.340  11.186  0.00  0.00     0.121 A 
HETATM   14  H   UNK N   1      21.273  11.182  12.860  0.00  0.00     0.186 HD
ENDBRANCH   1   7
BRANCH   4  15
HETATM   15  C   UNK N   1      20.047  16.127   5.703  0.00  0.00     0.057 C 
BRANCH  15  16
HETATM   16  C   UNK N   1      18.873  15.524   4.934  0.00  0.00     0.115 C 
BRANCH  16  17
HETATM   17  N   UNK N   1      19.262  15.240   3.568  0.00  0.00    -0.430 N 
HETATM   18  H   UNK N   1      20.049  14.619   3.380  0.00  0.00     0.149 HD
HETATM   19  H   UNK N   1      18.749  15.660   2.793  0.00  0.00     0.149 HD
ENDBRANCH  16  17
ENDBRANCH  15  16
ENDBRANCH   4  15
TORSDOF 4
ENDMDL
MODEL 9
REMARK VINA RESULT:      -5.4     17.537     20.201
REMARK  4 active torsions:
REMARK  status: ('A' for Active; 'I' for Inactive)
REMARK    1  A    between atoms: C_7  and  C_8 
REMARK    2  A    between atoms: C_11  and  C_12 
REMARK    3  A    between atoms: C_12  and  C_13 
REMARK    4  A    between atoms: C_13  and  N_14 
ROOT
HETATM    1  C   UNK N   1      22.426  19.209   3.443  0.00  0.00    -0.023 A 
HETATM    2  C   UNK N   1      23.194  20.250   2.892  0.00  0.00     0.013 A 
HETATM    3  C   UNK N   1      24.511  20.459   3.326  0.00  0.00     0.008 A 
HETATM    4  C   UNK N   1      25.068  19.632   4.312  0.00  0.00    -0.057 A 
HETATM    5  C   UNK N   1      24.295  18.598   4.855  0.00  0.00     0.008 A 
HETATM    6  C   UNK N   1      22.990  18.391   4.424  0.00  0.00     0.013 A 
ENDROOT
BRANCH   1   7
HETATM    7  C   UNK N   1      21.035  18.969   3.001  0.00  0.00     0.015 A 
HETATM    8  C   UNK N   1      20.471  17.784   2.565  0.00  0.00     0.034 A 
HETATM    9  C   UNK N   1      21.131  16.453   2.435  0.00  0.00     0.070 C 
HETATM   10  N   UNK N   1      19.183  18.001   2.259  0.00  0.00    -0.305 N 
HETATM   11  N   UNK N   1      18.907  19.276   2.483  0.00  0.00    -0.311 N 
ATOM     12  HN  UNK N   1      18.526  17.301   1.912  1.00  0.00     0.186 HD
HETATM   13  C   UNK N   1      20.017  19.900   2.937  0.00  0.00     0.121 A 
HETATM   14  H   UNK N   1      18.031  19.702   2.340  0.00  0.00     0.186 HD
ENDBRANCH   1   7
BRANCH   4  15
HETATM   15  C   UNK N   1      26.479  19.864   4.771  0.00  0.00     0.057 C 
BRANCH  15  16
HETATM   16  C   UNK N   1      26.597  21.029   5.751  0.00  0.00     0.115 C 
BRANCH  16  17
HETATM   17  N   UNK N   1      26.388  20.566   7.108  0.00  0.00    -0.430 N 
HETATM   18  H   UNK N   1      26.891  21.003   7.880  0.00  0.00     0.149 HD
HETATM   19  H   UNK N   1      25.737  19.802   7.292  0.00  0.00     0.149 HD
ENDBRANCH  16  17
ENDBRANCH  15  16
ENDBRANCH   4  15
TORSDOF 4
ENDMDL
