MODEL 1
REMARK VINA RESULT:      -6.1      0.000      0.000
REMARK  5 active torsions:
REMARK  status: ('A' for Active; 'I' for Inactive)
REMARK    1  A    between atoms: C_1  and  C_3 
REMARK    2  A    between atoms: C_1  and  C_17 
REMARK    3  A    between atoms: C_3  and  C_4 
REMARK    4  A    between atoms: C_4  and  C_11 
REMARK    5  A    between atoms: C_16  and  C_17 
ROOT
HETATM    1  C   UNK N   1      26.563  24.617  -5.400  0.00  0.00    -0.016 C 
HETATM    2  C   UNK N   1      26.531  23.291  -6.147  0.00  0.00     0.010 C 
ENDROOT
BRANCH   1   3
HETATM    3  C   UNK N   1      25.221  25.321  -5.599  0.00  0.00     0.013 C 
BRANCH   3   4
HETATM    4  C   UNK N   1      25.339  26.643  -6.377  0.00  0.00     0.015 C 
HETATM    5  C   UNK N   1      26.063  26.371  -7.685  0.00  0.00     0.015 C 
BRANCH   4   6
HETATM    6  C   UNK N   1      26.054  27.724  -5.596  0.00  0.00    -0.054 A 
HETATM    7  C   UNK N   1      25.627  28.115  -4.317  0.00  0.00     0.007 A 
HETATM    8  C   UNK N   1      26.283  29.146  -3.636  0.00  0.00     0.001 A 
HETATM    9  C   UNK N   1      27.366  29.797  -4.230  0.00  0.00     0.000 A 
HETATM   10  C   UNK N   1      27.797  29.417  -5.503  0.00  0.00     0.001 A 
HETATM   11  C   UNK N   1      27.143  28.387  -6.185  0.00  0.00     0.007 A 
ENDBRANCH   4   6
ENDBRANCH   3   4
ENDBRANCH   1   3
BRANCH   1  12
HETATM   12  C   UNK N   1      26.781  24.381  -3.905  0.00  0.00     0.040 C 
BRANCH  12  13
HETATM   13  C   UNK N   1      28.198  24.687  -3.401  0.00  0.00     0.223 C 
HETATM   14  C   UNK N   1      28.766  25.800  -4.287  0.00  0.00     0.036 C 
HETATM   15  C   UNK N   1      30.202  26.124  -3.875  0.00  0.00     0.004 C 
HETATM   16  C   UNK N   1      31.064  24.869  -3.711  0.00  0.00     0.030 C 
HETATM   17  C   UNK N   1      30.324  23.595  -4.125  0.00  0.00     0.272 C 
HETATM   18  N   UNK N   1      29.034  23.457  -3.434  0.00  0.00     0.088 N 
HETATM   19  C   UNK N   1      29.281  22.952  -2.086  0.00  0.00     0.310 C 
ENDBRANCH  12  13
ENDBRANCH   1  12
TORSDOF 5
ENDMDL
MODEL 2
REMARK VINA RESULT:      -5.8     21.586     25.653
REMARK  5 active torsions:
REMARK  status: ('A' for Active; 'I' for Inactive)
REMARK    1  A    between atoms: C_1  and  C_3 
REMARK    2  A    between atoms: C_1  and  C_17 
REMARK    3  A    between atoms: C_3  and  C_4 
REMARK    4  A    between atoms: C_4  and  C_11 
REMARK    5  A    between atoms: C_16  and  C_17 
ROOT
HETATM    1  C   UNK N   1      34.455  11.102  13.702  0.00  0.00    -0.016 C 
HETATM    2  C   UNK N   1      33.867  10.179  12.644  0.00  0.00     0.010 C 
ENDROOT
BRANCH   1   3
HETATM    3  C   UNK N   1      34.135  10.528  15.081  0.00  0.00     0.013 C 
BRANCH   3   4
HETATM    4  C   UNK N   1      35.373  10.396  15.985  0.00  0.00     0.015 C 
HETATM    5  C   UNK N   1      35.474   8.954  16.458  0.00  0.00     0.015 C 
BRANCH   4   6
HETATM    6  C   UNK N   1      35.342  11.336  17.169  0.00  0.00    -0.054 A 
HETATM    7  C   UNK N   1      35.370  10.860  18.490  0.00  0.00     0.007 A 
HETATM    8  C   UNK N   1      35.299  11.752  19.565  0.00  0.00     0.001 A 
HETATM    9  C   UNK N   1      35.194  13.124  19.329  0.00  0.00     0.000 A 
HETATM   10  C   UNK N   1      35.163  13.608  18.019  0.00  0.00     0.001 A 
HETATM   11  C   UNK N   1      35.234  12.718  16.943  0.00  0.00     0.007 A 
ENDBRANCH   4   6
ENDBRANCH   3   4
ENDBRANCH   1   3
BRANCH   1  12
HETATM   12  C   UNK N   1      35.973  11.193  13.543  0.00  0.00     0.040 C 
BRANCH  12  13
HETATM   13  C   UNK N   1      36.478  12.488  12.890  0.00  0.00     0.223 C 
HETATM   14  C   UNK N   1      35.571  13.625  13.369  0.00  0.00     0.036 C 
HETATM   15  C   UNK N   1      35.985  14.943  12.716  0.00  0.00     0.004 C 
HETATM   16  C   UNK N   1      36.183  14.814  11.203  0.00  0.00     0.030 C 
HETATM   17  C   UNK N   1      35.793  13.429  10.681  0.00  0.00     0.272 C 
HETATM   18  N   UNK N   1      36.479  12.351  11.409  0.00  0.00     0.088 N 
HETATM   19  C   UNK N   1      37.840  12.234  10.891  0.00  0.00     0.310 C 
ENDBRANCH  12  13
ENDBRANCH   1  12
TORSDOF 5
ENDMDL
MODEL 3
REMARK VINA RESULT:      -5.5      1.447      2.466
REMARK  5 active torsions:
REMARK  status: ('A' for Active; 'I' for Inactive)
REMARK    1  A    between atoms: C_1  and  C_3 
REMARK    2  A    between atoms: C_1  and  C_17 
REMARK    3  A    between atoms: C_3  and  C_4 
REMARK    4  A    between atoms: C_4  and  C_11 
REMARK    5  A    between atoms: C_16  and  C_17 
ROOT
HETATM    1  C   UNK N   1      26.756  25.387  -4.612  0.00  0.00    -0.016 C 
HETATM    2  C   UNK N   1      26.123  24.112  -4.074  0.00  0.00     0.010 C 
ENDROOT
BRANCH   1   3
HETATM    3  C   UNK N   1      26.332  26.554  -3.721  0.00  0.00     0.013 C 
BRANCH   3   4
HETATM    4  C   UNK N   1      25.654  27.695  -4.499  0.00  0.00     0.015 C 
HETATM    5  C   UNK N   1      24.909  27.098  -5.682  0.00  0.00     0.015 C 
BRANCH   4   6
HETATM    6  C   UNK N   1      26.631  28.749  -4.971  0.00  0.00    -0.054 A 
HETATM    7  C   UNK N   1      27.438  28.551  -6.103  0.00  0.00     0.007 A 
HETATM    8  C   UNK N   1      28.361  29.528  -6.493  0.00  0.00     0.001 A 
HETATM    9  C   UNK N   1      28.489  30.704  -5.752  0.00  0.00     0.000 A 
HETATM   10  C   UNK N   1      27.692  30.909  -4.623  0.00  0.00     0.001 A 
HETATM   11  C   UNK N   1      26.768  29.935  -4.233  0.00  0.00     0.007 A 
ENDBRANCH   4   6
ENDBRANCH   3   4
ENDBRANCH   1   3
BRANCH   1  12
HETATM   12  C   UNK N   1      28.281  25.275  -4.587  0.00  0.00     0.040 C 
BRANCH  12  13
HETATM   13  C   UNK N   1      28.822  23.867  -4.302  0.00  0.00     0.223 C 
HETATM   14  C   UNK N   1      29.645  23.947  -3.013  0.00  0.00     0.036 C 
HETATM   15  C   UNK N   1      30.261  22.586  -2.692  0.00  0.00     0.004 C 
HETATM   16  C   UNK N   1      30.944  21.948  -3.905  0.00  0.00     0.030 C 
HETATM   17  C   UNK N   1      30.966  22.881  -5.119  0.00  0.00     0.272 C 
HETATM   18  N   UNK N   1      29.625  23.380  -5.456  0.00  0.00     0.088 N 
HETATM   19  C   UNK N   1      28.912  22.337  -6.190  0.00  0.00     0.310 C 
ENDBRANCH  12  13
ENDBRANCH   1  12
TORSDOF 5
ENDMDL
MODEL 4
REMARK VINA RESULT:      -5.4     11.512     14.799
REMARK  5 active torsions:
REMARK  status: ('A' for Active; 'I' for Inactive)
REMARK    1  A    between atoms: C_1  and  C_3 
REMARK    2  A    between atoms: C_1  and  C_17 
REMARK    3  A    between atoms: C_3  and  C_4 
REMARK    4  A    between atoms: C_4  and  C_11 
REMARK    5  A    between atoms: C_16  and  C_17 
ROOT
HETATM    1  C   UNK N   1      29.891  18.052   8.219  0.00  0.00    -0.016 C 
HETATM    2  C   UNK N   1      29.639  18.545   9.637  0.00  0.00     0.010 C 
ENDROOT
BRANCH   1   3
HETATM    3  C   UNK N   1      30.655  16.730   8.292  0.00  0.00     0.013 C 
BRANCH   3   4
HETATM    4  C   UNK N   1      32.055  16.804   7.659  0.00  0.00     0.015 C 
HETATM    5  C   UNK N   1      32.723  18.092   8.112  0.00  0.00     0.015 C 
BRANCH   4   6
HETATM    6  C   UNK N   1      32.024  16.731   6.149  0.00  0.00    -0.054 A 
HETATM    7  C   UNK N   1      32.859  17.533   5.355  0.00  0.00     0.007 A 
HETATM    8  C   UNK N   1      32.779  17.473   3.959  0.00  0.00     0.001 A 
HETATM    9  C   UNK N   1      31.862  16.615   3.348  0.00  0.00     0.000 A 
HETATM   10  C   UNK N   1      31.026  15.814   4.129  0.00  0.00     0.001 A 
HETATM   11  C   UNK N   1      31.104  15.873   5.524  0.00  0.00     0.007 A 
ENDBRANCH   4   6
ENDBRANCH   3   4
ENDBRANCH   1   3
BRANCH   1  12
HETATM   12  C   UNK N   1      28.565  17.817   7.494  0.00  0.00     0.040 C 
BRANCH  12  13
HETATM   13  C   UNK N   1      28.271  18.799   6.351  0.00  0.00     0.223 C 
HETATM   14  C   UNK N   1      27.704  20.075   6.980  0.00  0.00     0.036 C 
HETATM   15  C   UNK N   1      27.337  21.084   5.893  0.00  0.00     0.004 C 
HETATM   16  C   UNK N   1      26.523  20.457   4.757  0.00  0.00     0.030 C 
HETATM   17  C   UNK N   1      26.154  18.999   5.042  0.00  0.00     0.272 C 
HETATM   18  N   UNK N   1      27.333  18.185   5.373  0.00  0.00     0.088 N 
HETATM   19  C   UNK N   1      28.020  17.837   4.132  0.00  0.00     0.310 C 
ENDBRANCH  12  13
ENDBRANCH   1  12
TORSDOF 5
ENDMDL
MODEL 5
REMARK VINA RESULT:      -5.4      1.550      2.644
REMARK  5 active torsions:
REMARK  status: ('A' for Active; 'I' for Inactive)
REMARK    1  A    between atoms: C_1  and  C_3 
REMARK    2  A    between atoms: C_1  and  C_17 
REMARK    3  A    between atoms: C_3  and  C_4 
REMARK    4  A    between atoms: C_4  and  C_11 
REMARK    5  A    between atoms: C_16  and  C_17 
ROOT
HETATM    1  C   UNK N   1      26.769  24.819  -7.857  0.00  0.00    -0.016 C 
HETATM    2  C   UNK N   1      26.650  24.169  -9.228  0.00  0.00     0.010 C 
ENDROOT
BRANCH   1   3
HETATM    3  C   UNK N   1      26.149  26.214  -7.924  0.00  0.00     0.013 C 
BRANCH   3   4
HETATM    4  C   UNK N   1      27.101  27.324  -7.448  0.00  0.00     0.015 C 
HETATM    5  C   UNK N   1      28.530  26.892  -7.737  0.00  0.00     0.015 C 
BRANCH   4   6
HETATM    6  C   UNK N   1      26.938  27.651  -5.980  0.00  0.00    -0.054 A 
HETATM    7  C   UNK N   1      28.046  27.853  -5.142  0.00  0.00     0.007 A 
HETATM    8  C   UNK N   1      27.865  28.114  -3.780  0.00  0.00     0.001 A 
HETATM    9  C   UNK N   1      26.577  28.170  -3.244  0.00  0.00     0.000 A 
HETATM   10  C   UNK N   1      25.468  27.969  -4.069  0.00  0.00     0.001 A 
HETATM   11  C   UNK N   1      25.647  27.708  -5.431  0.00  0.00     0.007 A 
ENDBRANCH   4   6
ENDBRANCH   3   4
ENDBRANCH   1   3
BRANCH   1  12
HETATM   12  C   UNK N   1      26.018  23.994  -6.810  0.00  0.00     0.040 C 
BRANCH  12  13
HETATM   13  C   UNK N   1      26.859  23.567  -5.599  0.00  0.00     0.223 C 
HETATM   14  C   UNK N   1      26.406  24.415  -4.407  0.00  0.00     0.036 C 
HETATM   15  C   UNK N   1      27.239  24.079  -3.171  0.00  0.00     0.004 C 
HETATM   16  C   UNK N   1      28.742  24.052  -3.464  0.00  0.00     0.030 C 
HETATM   17  C   UNK N   1      29.065  24.497  -4.892  0.00  0.00     0.272 C 
HETATM   18  N   UNK N   1      28.308  23.733  -5.894  0.00  0.00     0.088 N 
HETATM   19  C   UNK N   1      28.959  22.439  -6.080  0.00  0.00     0.310 C 
ENDBRANCH  12  13
ENDBRANCH   1  12
TORSDOF 5
ENDMDL
MODEL 6
REMARK VINA RESULT:      -5.3     24.570     28.225
REMARK  5 active torsions:
REMARK  status: ('A' for Active; 'I' for Inactive)
REMARK    1  A    between atoms: C_1  and  C_3 
REMARK    2  A    between atoms: C_1  and  C_17 
REMARK    3  A    between atoms: C_3  and  C_4 
REMARK    4  A    between atoms: C_4  and  C_11 
REMARK    5  A    between atoms: C_16  and  C_17 
ROOT
HETATM    1  C   UNK N   1      35.394  12.357  17.214  0.00  0.00    -0.016 C 
HETATM    2  C   UNK N   1      35.266  13.284  18.414  0.00  0.00     0.010 C 
ENDROOT
BRANCH   1   3
HETATM    3  C   UNK N   1      35.303  10.913  17.701  0.00  0.00     0.013 C 
BRANCH   3   4
HETATM    4  C   UNK N   1      35.445  10.777  19.227  0.00  0.00     0.015 C 
HETATM    5  C   UNK N   1      36.744  10.047  19.529  0.00  0.00     0.015 C 
BRANCH   4   6
HETATM    6  C   UNK N   1      34.278  10.059  19.866  0.00  0.00    -0.054 A 
HETATM    7  C   UNK N   1      33.835  10.377  21.160  0.00  0.00     0.007 A 
HETATM    8  C   UNK N   1      32.778   9.668  21.741  0.00  0.00     0.001 A 
HETATM    9  C   UNK N   1      32.160   8.633  21.036  0.00  0.00     0.000 A 
HETATM   10  C   UNK N   1      32.595   8.307  19.749  0.00  0.00     0.001 A 
HETATM   11  C   UNK N   1      33.651   9.015  19.167  0.00  0.00     0.007 A 
ENDBRANCH   4   6
ENDBRANCH   3   4
ENDBRANCH   1   3
BRANCH   1  12
HETATM   12  C   UNK N   1      34.262  12.616  16.218  0.00  0.00     0.040 C 
BRANCH  12  13
HETATM   13  C   UNK N   1      34.545  12.152  14.782  0.00  0.00     0.223 C 
HETATM   14  C   UNK N   1      33.735  10.874  14.548  0.00  0.00     0.036 C 
HETATM   15  C   UNK N   1      34.008  10.323  13.149  0.00  0.00     0.004 C 
HETATM   16  C   UNK N   1      35.502  10.259  12.823  0.00  0.00     0.030 C 
HETATM   17  C   UNK N   1      36.377  10.636  14.021  0.00  0.00     0.272 C 
HETATM   18  N   UNK N   1      36.005  11.940  14.588  0.00  0.00     0.088 N 
HETATM   19  C   UNK N   1      36.583  12.990  13.753  0.00  0.00     0.310 C 
ENDBRANCH  12  13
ENDBRANCH   1  12
TORSDOF 5
ENDMDL
MODEL 7
REMARK VINA RESULT:      -5.2      1.272      2.456
REMARK  5 active torsions:
REMARK  status: ('A' for Active; 'I' for Inactive)
REMARK    1  A    between atoms: C_1  and  C_3 
REMARK    2  A    between atoms: C_1  and  C_17 
REMARK    3  A    between atoms: C_3  and  C_4 
REMARK    4  A    between atoms: C_4  and  C_11 
REMARK    5  A    between atoms: C_16  and  C_17 
ROOT
HETATM    1  C   UNK N   1      27.593  23.569  -6.674  0.00  0.00    -0.016 C 
HETATM    2  C   UNK N   1      26.215  22.922  -6.680  0.00  0.00     0.010 C 
ENDROOT
BRANCH   1   3
HETATM    3  C   UNK N   1      27.546  24.822  -7.548  0.00  0.00     0.013 C 
BRANCH   3   4
HETATM    4  C   UNK N   1      26.207  25.574  -7.459  0.00  0.00     0.015 C 
HETATM    5  C   UNK N   1      25.824  26.044  -8.853  0.00  0.00     0.015 C 
BRANCH   4   6
HETATM    6  C   UNK N   1      26.251  26.745  -6.503  0.00  0.00    -0.054 A 
HETATM    7  C   UNK N   1      27.216  27.757  -6.621  0.00  0.00     0.007 A 
HETATM    8  C   UNK N   1      27.257  28.807  -5.697  0.00  0.00     0.001 A 
HETATM    9  C   UNK N   1      26.338  28.850  -4.647  0.00  0.00     0.000 A 
HETATM   10  C   UNK N   1      25.375  27.847  -4.520  0.00  0.00     0.001 A 
HETATM   11  C   UNK N   1      25.332  26.797  -5.442  0.00  0.00     0.007 A 
ENDBRANCH   4   6
ENDBRANCH   3   4
ENDBRANCH   1   3
BRANCH   1  12
HETATM   12  C   UNK N   1      27.986  23.972  -5.252  0.00  0.00     0.040 C 
BRANCH  12  13
HETATM   13  C   UNK N   1      29.428  23.625  -4.857  0.00  0.00     0.223 C 
HETATM   14  C   UNK N   1      29.585  22.108  -4.991  0.00  0.00     0.036 C 
HETATM   15  C   UNK N   1      30.989  21.680  -4.562  0.00  0.00     0.004 C 
HETATM   16  C   UNK N   1      31.409  22.299  -3.226  0.00  0.00     0.030 C 
HETATM   17  C   UNK N   1      30.277  23.093  -2.570  0.00  0.00     0.272 C 
HETATM   18  N   UNK N   1      29.712  24.103  -3.477  0.00  0.00     0.088 N 
HETATM   19  C   UNK N   1      30.602  25.261  -3.494  0.00  0.00     0.310 C 
ENDBRANCH  12  13
ENDBRANCH   1  12
TORSDOF 5
ENDMDL
MODEL 8
REMARK VINA RESULT:      -5.2      1.448      2.496
REMARK  5 active torsions:
REMARK  status: ('A' for Active; 'I' for Inactive)
REMARK    1  A    between atoms: C_1  and  C_3 
REMARK    2  A    between atoms: C_1  and  C_17 
REMARK    3  A    between atoms: C_3  and  C_4 
REMARK    4  A    between atoms: C_4  and  C_11 
REMARK    5  A    between atoms: C_16  and  C_17 
ROOT
HETATM    1  C   UNK N   1      28.782  24.363  -7.545  0.00  0.00    -0.016 C 
HETATM    2  C   UNK N   1      27.703  23.301  -7.391  0.00  0.00     0.010 C 
ENDROOT
BRANCH   1   3
HETATM    3  C   UNK N   1      28.141  25.632  -8.104  0.00  0.00     0.013 C 
BRANCH   3   4
HETATM    4  C   UNK N   1      26.681  25.821  -7.658  0.00  0.00     0.015 C 
HETATM    5  C   UNK N   1      25.840  26.143  -8.883  0.00  0.00     0.015 C 
BRANCH   4   6
HETATM    6  C   UNK N   1      26.519  26.900  -6.611  0.00  0.00    -0.054 A 
HETATM    7  C   UNK N   1      27.406  27.986  -6.528  0.00  0.00     0.007 A 
HETATM    8  C   UNK N   1      27.255  28.948  -5.524  0.00  0.00     0.001 A 
HETATM    9  C   UNK N   1      26.221  28.830  -4.592  0.00  0.00     0.000 A 
HETATM   10  C   UNK N   1      25.335  27.752  -4.665  0.00  0.00     0.001 A 
HETATM   11  C   UNK N   1      25.484  26.790  -5.668  0.00  0.00     0.007 A 
ENDBRANCH   4   6
ENDBRANCH   3   4
ENDBRANCH   1   3
BRANCH   1  12
HETATM   12  C   UNK N   1      29.412  24.682  -6.188  0.00  0.00     0.040 C 
BRANCH  12  13
HETATM   13  C   UNK N   1      28.917  23.812  -5.025  0.00  0.00     0.223 C 
HETATM   14  C   UNK N   1      28.113  24.717  -4.088  0.00  0.00     0.036 C 
HETATM   15  C   UNK N   1      27.629  23.926  -2.873  0.00  0.00     0.004 C 
HETATM   16  C   UNK N   1      28.741  23.092  -2.233  0.00  0.00     0.030 C 
HETATM   17  C   UNK N   1      30.106  23.347  -2.879  0.00  0.00     0.272 C 
HETATM   18  N   UNK N   1      30.069  23.168  -4.337  0.00  0.00     0.088 N 
HETATM   19  C   UNK N   1      30.125  21.738  -4.631  0.00  0.00     0.310 C 
ENDBRANCH  12  13
ENDBRANCH   1  12
TORSDOF 5
ENDMDL
MODEL 9
REMARK VINA RESULT:      -5.2     13.775     15.876
REMARK  5 active torsions:
REMARK  status: ('A' for Active; 'I' for Inactive)
REMARK    1  A    between atoms: C_1  and  C_3 
REMARK    2  A    between atoms: C_1  and  C_17 
REMARK    3  A    between atoms: C_3  and  C_4 
REMARK    4  A    between atoms: C_4  and  C_11 
REMARK    5  A    between atoms: C_16  and  C_17 
ROOT
HETATM    1  C   UNK N   1      29.718  17.473   8.351  0.00  0.00    -0.016 C 
HETATM    2  C   UNK N   1      28.804  17.577   9.564  0.00  0.00     0.010 C 
ENDROOT
BRANCH   1   3
HETATM    3  C   UNK N   1      29.118  18.302   7.216  0.00  0.00     0.013 C 
BRANCH   3   4
HETATM    4  C   UNK N   1      28.742  17.461   5.984  0.00  0.00     0.015 C 
HETATM    5  C   UNK N   1      27.703  16.432   6.401  0.00  0.00     0.015 C 
BRANCH   4   6
HETATM    6  C   UNK N   1      29.933  16.778   5.351  0.00  0.00    -0.054 A 
HETATM    7  C   UNK N   1      30.029  15.379   5.278  0.00  0.00     0.007 A 
HETATM    8  C   UNK N   1      31.161  14.775   4.722  0.00  0.00     0.001 A 
HETATM    9  C   UNK N   1      32.209  15.563   4.241  0.00  0.00     0.000 A 
HETATM   10  C   UNK N   1      32.124  16.956   4.309  0.00  0.00     0.001 A 
HETATM   11  C   UNK N   1      30.993  17.561   4.864  0.00  0.00     0.007 A 
ENDBRANCH   4   6
ENDBRANCH   3   4
ENDBRANCH   1   3
BRANCH   1  12
HETATM   12  C   UNK N   1      31.107  18.021   8.683  0.00  0.00     0.040 C 
BRANCH  12  13
HETATM   13  C   UNK N   1      32.277  17.182   8.151  0.00  0.00     0.223 C 
HETATM   14  C   UNK N   1      31.922  15.709   8.375  0.00  0.00     0.036 C 
HETATM   15  C   UNK N   1      33.069  14.811   7.913  0.00  0.00     0.004 C 
HETATM   16  C   UNK N   1      34.429  15.277   8.441  0.00  0.00     0.030 C 
HETATM   17  C   UNK N   1      34.305  16.454   9.412  0.00  0.00     0.272 C 
HETATM   18  N   UNK N   1      33.541  17.569   8.836  0.00  0.00     0.088 N 
HETATM   19  C   UNK N   1      34.417  18.318   7.938  0.00  0.00     0.310 C 
ENDBRANCH  12  13
ENDBRANCH   1  12
TORSDOF 5
ENDMDL
