MODEL 1
REMARK VINA RESULT:      -6.6      0.000      0.000
REMARK  8 active torsions:
REMARK  status: ('A' for Active; 'I' for Inactive)
REMARK    1  A    between atoms: C_2  and  O_4 
REMARK    2  A    between atoms: O_4  and  C_5 
REMARK    3  A    between atoms: C_9  and  N_10 
REMARK       I    between atoms: N_10  and  C_11 
REMARK    4  A    between atoms: C_11  and  C_13 
REMARK    5  A    between atoms: C_17  and  O_18 
REMARK    6  A    between atoms: O_18  and  C_19 
REMARK    7  A    between atoms: C_19  and  C_20 
REMARK    8  A    between atoms: C_20  and  N_21 
ROOT
HETATM    1  C   UNK N   1      21.852  16.091   6.657  0.00  0.00     0.035 A 
HETATM    2  C   UNK N   1      20.957  15.738   7.663  0.00  0.00     0.044 A 
HETATM    3  C   UNK N   1      21.207  14.636   8.484  0.00  0.00     0.070 A 
HETATM    4 Cl   UNK N   1      20.041  14.348   9.770  0.00  0.00    -0.081 Cl
HETATM    5  C   UNK N   1      22.399  13.871   8.292  0.00  0.00     0.112 A 
HETATM    6  C   UNK N   1      23.287  14.245   7.272  0.00  0.00     0.070 A 
HETATM    7 Cl   UNK N   1      24.785  13.369   7.006  0.00  0.00    -0.081 Cl
HETATM    8  C   UNK N   1      23.017  15.343   6.475  0.00  0.00     0.044 A 
ENDROOT
BRANCH   1   9
HETATM    9  C   UNK N   1      21.751  17.384   5.986  0.00  0.00     0.256 C 
HETATM   10  N   UNK N   1      21.942  17.405   4.650  0.00  0.00    -0.323 N 
HETATM   11  H   UNK N   1      21.576  16.659   4.123  0.00  0.00     0.169 HD
HETATM   12  O   UNK N   1      21.743  18.424   6.644  0.00  0.00    -0.267 OA
BRANCH  10  13
HETATM   13  C   UNK N   1      22.630  18.422   3.956  0.00  0.00     0.037 A 
HETATM   14  C   UNK N   1      21.924  19.448   3.303  0.00  0.00     0.029 A 
HETATM   15  C   UNK N   1      22.601  20.554   2.798  0.00  0.00     0.005 A 
HETATM   16  C   UNK N   1      23.984  20.646   2.951  0.00  0.00     0.037 A 
HETATM   17  C   UNK N   1      24.695  19.636   3.621  0.00  0.00     0.071 A 
HETATM   18  C   UNK N   1      24.005  18.542   4.140  0.00  0.00     0.066 A 
BRANCH  17  19
HETATM   19  O   UNK N   1      26.035  19.699   3.793  0.00  0.00    -0.347 OA
BRANCH  19  20
HETATM   20  C   UNK N   1      26.678  19.666   5.018  0.00  0.00     0.120 C 
HETATM   21  C   UNK N   1      26.577  21.033   5.656  0.00  0.00     0.040 C 
HETATM   22  C   UNK N   1      28.142  19.271   4.936  0.00  0.00     0.040 C 
ENDBRANCH  19  20
ENDBRANCH  17  19
ENDBRANCH  10  13
ENDBRANCH   1   9
BRANCH   5  23
HETATM   23  O   UNK N   1      22.744  12.795   9.046  0.00  0.00    -0.346 OA
BRANCH  23  24
HETATM   24  C   UNK N   1      23.260  12.820  10.318  0.00  0.00     0.195 C 
BRANCH  24  25
HETATM   25  C   UNK N   1      24.669  12.260  10.299  0.00  0.00     0.137 C 
BRANCH  25  26
HETATM   26  N   UNK N   1      25.596  13.230  10.855  0.00  0.00    -0.428 N 
HETATM   27  H   UNK N   1      26.308  13.398  11.567  0.00  0.00     0.149 HD
HETATM   28  H   UNK N   1      25.495  14.090  10.317  0.00  0.00     0.149 HD
ENDBRANCH  25  26
ENDBRANCH  24  25
ENDBRANCH  23  24
ENDBRANCH   5  23
TORSDOF 8
ENDMDL
MODEL 2
REMARK VINA RESULT:      -6.5      0.967      2.207
REMARK  8 active torsions:
REMARK  status: ('A' for Active; 'I' for Inactive)
REMARK    1  A    between atoms: C_2  and  O_4 
REMARK    2  A    between atoms: O_4  and  C_5 
REMARK    3  A    between atoms: C_9  and  N_10 
REMARK       I    between atoms: N_10  and  C_11 
REMARK    4  A    between atoms: C_11  and  C_13 
REMARK    5  A    between atoms: C_17  and  O_18 
REMARK    6  A    between atoms: O_18  and  C_19 
REMARK    7  A    between atoms: C_19  and  C_20 
REMARK    8  A    between atoms: C_20  and  N_21 
ROOT
HETATM    1  C   UNK N   1      21.513  16.416   7.123  0.00  0.00     0.035 A 
HETATM    2  C   UNK N   1      22.374  15.359   6.841  0.00  0.00     0.044 A 
HETATM    3  C   UNK N   1      22.232  14.132   7.492  0.00  0.00     0.070 A 
HETATM    4 Cl   UNK N   1      23.330  12.855   6.985  0.00  0.00    -0.081 Cl
HETATM    5  C   UNK N   1      21.185  13.960   8.451  0.00  0.00     0.112 A 
HETATM    6  C   UNK N   1      20.330  15.040   8.719  0.00  0.00     0.070 A 
HETATM    7 Cl   UNK N   1      19.003  14.884   9.859  0.00  0.00    -0.081 Cl
HETATM    8  C   UNK N   1      20.489  16.244   8.057  0.00  0.00     0.044 A 
ENDROOT
BRANCH   1   9
HETATM    9  C   UNK N   1      21.468  17.594   6.261  0.00  0.00     0.256 C 
HETATM   10  N   UNK N   1      21.793  17.424   4.961  0.00  0.00    -0.323 N 
HETATM   11  H   UNK N   1      21.488  16.600   4.517  0.00  0.00     0.169 HD
HETATM   12  O   UNK N   1      21.386  18.718   6.753  0.00  0.00    -0.267 OA
BRANCH  10  13
HETATM   13  C   UNK N   1      22.538  18.344   4.195  0.00  0.00     0.037 A 
HETATM   14  C   UNK N   1      21.894  19.363   3.473  0.00  0.00     0.029 A 
HETATM   15  C   UNK N   1      22.634  20.385   2.888  0.00  0.00     0.005 A 
HETATM   16  C   UNK N   1      24.021  20.401   3.031  0.00  0.00     0.037 A 
HETATM   17  C   UNK N   1      24.672  19.399   3.770  0.00  0.00     0.071 A 
HETATM   18  C   UNK N   1      23.919  18.390   4.367  0.00  0.00     0.066 A 
BRANCH  17  19
HETATM   19  O   UNK N   1      26.015  19.389   3.934  0.00  0.00    -0.347 OA
BRANCH  19  20
HETATM   20  C   UNK N   1      26.748  20.407   4.519  0.00  0.00     0.120 C 
HETATM   21  C   UNK N   1      28.194  19.971   4.614  0.00  0.00     0.040 C 
HETATM   22  C   UNK N   1      26.262  20.800   5.903  0.00  0.00     0.040 C 
ENDBRANCH  19  20
ENDBRANCH  17  19
ENDBRANCH  10  13
ENDBRANCH   1   9
BRANCH   5  23
HETATM   23  O   UNK N   1      20.951  12.805   9.125  0.00  0.00    -0.346 OA
BRANCH  23  24
HETATM   24  C   UNK N   1      21.340  12.516  10.409  0.00  0.00     0.195 C 
BRANCH  24  25
HETATM   25  C   UNK N   1      22.673  11.790  10.379  0.00  0.00     0.137 C 
BRANCH  25  26
HETATM   26  N   UNK N   1      23.684  12.581  11.058  0.00  0.00    -0.428 N 
HETATM   27  H   UNK N   1      24.671  12.644  11.308  0.00  0.00     0.149 HD
HETATM   28  H   UNK N   1      23.221  13.405  11.438  0.00  0.00     0.149 HD
ENDBRANCH  25  26
ENDBRANCH  24  25
ENDBRANCH  23  24
ENDBRANCH   5  23
TORSDOF 8
ENDMDL
MODEL 3
REMARK VINA RESULT:      -6.4      4.235      7.555
REMARK  8 active torsions:
REMARK  status: ('A' for Active; 'I' for Inactive)
REMARK    1  A    between atoms: C_2  and  O_4 
REMARK    2  A    between atoms: O_4  and  C_5 
REMARK    3  A    between atoms: C_9  and  N_10 
REMARK       I    between atoms: N_10  and  C_11 
REMARK    4  A    between atoms: C_11  and  C_13 
REMARK    5  A    between atoms: C_17  and  O_18 
REMARK    6  A    between atoms: O_18  and  C_19 
REMARK    7  A    between atoms: C_19  and  C_20 
REMARK    8  A    between atoms: C_20  and  N_21 
ROOT
HETATM    1  C   UNK N   1      26.063  18.315   4.521  0.00  0.00     0.035 A 
HETATM    2  C   UNK N   1      25.435  19.350   3.835  0.00  0.00     0.044 A 
HETATM    3  C   UNK N   1      24.048  19.357   3.670  0.00  0.00     0.070 A 
HETATM    4 Cl   UNK N   1      23.372  20.764   2.859  0.00  0.00    -0.081 Cl
HETATM    5  C   UNK N   1      23.268  18.293   4.220  0.00  0.00     0.112 A 
HETATM    6  C   UNK N   1      23.923  17.259   4.907  0.00  0.00     0.070 A 
HETATM    7 Cl   UNK N   1      23.020  15.941   5.636  0.00  0.00    -0.081 Cl
HETATM    8  C   UNK N   1      25.297  17.278   5.060  0.00  0.00     0.044 A 
ENDROOT
BRANCH   1   9
HETATM    9  C   UNK N   1      27.456  18.433   4.943  0.00  0.00     0.256 C 
HETATM   10  N   UNK N   1      27.902  17.551   5.863  0.00  0.00    -0.323 N 
HETATM   11  H   UNK N   1      27.589  16.621   5.794  0.00  0.00     0.169 HD
HETATM   12  O   UNK N   1      28.105  19.438   4.659  0.00  0.00    -0.267 OA
BRANCH  10  13
HETATM   13  C   UNK N   1      28.785  17.871   6.915  0.00  0.00     0.037 A 
HETATM   14  C   UNK N   1      28.298  18.401   8.122  0.00  0.00     0.029 A 
HETATM   15  C   UNK N   1      29.138  18.522   9.225  0.00  0.00     0.005 A 
HETATM   16  C   UNK N   1      30.465  18.105   9.130  0.00  0.00     0.037 A 
HETATM   17  C   UNK N   1      30.955  17.554   7.935  0.00  0.00     0.071 A 
HETATM   18  C   UNK N   1      30.100  17.420   6.842  0.00  0.00     0.066 A 
BRANCH  17  19
HETATM   19  O   UNK N   1      32.235  17.132   7.812  0.00  0.00    -0.347 OA
BRANCH  19  20
HETATM   20  C   UNK N   1      33.271  17.889   7.294  0.00  0.00     0.120 C 
HETATM   21  C   UNK N   1      33.794  17.208   6.049  0.00  0.00     0.040 C 
HETATM   22  C   UNK N   1      34.424  18.099   8.260  0.00  0.00     0.040 C 
ENDBRANCH  19  20
ENDBRANCH  17  19
ENDBRANCH  10  13
ENDBRANCH   1   9
BRANCH   5  23
HETATM   23  O   UNK N   1      21.915  18.215   4.130  0.00  0.00    -0.346 OA
BRANCH  23  24
HETATM   24  C   UNK N   1      21.193  17.760   3.055  0.00  0.00     0.195 C 
BRANCH  24  25
HETATM   25  C   UNK N   1      19.719  17.735   3.414  0.00  0.00     0.137 C 
BRANCH  25  26
HETATM   26  N   UNK N   1      18.945  18.397   2.379  0.00  0.00    -0.428 N 
HETATM   27  H   UNK N   1      18.075  18.885   2.165  0.00  0.00     0.149 HD
HETATM   28  H   UNK N   1      19.492  18.360   1.520  0.00  0.00     0.149 HD
ENDBRANCH  25  26
ENDBRANCH  24  25
ENDBRANCH  23  24
ENDBRANCH   5  23
TORSDOF 8
ENDMDL
MODEL 4
REMARK VINA RESULT:      -6.3      4.234      7.567
REMARK  8 active torsions:
REMARK  status: ('A' for Active; 'I' for Inactive)
REMARK    1  A    between atoms: C_2  and  O_4 
REMARK    2  A    between atoms: O_4  and  C_5 
REMARK    3  A    between atoms: C_9  and  N_10 
REMARK       I    between atoms: N_10  and  C_11 
REMARK    4  A    between atoms: C_11  and  C_13 
REMARK    5  A    between atoms: C_17  and  O_18 
REMARK    6  A    between atoms: O_18  and  C_19 
REMARK    7  A    between atoms: C_19  and  C_20 
REMARK    8  A    between atoms: C_20  and  N_21 
ROOT
HETATM    1  C   UNK N   1      25.769  18.132   4.905  0.00  0.00     0.035 A 
HETATM    2  C   UNK N   1      24.996  16.980   5.026  0.00  0.00     0.044 A 
HETATM    3  C   UNK N   1      23.703  16.933   4.501  0.00  0.00     0.070 A 
HETATM    4 Cl   UNK N   1      22.865  15.393   4.646  0.00  0.00    -0.081 Cl
HETATM    5  C   UNK N   1      23.174  18.076   3.826  0.00  0.00     0.112 A 
HETATM    6  C   UNK N   1      23.971  19.227   3.717  0.00  0.00     0.070 A 
HETATM    7 Cl   UNK N   1      23.395  20.652   2.870  0.00  0.00    -0.081 Cl
HETATM    8  C   UNK N   1      25.250  19.246   4.242  0.00  0.00     0.044 A 
ENDROOT
BRANCH   1   9
HETATM    9  C   UNK N   1      27.200  18.105   5.193  0.00  0.00     0.256 C 
HETATM   10  N   UNK N   1      27.605  17.376   6.254  0.00  0.00    -0.323 N 
HETATM   11  H   UNK N   1      27.155  16.516   6.419  0.00  0.00     0.169 HD
HETATM   12  O   UNK N   1      27.956  18.906   4.646  0.00  0.00    -0.267 OA
BRANCH  10  13
HETATM   13  C   UNK N   1      28.629  17.760   7.145  0.00  0.00     0.037 A 
HETATM   14  C   UNK N   1      28.320  18.380   8.367  0.00  0.00     0.029 A 
HETATM   15  C   UNK N   1      29.308  18.571   9.328  0.00  0.00     0.005 A 
HETATM   16  C   UNK N   1      30.608  18.133   9.077  0.00  0.00     0.037 A 
HETATM   17  C   UNK N   1      30.922  17.493   7.867  0.00  0.00     0.071 A 
HETATM   18  C   UNK N   1      29.920  17.290   6.919  0.00  0.00     0.066 A 
BRANCH  17  19
HETATM   19  O   UNK N   1      32.171  17.049   7.595  0.00  0.00    -0.347 OA
BRANCH  19  20
HETATM   20  C   UNK N   1      33.213  17.843   7.148  0.00  0.00     0.120 C 
HETATM   21  C   UNK N   1      33.721  17.285   5.837  0.00  0.00     0.040 C 
HETATM   22  C   UNK N   1      34.374  17.943   8.121  0.00  0.00     0.040 C 
ENDBRANCH  19  20
ENDBRANCH  17  19
ENDBRANCH  10  13
ENDBRANCH   1   9
BRANCH   5  23
HETATM   23  O   UNK N   1      21.937  18.127   3.266  0.00  0.00    -0.346 OA
BRANCH  23  24
HETATM   24  C   UNK N   1      20.776  18.515   3.885  0.00  0.00     0.195 C 
BRANCH  24  25
HETATM   25  C   UNK N   1      19.953  19.357   2.929  0.00  0.00     0.137 C 
BRANCH  25  26
HETATM   26  N   UNK N   1      18.866  18.564   2.380  0.00  0.00    -0.428 N 
HETATM   27  H   UNK N   1      17.973  18.593   1.888  0.00  0.00     0.149 HD
HETATM   28  H   UNK N   1      19.085  17.585   2.557  0.00  0.00     0.149 HD
ENDBRANCH  25  26
ENDBRANCH  24  25
ENDBRANCH  23  24
ENDBRANCH   5  23
TORSDOF 8
ENDMDL
MODEL 5
REMARK VINA RESULT:      -6.3      4.859      7.599
REMARK  8 active torsions:
REMARK  status: ('A' for Active; 'I' for Inactive)
REMARK    1  A    between atoms: C_2  and  O_4 
REMARK    2  A    between atoms: O_4  and  C_5 
REMARK    3  A    between atoms: C_9  and  N_10 
REMARK       I    between atoms: N_10  and  C_11 
REMARK    4  A    between atoms: C_11  and  C_13 
REMARK    5  A    between atoms: C_17  and  O_18 
REMARK    6  A    between atoms: O_18  and  C_19 
REMARK    7  A    between atoms: C_19  and  C_20 
REMARK    8  A    between atoms: C_20  and  N_21 
ROOT
HETATM    1  C   UNK N   1      29.641  17.590   5.478  0.00  0.00     0.035 A 
HETATM    2  C   UNK N   1      29.297  17.630   6.826  0.00  0.00     0.044 A 
HETATM    3  C   UNK N   1      30.277  17.517   7.814  0.00  0.00     0.070 A 
HETATM    4 Cl   UNK N   1      29.721  17.667   9.477  0.00  0.00    -0.081 Cl
HETATM    5  C   UNK N   1      31.647  17.368   7.435  0.00  0.00     0.112 A 
HETATM    6  C   UNK N   1      31.970  17.329   6.070  0.00  0.00     0.070 A 
HETATM    7 Cl   UNK N   1      33.637  17.184   5.536  0.00  0.00    -0.081 Cl
HETATM    8  C   UNK N   1      30.981  17.448   5.110  0.00  0.00     0.044 A 
ENDROOT
BRANCH   1   9
HETATM    9  C   UNK N   1      28.682  17.985   4.449  0.00  0.00     0.256 C 
HETATM   10  N   UNK N   1      28.135  19.215   4.552  0.00  0.00    -0.323 N 
HETATM   11  H   UNK N   1      28.715  19.951   4.853  0.00  0.00     0.169 HD
HETATM   12  O   UNK N   1      28.217  17.144   3.682  0.00  0.00    -0.267 OA
BRANCH  10  13
HETATM   13  C   UNK N   1      26.790  19.519   4.260  0.00  0.00     0.037 A 
HETATM   14  C   UNK N   1      26.466  20.419   3.231  0.00  0.00     0.029 A 
HETATM   15  C   UNK N   1      25.147  20.561   2.811  0.00  0.00     0.005 A 
HETATM   16  C   UNK N   1      24.147  19.795   3.408  0.00  0.00     0.037 A 
HETATM   17  C   UNK N   1      24.463  18.876   4.423  0.00  0.00     0.071 A 
HETATM   18  C   UNK N   1      25.790  18.729   4.823  0.00  0.00     0.066 A 
BRANCH  17  19
HETATM   19  O   UNK N   1      23.518  18.113   5.018  0.00  0.00    -0.347 OA
BRANCH  19  20
HETATM   20  C   UNK N   1      22.153  18.285   4.869  0.00  0.00     0.120 C 
HETATM   21  C   UNK N   1      21.498  18.178   6.228  0.00  0.00     0.040 C 
HETATM   22  C   UNK N   1      21.503  17.282   3.932  0.00  0.00     0.040 C 
ENDBRANCH  19  20
ENDBRANCH  17  19
ENDBRANCH  10  13
ENDBRANCH   1   9
BRANCH   5  23
HETATM   23  O   UNK N   1      32.676  17.267   8.316  0.00  0.00    -0.346 OA
BRANCH  23  24
HETATM   24  C   UNK N   1      33.156  16.113   8.882  0.00  0.00     0.195 C 
BRANCH  24  25
HETATM   25  C   UNK N   1      34.638  16.271   9.164  0.00  0.00     0.137 C 
BRANCH  25  26
HETATM   26  N   UNK N   1      34.832  17.045  10.378  0.00  0.00    -0.428 N 
HETATM   27  H   UNK N   1      34.441  17.290  11.287  0.00  0.00     0.149 HD
HETATM   28  H   UNK N   1      35.716  17.544  10.282  0.00  0.00     0.149 HD
ENDBRANCH  25  26
ENDBRANCH  24  25
ENDBRANCH  23  24
ENDBRANCH   5  23
TORSDOF 8
ENDMDL
MODEL 6
REMARK VINA RESULT:      -6.3     10.536     13.094
REMARK  8 active torsions:
REMARK  status: ('A' for Active; 'I' for Inactive)
REMARK    1  A    between atoms: C_2  and  O_4 
REMARK    2  A    between atoms: O_4  and  C_5 
REMARK    3  A    between atoms: C_9  and  N_10 
REMARK       I    between atoms: N_10  and  C_11 
REMARK    4  A    between atoms: C_11  and  C_13 
REMARK    5  A    between atoms: C_17  and  O_18 
REMARK    6  A    between atoms: O_18  and  C_19 
REMARK    7  A    between atoms: C_19  and  C_20 
REMARK    8  A    between atoms: C_20  and  N_21 
ROOT
HETATM    1  C   UNK N   1      35.648  14.228  12.596  0.00  0.00     0.035 A 
HETATM    2  C   UNK N   1      34.941  13.082  12.949  0.00  0.00     0.044 A 
HETATM    3  C   UNK N   1      34.997  12.584  14.252  0.00  0.00     0.070 A 
HETATM    4 Cl   UNK N   1      33.991  11.181  14.589  0.00  0.00    -0.081 Cl
HETATM    5  C   UNK N   1      35.783  13.265  15.234  0.00  0.00     0.112 A 
HETATM    6  C   UNK N   1      36.489  14.417  14.855  0.00  0.00     0.070 A 
HETATM    7 Cl   UNK N   1      37.444  15.320  16.019  0.00  0.00    -0.081 Cl
HETATM    8  C   UNK N   1      36.413  14.892  13.558  0.00  0.00     0.044 A 
ENDROOT
BRANCH   1   9
HETATM    9  C   UNK N   1      35.381  14.913  11.334  0.00  0.00     0.256 C 
HETATM   10  N   UNK N   1      34.093  15.001  10.939  0.00  0.00    -0.323 N 
HETATM   11  H   UNK N   1      33.412  15.168  11.630  0.00  0.00     0.169 HD
HETATM   12  O   UNK N   1      36.302  15.168  10.561  0.00  0.00    -0.267 OA
BRANCH  10  13
HETATM   13  C   UNK N   1      33.655  14.870   9.605  0.00  0.00     0.037 A 
HETATM   14  C   UNK N   1      33.703  13.626   8.953  0.00  0.00     0.029 A 
HETATM   15  C   UNK N   1      33.086  13.456   7.718  0.00  0.00     0.005 A 
HETATM   16  C   UNK N   1      32.408  14.524   7.132  0.00  0.00     0.037 A 
HETATM   17  C   UNK N   1      32.336  15.766   7.786  0.00  0.00     0.071 A 
HETATM   18  C   UNK N   1      32.942  15.920   9.031  0.00  0.00     0.066 A 
BRANCH  17  19
HETATM   19  O   UNK N   1      31.680  16.821   7.248  0.00  0.00    -0.347 OA
BRANCH  19  20
HETATM   20  C   UNK N   1      30.783  16.743   6.198  0.00  0.00     0.120 C 
HETATM   21  C   UNK N   1      31.424  17.343   4.966  0.00  0.00     0.040 C 
HETATM   22  C   UNK N   1      29.465  17.450   6.459  0.00  0.00     0.040 C 
ENDBRANCH  19  20
ENDBRANCH  17  19
ENDBRANCH  10  13
ENDBRANCH   1   9
BRANCH   5  23
HETATM   23  O   UNK N   1      35.891  12.873  16.530  0.00  0.00    -0.346 OA
BRANCH  23  24
HETATM   24  C   UNK N   1      34.963  13.071  17.522  0.00  0.00     0.195 C 
BRANCH  24  25
HETATM   25  C   UNK N   1      35.314  12.206  18.718  0.00  0.00     0.137 C 
BRANCH  25  26
HETATM   26  N   UNK N   1      35.320  13.010  19.927  0.00  0.00    -0.428 N 
HETATM   27  H   UNK N   1      35.901  13.521  20.592  0.00  0.00     0.149 HD
HETATM   28  H   UNK N   1      34.353  13.101  20.236  0.00  0.00     0.149 HD
ENDBRANCH  25  26
ENDBRANCH  24  25
ENDBRANCH  23  24
ENDBRANCH   5  23
TORSDOF 8
ENDMDL
MODEL 7
REMARK VINA RESULT:      -6.2     10.068     12.729
REMARK  8 active torsions:
REMARK  status: ('A' for Active; 'I' for Inactive)
REMARK    1  A    between atoms: C_2  and  O_4 
REMARK    2  A    between atoms: O_4  and  C_5 
REMARK    3  A    between atoms: C_9  and  N_10 
REMARK       I    between atoms: N_10  and  C_11 
REMARK    4  A    between atoms: C_11  and  C_13 
REMARK    5  A    between atoms: C_17  and  O_18 
REMARK    6  A    between atoms: O_18  and  C_19 
REMARK    7  A    between atoms: C_19  and  C_20 
REMARK    8  A    between atoms: C_20  and  N_21 
ROOT
HETATM    1  C   UNK N   1      35.994  15.478  10.907  0.00  0.00     0.035 A 
HETATM    2  C   UNK N   1      36.819  14.743  10.063  0.00  0.00     0.044 A 
HETATM    3  C   UNK N   1      37.445  13.579  10.515  0.00  0.00     0.070 A 
HETATM    4 Cl   UNK N   1      38.394  12.697   9.325  0.00  0.00    -0.081 Cl
HETATM    5  C   UNK N   1      37.226  13.138  11.857  0.00  0.00     0.112 A 
HETATM    6  C   UNK N   1      36.390  13.896  12.691  0.00  0.00     0.070 A 
HETATM    7 Cl   UNK N   1      36.051  13.390  14.338  0.00  0.00    -0.081 Cl
HETATM    8  C   UNK N   1      35.779  15.043  12.217  0.00  0.00     0.044 A 
ENDROOT
BRANCH   1   9
HETATM    9  C   UNK N   1      35.121  16.523  10.376  0.00  0.00     0.256 C 
HETATM   10  N   UNK N   1      33.921  16.139   9.891  0.00  0.00    -0.323 N 
HETATM   11  H   UNK N   1      33.438  15.429  10.372  0.00  0.00     0.169 HD
HETATM   12  O   UNK N   1      35.565  17.648  10.157  0.00  0.00    -0.267 OA
BRANCH  10  13
HETATM   13  C   UNK N   1      33.311  16.684   8.742  0.00  0.00     0.037 A 
HETATM   14  C   UNK N   1      34.063  16.934   7.581  0.00  0.00     0.029 A 
HETATM   15  C   UNK N   1      33.427  17.276   6.392  0.00  0.00     0.005 A 
HETATM   16  C   UNK N   1      32.036  17.360   6.354  0.00  0.00     0.037 A 
HETATM   17  C   UNK N   1      31.274  17.092   7.503  0.00  0.00     0.071 A 
HETATM   18  C   UNK N   1      31.921  16.731   8.684  0.00  0.00     0.066 A 
BRANCH  17  19
HETATM   19  O   UNK N   1      29.923  17.157   7.497  0.00  0.00    -0.347 OA
BRANCH  19  20
HETATM   20  C   UNK N   1      29.182  18.255   7.899  0.00  0.00     0.120 C 
HETATM   21  C   UNK N   1      28.412  17.889   9.149  0.00  0.00     0.040 C 
HETATM   22  C   UNK N   1      28.206  18.758   6.851  0.00  0.00     0.040 C 
ENDBRANCH  19  20
ENDBRANCH  17  19
ENDBRANCH  10  13
ENDBRANCH   1   9
BRANCH   5  23
HETATM   23  O   UNK N   1      37.772  12.013  12.388  0.00  0.00    -0.346 OA
BRANCH  23  24
HETATM   24  C   UNK N   1      37.326  10.727  12.213  0.00  0.00     0.195 C 
BRANCH  24  25
HETATM   25  C   UNK N   1      37.545   9.940  13.491  0.00  0.00     0.137 C 
BRANCH  25  26
HETATM   26  N   UNK N   1      38.336  10.722  14.425  0.00  0.00    -0.428 N 
HETATM   27  H   UNK N   1      39.260  10.853  14.837  0.00  0.00     0.149 HD
HETATM   28  H   UNK N   1      37.719  11.422  14.834  0.00  0.00     0.149 HD
ENDBRANCH  25  26
ENDBRANCH  24  25
ENDBRANCH  23  24
ENDBRANCH   5  23
TORSDOF 8
ENDMDL
MODEL 8
REMARK VINA RESULT:      -6.2     12.870     15.731
REMARK  8 active torsions:
REMARK  status: ('A' for Active; 'I' for Inactive)
REMARK    1  A    between atoms: C_2  and  O_4 
REMARK    2  A    between atoms: O_4  and  C_5 
REMARK    3  A    between atoms: C_9  and  N_10 
REMARK       I    between atoms: N_10  and  C_11 
REMARK    4  A    between atoms: C_11  and  C_13 
REMARK    5  A    between atoms: C_17  and  O_18 
REMARK    6  A    between atoms: O_18  and  C_19 
REMARK    7  A    between atoms: C_19  and  C_20 
REMARK    8  A    between atoms: C_20  and  N_21 
ROOT
HETATM    1  C   UNK N   1      35.827  12.909  16.122  0.00  0.00     0.035 A 
HETATM    2  C   UNK N   1      35.344  13.269  17.376  0.00  0.00     0.044 A 
HETATM    3  C   UNK N   1      35.291  12.334  18.413  0.00  0.00     0.070 A 
HETATM    4 Cl   UNK N   1      34.739  12.937  19.971  0.00  0.00    -0.081 Cl
HETATM    5  C   UNK N   1      35.746  10.999  18.182  0.00  0.00     0.112 A 
HETATM    6  C   UNK N   1      36.229  10.660  16.909  0.00  0.00     0.070 A 
HETATM    7 Cl   UNK N   1      36.836   9.047  16.569  0.00  0.00    -0.081 Cl
HETATM    8  C   UNK N   1      36.274  11.605  15.900  0.00  0.00     0.044 A 
ENDROOT
BRANCH   1   9
HETATM    9  C   UNK N   1      36.150  13.927  15.125  0.00  0.00     0.256 C 
HETATM   10  N   UNK N   1      35.525  13.845  13.931  0.00  0.00    -0.323 N 
HETATM   11  H   UNK N   1      34.578  13.577  13.927  0.00  0.00     0.169 HD
HETATM   12  O   UNK N   1      37.123  14.662  15.284  0.00  0.00    -0.267 OA
BRANCH  10  13
HETATM   13  C   UNK N   1      36.134  14.117  12.689  0.00  0.00     0.037 A 
HETATM   14  C   UNK N   1      36.985  13.174  12.087  0.00  0.00     0.029 A 
HETATM   15  C   UNK N   1      37.419  13.355  10.777  0.00  0.00     0.005 A 
HETATM   16  C   UNK N   1      36.996  14.473  10.059  0.00  0.00     0.037 A 
HETATM   17  C   UNK N   1      36.128  15.409  10.644  0.00  0.00     0.071 A 
HETATM   18  C   UNK N   1      35.685  15.208  11.950  0.00  0.00     0.066 A 
BRANCH  17  19
HETATM   19  O   UNK N   1      35.693  16.500   9.972  0.00  0.00    -0.347 OA
BRANCH  19  20
HETATM   20  C   UNK N   1      34.818  16.472   8.901  0.00  0.00     0.120 C 
HETATM   21  C   UNK N   1      34.501  17.895   8.496  0.00  0.00     0.040 C 
HETATM   22  C   UNK N   1      33.517  15.742   9.185  0.00  0.00     0.040 C 
ENDBRANCH  19  20
ENDBRANCH  17  19
ENDBRANCH  10  13
ENDBRANCH   1   9
BRANCH   5  23
HETATM   23  O   UNK N   1      35.753  10.022  19.126  0.00  0.00    -0.346 OA
BRANCH  23  24
HETATM   24  C   UNK N   1      34.664   9.326  19.588  0.00  0.00     0.195 C 
BRANCH  24  25
HETATM   25  C   UNK N   1      34.905   8.916  21.029  0.00  0.00     0.137 C 
BRANCH  25  26
HETATM   26  N   UNK N   1      35.393  10.051  21.793  0.00  0.00    -0.428 N 
HETATM   27  H   UNK N   1      35.673  11.031  21.752  0.00  0.00     0.149 HD
HETATM   28  H   UNK N   1      35.497   9.745  22.759  0.00  0.00     0.149 HD
ENDBRANCH  25  26
ENDBRANCH  24  25
ENDBRANCH  23  24
ENDBRANCH   5  23
TORSDOF 8
ENDMDL
MODEL 9
REMARK VINA RESULT:      -6.1      8.902     12.773
REMARK  8 active torsions:
REMARK  status: ('A' for Active; 'I' for Inactive)
REMARK    1  A    between atoms: C_2  and  O_4 
REMARK    2  A    between atoms: O_4  and  C_5 
REMARK    3  A    between atoms: C_9  and  N_10 
REMARK       I    between atoms: N_10  and  C_11 
REMARK    4  A    between atoms: C_11  and  C_13 
REMARK    5  A    between atoms: C_17  and  O_18 
REMARK    6  A    between atoms: O_18  and  C_19 
REMARK    7  A    between atoms: C_19  and  C_20 
REMARK    8  A    between atoms: C_20  and  N_21 
ROOT
HETATM    1  C   UNK N   1      33.346  16.286   8.348  0.00  0.00     0.035 A 
HETATM    2  C   UNK N   1      32.560  17.337   8.813  0.00  0.00     0.044 A 
HETATM    3  C   UNK N   1      31.259  17.516   8.339  0.00  0.00     0.070 A 
HETATM    4 Cl   UNK N   1      30.343  18.829   9.069  0.00  0.00    -0.081 Cl
HETATM    5  C   UNK N   1      30.728  16.604   7.374  0.00  0.00     0.112 A 
HETATM    6  C   UNK N   1      31.539  15.553   6.919  0.00  0.00     0.070 A 
HETATM    7 Cl   UNK N   1      30.937  14.378   5.761  0.00  0.00    -0.081 Cl
HETATM    8  C   UNK N   1      32.824  15.396   7.407  0.00  0.00     0.044 A 
ENDROOT
BRANCH   1   9
HETATM    9  C   UNK N   1      34.586  15.922   9.029  0.00  0.00     0.256 C 
HETATM   10  N   UNK N   1      34.929  14.616   9.032  0.00  0.00    -0.323 N 
HETATM   11  H   UNK N   1      34.762  14.096   8.214  0.00  0.00     0.169 HD
HETATM   12  O   UNK N   1      35.146  16.728   9.769  0.00  0.00    -0.267 OA
BRANCH  10  13
HETATM   13  C   UNK N   1      35.510  13.945  10.128  0.00  0.00     0.037 A 
HETATM   14  C   UNK N   1      36.878  13.622  10.127  0.00  0.00     0.029 A 
HETATM   15  C   UNK N   1      37.488  13.148  11.284  0.00  0.00     0.005 A 
HETATM   16  C   UNK N   1      36.738  13.004  12.450  0.00  0.00     0.037 A 
HETATM   17  C   UNK N   1      35.375  13.344  12.467  0.00  0.00     0.071 A 
HETATM   18  C   UNK N   1      34.778  13.836  11.308  0.00  0.00     0.066 A 
BRANCH  17  19
HETATM   19  O   UNK N   1      34.621  13.224  13.584  0.00  0.00    -0.347 OA
BRANCH  19  20
HETATM   20  C   UNK N   1      34.842  12.302  14.592  0.00  0.00     0.120 C 
HETATM   21  C   UNK N   1      33.916  11.123  14.384  0.00  0.00     0.040 C 
HETATM   22  C   UNK N   1      34.626  12.854  15.990  0.00  0.00     0.040 C 
ENDBRANCH  19  20
ENDBRANCH  17  19
ENDBRANCH  10  13
ENDBRANCH   1   9
BRANCH   5  23
HETATM   23  O   UNK N   1      29.472  16.680   6.864  0.00  0.00    -0.346 OA
BRANCH  23  24
HETATM   24  C   UNK N   1      29.014  17.599   5.954  0.00  0.00     0.195 C 
BRANCH  24  25
HETATM   25  C   UNK N   1      27.568  17.939   6.267  0.00  0.00     0.137 C 
BRANCH  25  26
HETATM   26  N   UNK N   1      27.489  19.254   6.879  0.00  0.00    -0.428 N 
HETATM   27  H   UNK N   1      27.015  20.157   6.866  0.00  0.00     0.149 HD
HETATM   28  H   UNK N   1      28.187  19.286   7.620  0.00  0.00     0.149 HD
ENDBRANCH  25  26
ENDBRANCH  24  25
ENDBRANCH  23  24
ENDBRANCH   5  23
TORSDOF 8
ENDMDL
