MODEL 1
REMARK VINA RESULT:      -7.2      0.000      0.000
REMARK  7 active torsions:
REMARK  status: ('A' for Active; 'I' for Inactive)
REMARK    1  A    between atoms: C_9  and  C_12 
REMARK    2  A    between atoms: C_17  and  O_18 
REMARK    3  A    between atoms: O_18  and  C_19 
REMARK    4  A    between atoms: C_19  and  C_20 
REMARK    5  A    between atoms: C_20  and  N_21 
REMARK    6  A    between atoms: C_20  and  C_22 
REMARK    7  A    between atoms: C_22  and  C_23 
ROOT
HETATM    1  C   UNK N   1      27.532  24.155  -4.608  0.00  0.00    -0.008 A 
HETATM    2  C   UNK N   1      26.802  23.763  -5.739  0.00  0.00     0.100 A 
HETATM    3  N   UNK N   1      25.764  24.535  -6.179  0.00  0.00    -0.372 N 
ATOM      4  HN  UNK N   1      25.251  24.249  -7.013  1.00  0.00     0.164 HD
HETATM    5  C   UNK N   1      25.391  25.679  -5.529  0.00  0.00     0.124 A 
HETATM    6  C   UNK N   1      26.081  26.085  -4.384  0.00  0.00     0.085 A 
HETATM    7  C   UNK N   1      27.153  25.314  -3.950  0.00  0.00     0.051 A 
ENDROOT
BRANCH   6   8
HETATM    8  O   UNK N   1      25.711  27.185  -3.683  0.00  0.00    -0.348 OA
BRANCH   8   9
HETATM    9  C   UNK N   1      25.626  28.409  -4.326  0.00  0.00     0.200 C 
BRANCH   9  10
HETATM   10  C   UNK N   1      26.706  29.398  -3.915  0.00  0.00     0.102 C 
BRANCH  10  11
HETATM   11  N   UNK N   1      26.120  30.642  -3.438  0.00  0.00    -0.424 N 
HETATM   12  H   UNK N   1      25.901  31.453  -2.861  0.00  0.00     0.150 HD
HETATM   13  H   UNK N   1      25.503  30.837  -4.226  0.00  0.00     0.150 HD
ENDBRANCH  10  11
BRANCH  10  14
HETATM   14  C   UNK N   1      27.538  29.688  -5.168  0.00  0.00     0.067 C 
BRANCH  14  15
HETATM   15  C   UNK N   1      28.261  28.509  -5.748  0.00  0.00    -0.028 A 
HETATM   16  C   UNK N   1      28.105  27.969  -7.022  0.00  0.00     0.096 A 
HETATM   17  N   UNK N   1      28.984  26.950  -7.197  0.00  0.00    -0.365 N 
HETATM   18  C   UNK N   1      29.680  26.856  -6.050  0.00  0.00     0.042 A 
HETATM   19  H   UNK N   1      29.090  26.392  -8.001  0.00  0.00     0.165 HD
HETATM   20  C   UNK N   1      30.704  25.956  -5.768  0.00  0.00     0.030 A 
HETATM   21  C   UNK N   1      29.266  27.791  -5.145  0.00  0.00    -0.002 A 
HETATM   22  C   UNK N   1      31.309  26.030  -4.499  0.00  0.00     0.002 A 
HETATM   23  C   UNK N   1      30.879  26.994  -3.558  0.00  0.00     0.001 A 
HETATM   24  C   UNK N   1      29.844  27.894  -3.880  0.00  0.00     0.014 A 
ENDBRANCH  14  15
ENDBRANCH  10  14
ENDBRANCH   9  10
ENDBRANCH   8   9
ENDBRANCH   6   8
BRANCH   1  25
HETATM   25  C   UNK N   1      28.666  23.386  -4.052  0.00  0.00    -0.024 A 
HETATM   26  C   UNK N   1      29.160  23.609  -2.740  0.00  0.00     0.014 A 
HETATM   27  C   UNK N   1      30.277  22.883  -2.266  0.00  0.00     0.033 A 
HETATM   28  C   UNK N   1      30.851  21.949  -3.125  0.00  0.00     0.060 A 
HETATM   29  N   UNK N   1      31.908  21.142  -2.902  0.00  0.00    -0.300 N 
HETATM   30  C   UNK N   1      30.369  21.725  -4.374  0.00  0.00     0.016 A 
HETATM   31  N   UNK N   1      32.096  20.405  -3.993  0.00  0.00    -0.304 N 
HETATM   32  H   UNK N   1      32.445  21.105  -2.078  0.00  0.00     0.187 HD
HETATM   33  C   UNK N   1      31.159  20.746  -4.910  0.00  0.00     0.034 A 
ATOM     34  HN  UNK N   1      32.823  19.701  -4.119  1.00  0.00     0.186 HD
HETATM   35  C   UNK N   1      31.031  20.133  -6.261  0.00  0.00     0.070 C 
HETATM   36  C   UNK N   1      29.288  22.422  -4.877  0.00  0.00     0.028 A 
ENDBRANCH   1  25
TORSDOF 7
ENDMDL
MODEL 2
REMARK VINA RESULT:      -7.1     12.346     15.285
REMARK  7 active torsions:
REMARK  status: ('A' for Active; 'I' for Inactive)
REMARK    1  A    between atoms: C_9  and  C_12 
REMARK    2  A    between atoms: C_17  and  O_18 
REMARK    3  A    between atoms: O_18  and  C_19 
REMARK    4  A    between atoms: C_19  and  C_20 
REMARK    5  A    between atoms: C_20  and  N_21 
REMARK    6  A    between atoms: C_20  and  C_22 
REMARK    7  A    between atoms: C_22  and  C_23 
ROOT
HETATM    1  C   UNK N   1      33.656  15.873   5.394  0.00  0.00    -0.008 A 
HETATM    2  C   UNK N   1      34.379  14.877   4.723  0.00  0.00     0.100 A 
HETATM    3  N   UNK N   1      34.008  14.500   3.463  0.00  0.00    -0.372 N 
ATOM      4  HN  UNK N   1      34.553  13.786   2.978  1.00  0.00     0.164 HD
HETATM    5  C   UNK N   1      32.926  15.050   2.836  0.00  0.00     0.124 A 
HETATM    6  C   UNK N   1      32.167  16.027   3.486  0.00  0.00     0.085 A 
HETATM    7  C   UNK N   1      32.558  16.429   4.757  0.00  0.00     0.051 A 
ENDROOT
BRANCH   6   8
HETATM    8  O   UNK N   1      31.057  16.561   2.919  0.00  0.00    -0.348 OA
BRANCH   8   9
HETATM    9  C   UNK N   1      29.884  15.824   2.885  0.00  0.00     0.200 C 
BRANCH   9  10
HETATM   10  C   UNK N   1      28.872  16.228   3.945  0.00  0.00     0.102 C 
BRANCH  10  11
HETATM   11  N   UNK N   1      27.512  16.115   3.438  0.00  0.00    -0.424 N 
HETATM   12  H   UNK N   1      26.595  15.743   3.195  0.00  0.00     0.150 HD
HETATM   13  H   UNK N   1      27.398  17.063   3.080  0.00  0.00     0.150 HD
ENDBRANCH  10  11
BRANCH  10  14
HETATM   14  C   UNK N   1      29.154  17.695   4.287  0.00  0.00     0.067 C 
BRANCH  14  15
HETATM   15  C   UNK N   1      28.613  18.164   5.606  0.00  0.00    -0.028 A 
HETATM   16  C   UNK N   1      27.417  18.839   5.834  0.00  0.00     0.096 A 
HETATM   17  N   UNK N   1      27.249  19.031   7.167  0.00  0.00    -0.365 N 
HETATM   18  C   UNK N   1      28.323  18.482   7.763  0.00  0.00     0.042 A 
HETATM   19  H   UNK N   1      26.493  19.481   7.609  0.00  0.00     0.165 HD
HETATM   20  C   UNK N   1      28.581  18.427   9.129  0.00  0.00     0.030 A 
HETATM   21  C   UNK N   1      29.175  17.944   6.842  0.00  0.00    -0.002 A 
HETATM   22  C   UNK N   1      29.769  17.799   9.546  0.00  0.00     0.002 A 
HETATM   23  C   UNK N   1      30.656  17.245   8.595  0.00  0.00     0.001 A 
HETATM   24  C   UNK N   1      30.360  17.312   7.219  0.00  0.00     0.014 A 
ENDBRANCH  14  15
ENDBRANCH  10  14
ENDBRANCH   9  10
ENDBRANCH   8   9
ENDBRANCH   6   8
BRANCH   1  25
HETATM   25  C   UNK N   1      33.974  16.345   6.758  0.00  0.00    -0.024 A 
HETATM   26  C   UNK N   1      34.130  17.722   7.066  0.00  0.00     0.014 A 
HETATM   27  C   UNK N   1      34.481  18.125   8.375  0.00  0.00     0.033 A 
HETATM   28  C   UNK N   1      34.651  17.128   9.333  0.00  0.00     0.060 A 
HETATM   29  N   UNK N   1      34.977  17.262  10.634  0.00  0.00    -0.300 N 
HETATM   30  C   UNK N   1      34.486  15.812   9.043  0.00  0.00     0.016 A 
HETATM   31  N   UNK N   1      35.015  16.046  11.172  0.00  0.00    -0.304 N 
HETATM   32  H   UNK N   1      35.156  18.109  11.102  0.00  0.00     0.187 HD
HETATM   33  C   UNK N   1      34.714  15.140  10.212  0.00  0.00     0.034 A 
ATOM     34  HN  UNK N   1      35.233  15.831  12.145  1.00  0.00     0.186 HD
HETATM   35  C   UNK N   1      34.641  13.668  10.425  0.00  0.00     0.070 C 
HETATM   36  C   UNK N   1      34.156  15.379   7.774  0.00  0.00     0.028 A 
ENDBRANCH   1  25
TORSDOF 7
ENDMDL
MODEL 3
REMARK VINA RESULT:      -7.0     18.641     22.006
REMARK  7 active torsions:
REMARK  status: ('A' for Active; 'I' for Inactive)
REMARK    1  A    between atoms: C_9  and  C_12 
REMARK    2  A    between atoms: C_17  and  O_18 
REMARK    3  A    between atoms: O_18  and  C_19 
REMARK    4  A    between atoms: C_19  and  C_20 
REMARK    5  A    between atoms: C_20  and  N_21 
REMARK    6  A    between atoms: C_20  and  C_22 
REMARK    7  A    between atoms: C_22  and  C_23 
ROOT
HETATM    1  C   UNK N   1      36.067  12.917  14.884  0.00  0.00    -0.008 A 
HETATM    2  C   UNK N   1      37.175  12.250  14.342  0.00  0.00     0.100 A 
HETATM    3  N   UNK N   1      37.386  12.269  12.992  0.00  0.00    -0.372 N 
ATOM      4  HN  UNK N   1      38.205  11.795  12.611  1.00  0.00     0.164 HD
HETATM    5  C   UNK N   1      36.529  12.904  12.137  0.00  0.00     0.124 A 
HETATM    6  C   UNK N   1      35.401  13.557  12.641  0.00  0.00     0.085 A 
HETATM    7  C   UNK N   1      35.199  13.559  14.016  0.00  0.00     0.051 A 
ENDROOT
BRANCH   6   8
HETATM    8  O   UNK N   1      34.500  14.155  11.824  0.00  0.00    -0.348 OA
BRANCH   8   9
HETATM    9  C   UNK N   1      34.879  15.262  11.082  0.00  0.00     0.200 C 
BRANCH   9  10
HETATM   10  C   UNK N   1      34.485  15.186   9.615  0.00  0.00     0.102 C 
BRANCH  10  11
HETATM   11  N   UNK N   1      35.623  14.818   8.787  0.00  0.00    -0.424 N 
HETATM   12  H   UNK N   1      36.381  14.286   8.359  0.00  0.00     0.150 HD
HETATM   13  H   UNK N   1      35.750  15.700   8.293  0.00  0.00     0.150 HD
ENDBRANCH  10  11
BRANCH  10  14
HETATM   14  C   UNK N   1      34.011  16.587   9.213  0.00  0.00     0.067 C 
BRANCH  14  15
HETATM   15  C   UNK N   1      32.781  16.628   8.355  0.00  0.00    -0.028 A 
HETATM   16  C   UNK N   1      31.465  16.417   8.758  0.00  0.00     0.096 A 
HETATM   17  N   UNK N   1      30.630  16.607   7.705  0.00  0.00    -0.365 N 
HETATM   18  C   UNK N   1      31.412  16.934   6.661  0.00  0.00     0.042 A 
HETATM   19  H   UNK N   1      29.649  16.522   7.707  0.00  0.00     0.165 HD
HETATM   20  C   UNK N   1      30.994  17.231   5.367  0.00  0.00     0.030 A 
HETATM   21  C   UNK N   1      32.729  16.956   7.021  0.00  0.00    -0.002 A 
HETATM   22  C   UNK N   1      31.981  17.555   4.418  0.00  0.00     0.002 A 
HETATM   23  C   UNK N   1      33.346  17.574   4.787  0.00  0.00     0.001 A 
HETATM   24  C   UNK N   1      33.734  17.274   6.107  0.00  0.00     0.014 A 
ENDBRANCH  14  15
ENDBRANCH  10  14
ENDBRANCH   9  10
ENDBRANCH   8   9
ENDBRANCH   6   8
BRANCH   1  25
HETATM   25  C   UNK N   1      35.749  12.949  16.327  0.00  0.00    -0.024 A 
HETATM   26  C   UNK N   1      35.606  14.166  17.043  0.00  0.00     0.014 A 
HETATM   27  C   UNK N   1      35.349  14.149  18.434  0.00  0.00     0.033 A 
HETATM   28  C   UNK N   1      35.232  12.907  19.053  0.00  0.00     0.060 A 
HETATM   29  N   UNK N   1      34.987  12.636  20.350  0.00  0.00    -0.300 N 
HETATM   30  C   UNK N   1      35.353  11.743  18.365  0.00  0.00     0.016 A 
HETATM   31  N   UNK N   1      34.945  11.314  20.490  0.00  0.00    -0.304 N 
HETATM   32  H   UNK N   1      34.862  13.299  21.067  0.00  0.00     0.187 HD
HETATM   33  C   UNK N   1      35.165  10.746  19.281  0.00  0.00     0.034 A 
ATOM     34  HN  UNK N   1      34.775  10.812  21.362  1.00  0.00     0.186 HD
HETATM   35  C   UNK N   1      35.185   9.279  19.023  0.00  0.00     0.070 C 
HETATM   36  C   UNK N   1      35.617  11.719  17.010  0.00  0.00     0.028 A 
ENDBRANCH   1  25
TORSDOF 7
ENDMDL
MODEL 4
REMARK VINA RESULT:      -7.0     19.429     22.946
REMARK  7 active torsions:
REMARK  status: ('A' for Active; 'I' for Inactive)
REMARK    1  A    between atoms: C_9  and  C_12 
REMARK    2  A    between atoms: C_17  and  O_18 
REMARK    3  A    between atoms: O_18  and  C_19 
REMARK    4  A    between atoms: C_19  and  C_20 
REMARK    5  A    between atoms: C_20  and  N_21 
REMARK    6  A    between atoms: C_20  and  C_22 
REMARK    7  A    between atoms: C_22  and  C_23 
ROOT
HETATM    1  C   UNK N   1      34.833  11.025  14.511  0.00  0.00    -0.008 A 
HETATM    2  C   UNK N   1      33.701  10.508  13.867  0.00  0.00     0.100 A 
HETATM    3  N   UNK N   1      33.645  10.489  12.502  0.00  0.00    -0.372 N 
ATOM      4  HN  UNK N   1      32.823  10.094  12.044  1.00  0.00     0.164 HD
HETATM    5  C   UNK N   1      34.660  10.986  11.732  0.00  0.00     0.124 A 
HETATM    6  C   UNK N   1      35.792  11.532  12.342  0.00  0.00     0.085 A 
HETATM    7  C   UNK N   1      35.860  11.530  13.730  0.00  0.00     0.051 A 
ENDROOT
BRANCH   6   8
HETATM    8  O   UNK N   1      36.797  12.081  11.616  0.00  0.00    -0.348 OA
BRANCH   8   9
HETATM    9  C   UNK N   1      37.065  13.435  11.734  0.00  0.00     0.200 C 
BRANCH   9  10
HETATM   10  C   UNK N   1      37.036  14.186  10.412  0.00  0.00     0.102 C 
BRANCH  10  11
HETATM   11  N   UNK N   1      38.382  14.514   9.968  0.00  0.00    -0.424 N 
HETATM   12  H   UNK N   1      39.202  15.034   9.657  0.00  0.00     0.150 HD
HETATM   13  H   UNK N   1      38.780  13.575   9.965  0.00  0.00     0.150 HD
ENDBRANCH  10  11
BRANCH  10  14
HETATM   14  C   UNK N   1      36.264  15.486  10.661  0.00  0.00     0.067 C 
BRANCH  14  15
HETATM   15  C   UNK N   1      34.831  15.479  10.216  0.00  0.00    -0.028 A 
HETATM   16  C   UNK N   1      33.828  14.603  10.620  0.00  0.00     0.096 A 
HETATM   17  N   UNK N   1      32.651  14.962  10.048  0.00  0.00    -0.365 N 
HETATM   18  C   UNK N   1      32.915  16.047   9.299  0.00  0.00     0.042 A 
HETATM   19  H   UNK N   1      31.780  14.516  10.158  0.00  0.00     0.165 HD
HETATM   20  C   UNK N   1      32.007  16.773   8.533  0.00  0.00     0.030 A 
HETATM   21  C   UNK N   1      34.234  16.391   9.378  0.00  0.00    -0.002 A 
HETATM   22  C   UNK N   1      32.492  17.887   7.823  0.00  0.00     0.002 A 
HETATM   23  C   UNK N   1      33.858  18.242   7.899  0.00  0.00     0.001 A 
HETATM   24  C   UNK N   1      34.749  17.489   8.689  0.00  0.00     0.014 A 
ENDBRANCH  14  15
ENDBRANCH  10  14
ENDBRANCH   9  10
ENDBRANCH   8   9
ENDBRANCH   6   8
BRANCH   1  25
HETATM   25  C   UNK N   1      34.986  11.096  15.980  0.00  0.00    -0.024 A 
HETATM   26  C   UNK N   1      35.024   9.933  16.794  0.00  0.00     0.014 A 
HETATM   27  C   UNK N   1      35.123  10.050  18.200  0.00  0.00     0.033 A 
HETATM   28  C   UNK N   1      35.193  11.333  18.737  0.00  0.00     0.060 A 
HETATM   29  N   UNK N   1      35.295  11.696  20.031  0.00  0.00    -0.300 N 
HETATM   30  C   UNK N   1      35.172  12.445  17.958  0.00  0.00     0.016 A 
HETATM   31  N   UNK N   1      35.345  13.025  20.079  0.00  0.00    -0.304 N 
HETATM   32  H   UNK N   1      35.326  11.087  20.803  0.00  0.00     0.187 HD
HETATM   33  C   UNK N   1      35.274  13.505  18.816  0.00  0.00     0.034 A 
ATOM     34  HN  UNK N   1      35.425  13.588  20.926  1.00  0.00     0.186 HD
HETATM   35  C   UNK N   1      35.311  14.949  18.452  0.00  0.00     0.070 C 
HETATM   36  C   UNK N   1      35.064  12.372  16.583  0.00  0.00     0.028 A 
ENDBRANCH   1  25
TORSDOF 7
ENDMDL
MODEL 5
REMARK VINA RESULT:      -6.9     12.327     14.819
REMARK  7 active torsions:
REMARK  status: ('A' for Active; 'I' for Inactive)
REMARK    1  A    between atoms: C_9  and  C_12 
REMARK    2  A    between atoms: C_17  and  O_18 
REMARK    3  A    between atoms: O_18  and  C_19 
REMARK    4  A    between atoms: C_19  and  C_20 
REMARK    5  A    between atoms: C_20  and  N_21 
REMARK    6  A    between atoms: C_20  and  C_22 
REMARK    7  A    between atoms: C_22  and  C_23 
ROOT
HETATM    1  C   UNK N   1      28.974  17.565   6.971  0.00  0.00    -0.008 A 
HETATM    2  C   UNK N   1      28.071  18.183   7.849  0.00  0.00     0.100 A 
HETATM    3  N   UNK N   1      28.507  18.645   9.058  0.00  0.00    -0.372 N 
ATOM      4  HN  UNK N   1      27.844  19.109   9.680  1.00  0.00     0.164 HD
HETATM    5  C   UNK N   1      29.806  18.502   9.458  0.00  0.00     0.124 A 
HETATM    6  C   UNK N   1      30.727  17.868   8.619  0.00  0.00     0.085 A 
HETATM    7  C   UNK N   1      30.290  17.420   7.379  0.00  0.00     0.051 A 
ENDROOT
BRANCH   6   8
HETATM    8  O   UNK N   1      32.012  17.661   8.999  0.00  0.00    -0.348 OA
BRANCH   8   9
HETATM    9  C   UNK N   1      32.557  16.391   8.904  0.00  0.00     0.200 C 
BRANCH   9  10
HETATM   10  C   UNK N   1      34.077  16.371   8.919  0.00  0.00     0.102 C 
BRANCH  10  11
HETATM   11  N   UNK N   1      34.597  17.058  10.091  0.00  0.00    -0.424 N 
HETATM   12  H   UNK N   1      35.217  17.371  10.838  0.00  0.00     0.150 HD
HETATM   13  H   UNK N   1      33.772  17.607  10.331  0.00  0.00     0.150 HD
ENDBRANCH  10  11
BRANCH  10  14
HETATM   14  C   UNK N   1      34.540  17.113   7.662  0.00  0.00     0.067 C 
BRANCH  14  15
HETATM   15  C   UNK N   1      34.450  16.333   6.383  0.00  0.00    -0.028 A 
HETATM   16  C   UNK N   1      35.105  15.144   6.074  0.00  0.00     0.096 A 
HETATM   17  N   UNK N   1      34.714  14.714   4.847  0.00  0.00    -0.365 N 
HETATM   18  C   UNK N   1      33.826  15.619   4.399  0.00  0.00     0.042 A 
HETATM   19  H   UNK N   1      35.019  13.902   4.381  0.00  0.00     0.165 HD
HETATM   20  C   UNK N   1      33.147  15.589   3.184  0.00  0.00     0.030 A 
HETATM   21  C   UNK N   1      33.641  16.620   5.309  0.00  0.00    -0.002 A 
HETATM   22  C   UNK N   1      32.251  16.639   2.909  0.00  0.00     0.002 A 
HETATM   23  C   UNK N   1      32.061  17.679   3.847  0.00  0.00     0.001 A 
HETATM   24  C   UNK N   1      32.761  17.675   5.070  0.00  0.00     0.014 A 
ENDBRANCH  14  15
ENDBRANCH  10  14
ENDBRANCH   9  10
ENDBRANCH   8   9
ENDBRANCH   6   8
BRANCH   1  25
HETATM   25  C   UNK N   1      28.598  17.028   5.647  0.00  0.00    -0.024 A 
HETATM   26  C   UNK N   1      27.615  17.646   4.830  0.00  0.00     0.014 A 
HETATM   27  C   UNK N   1      27.254  17.070   3.590  0.00  0.00     0.033 A 
HETATM   28  C   UNK N   1      27.903  15.898   3.209  0.00  0.00     0.060 A 
HETATM   29  N   UNK N   1      27.736  15.174   2.084  0.00  0.00    -0.300 N 
HETATM   30  C   UNK N   1      28.855  15.316   3.983  0.00  0.00     0.016 A 
HETATM   31  N   UNK N   1      28.576  14.143   2.135  0.00  0.00    -0.304 N 
HETATM   32  H   UNK N   1      27.105  15.372   1.356  0.00  0.00     0.187 HD
HETATM   33  C   UNK N   1      29.275  14.213   3.292  0.00  0.00     0.034 A 
ATOM     34  HN  UNK N   1      28.677  13.421   1.421  1.00  0.00     0.186 HD
HETATM   35  C   UNK N   1      30.324  13.242   3.711  0.00  0.00     0.070 C 
HETATM   36  C   UNK N   1      29.226  15.841   5.204  0.00  0.00     0.028 A 
ENDBRANCH   1  25
TORSDOF 7
ENDMDL
MODEL 6
REMARK VINA RESULT:      -6.9      3.007      6.888
REMARK  7 active torsions:
REMARK  status: ('A' for Active; 'I' for Inactive)
REMARK    1  A    between atoms: C_9  and  C_12 
REMARK    2  A    between atoms: C_17  and  O_18 
REMARK    3  A    between atoms: O_18  and  C_19 
REMARK    4  A    between atoms: C_19  and  C_20 
REMARK    5  A    between atoms: C_20  and  N_21 
REMARK    6  A    between atoms: C_20  and  C_22 
REMARK    7  A    between atoms: C_22  and  C_23 
ROOT
HETATM    1  C   UNK N   1      27.068  26.886  -8.010  0.00  0.00    -0.008 A 
HETATM    2  C   UNK N   1      28.175  27.250  -8.788  0.00  0.00     0.100 A 
HETATM    3  N   UNK N   1      28.414  26.610  -9.972  0.00  0.00    -0.372 N 
ATOM      4  HN  UNK N   1      29.213  26.896 -10.538  1.00  0.00     0.164 HD
HETATM    5  C   UNK N   1      27.613  25.596 -10.416  0.00  0.00     0.124 A 
HETATM    6  C   UNK N   1      26.515  25.190  -9.652  0.00  0.00     0.085 A 
HETATM    7  C   UNK N   1      26.257  25.857  -8.461  0.00  0.00     0.051 A 
ENDROOT
BRANCH   6   8
HETATM    8  O   UNK N   1      25.726  24.155 -10.033  0.00  0.00    -0.348 OA
BRANCH   8   9
HETATM    9  C   UNK N   1      25.220  23.293  -9.074  0.00  0.00     0.200 C 
BRANCH   9  10
HETATM   10  C   UNK N   1      26.072  22.055  -8.847  0.00  0.00     0.102 C 
BRANCH  10  11
HETATM   11  N   UNK N   1      25.337  20.845  -9.185  0.00  0.00    -0.424 N 
HETATM   12  H   UNK N   1      24.688  20.060  -9.144  0.00  0.00     0.150 HD
HETATM   13  H   UNK N   1      25.770  20.645 -10.087  0.00  0.00     0.150 HD
ENDBRANCH  10  11
BRANCH  10  14
HETATM   14  C   UNK N   1      26.417  22.025  -7.355  0.00  0.00     0.067 C 
BRANCH  14  15
HETATM   15  C   UNK N   1      27.548  22.918  -6.937  0.00  0.00    -0.028 A 
HETATM   16  C   UNK N   1      28.722  23.174  -7.639  0.00  0.00     0.096 A 
HETATM   17  N   UNK N   1      29.467  24.087  -6.965  0.00  0.00    -0.365 N 
HETATM   18  C   UNK N   1      28.767  24.399  -5.860  0.00  0.00     0.042 A 
HETATM   19  H   UNK N   1      30.343  24.448  -7.233  0.00  0.00     0.165 HD
HETATM   20  C   UNK N   1      29.132  25.306  -4.871  0.00  0.00     0.030 A 
HETATM   21  C   UNK N   1      27.591  23.705  -5.810  0.00  0.00    -0.002 A 
HETATM   22  C   UNK N   1      28.247  25.490  -3.792  0.00  0.00     0.002 A 
HETATM   23  C   UNK N   1      27.032  24.770  -3.735  0.00  0.00     0.001 A 
HETATM   24  C   UNK N   1      26.690  23.864  -4.758  0.00  0.00     0.014 A 
ENDBRANCH  14  15
ENDBRANCH  10  14
ENDBRANCH   9  10
ENDBRANCH   8   9
ENDBRANCH   6   8
BRANCH   1  25
HETATM   25  C   UNK N   1      26.729  27.513  -6.715  0.00  0.00    -0.024 A 
HETATM   26  C   UNK N   1      25.592  27.122  -5.959  0.00  0.00     0.014 A 
HETATM   27  C   UNK N   1      25.280  27.782  -4.748  0.00  0.00     0.033 A 
HETATM   28  C   UNK N   1      26.129  28.805  -4.333  0.00  0.00     0.060 A 
HETATM   29  N   UNK N   1      26.044  29.569  -3.225  0.00  0.00    -0.300 N 
HETATM   30  C   UNK N   1      27.225  29.168  -5.047  0.00  0.00     0.016 A 
HETATM   31  N   UNK N   1      27.077  30.407  -3.228  0.00  0.00    -0.304 N 
HETATM   32  H   UNK N   1      25.342  29.516  -2.538  0.00  0.00     0.187 HD
HETATM   33  C   UNK N   1      27.817  30.176  -4.338  0.00  0.00     0.034 A 
ATOM     34  HN  UNK N   1      27.279  31.107  -2.513  1.00  0.00     0.186 HD
HETATM   35  C   UNK N   1      29.065  30.907  -4.694  0.00  0.00     0.070 C 
HETATM   36  C   UNK N   1      27.556  28.556  -6.240  0.00  0.00     0.028 A 
ENDBRANCH   1  25
TORSDOF 7
ENDMDL
MODEL 7
REMARK VINA RESULT:      -6.9      1.468      2.412
REMARK  7 active torsions:
REMARK  status: ('A' for Active; 'I' for Inactive)
REMARK    1  A    between atoms: C_9  and  C_12 
REMARK    2  A    between atoms: C_17  and  O_18 
REMARK    3  A    between atoms: O_18  and  C_19 
REMARK    4  A    between atoms: C_19  and  C_20 
REMARK    5  A    between atoms: C_20  and  N_21 
REMARK    6  A    between atoms: C_20  and  C_22 
REMARK    7  A    between atoms: C_22  and  C_23 
ROOT
HETATM    1  C   UNK N   1      27.694  23.171  -7.001  0.00  0.00    -0.008 A 
HETATM    2  C   UNK N   1      27.429  23.145  -8.377  0.00  0.00     0.100 A 
HETATM    3  N   UNK N   1      26.420  23.912  -8.890  0.00  0.00    -0.372 N 
ATOM      4  HN  UNK N   1      26.248  23.898  -9.895  1.00  0.00     0.164 HD
HETATM    5  C   UNK N   1      25.634  24.695  -8.091  0.00  0.00     0.124 A 
HETATM    6  C   UNK N   1      25.854  24.725  -6.712  0.00  0.00     0.085 A 
HETATM    7  C   UNK N   1      26.896  23.965  -6.193  0.00  0.00     0.051 A 
ENDROOT
BRANCH   6   8
HETATM    8  O   UNK N   1      25.066  25.449  -5.880  0.00  0.00    -0.348 OA
BRANCH   8   9
HETATM    9  C   UNK N   1      25.113  26.833  -5.926  0.00  0.00     0.200 C 
BRANCH   9  10
HETATM   10  C   UNK N   1      26.102  27.449  -4.950  0.00  0.00     0.102 C 
BRANCH  10  11
HETATM   11  N   UNK N   1      25.442  28.397  -4.065  0.00  0.00    -0.424 N 
HETATM   12  H   UNK N   1      25.179  29.259  -3.588  0.00  0.00     0.150 HD
HETATM   13  H   UNK N   1      24.794  27.758  -3.605  0.00  0.00     0.150 HD
ENDBRANCH  10  11
BRANCH  10  14
HETATM   14  C   UNK N   1      27.144  28.195  -5.789  0.00  0.00     0.067 C 
BRANCH  14  15
HETATM   15  C   UNK N   1      28.239  27.344  -6.363  0.00  0.00    -0.028 A 
HETATM   16  C   UNK N   1      28.460  27.048  -7.705  0.00  0.00     0.096 A 
HETATM   17  N   UNK N   1      29.588  26.304  -7.828  0.00  0.00    -0.365 N 
HETATM   18  C   UNK N   1      30.065  26.139  -6.581  0.00  0.00     0.042 A 
HETATM   19  H   UNK N   1      29.978  25.955  -8.662  0.00  0.00     0.165 HD
HETATM   20  C   UNK N   1      31.217  25.450  -6.214  0.00  0.00     0.030 A 
HETATM   21  C   UNK N   1      29.268  26.760  -5.663  0.00  0.00    -0.002 A 
HETATM   22  C   UNK N   1      31.543  25.401  -4.846  0.00  0.00     0.002 A 
HETATM   23  C   UNK N   1      30.717  26.039  -3.892  0.00  0.00     0.001 A 
HETATM   24  C   UNK N   1      29.561  26.734  -4.299  0.00  0.00     0.014 A 
ENDBRANCH  14  15
ENDBRANCH  10  14
ENDBRANCH   9  10
ENDBRANCH   8   9
ENDBRANCH   6   8
BRANCH   1  25
HETATM   25  C   UNK N   1      28.756  22.375  -6.351  0.00  0.00    -0.024 A 
HETATM   26  C   UNK N   1      29.403  21.296  -7.009  0.00  0.00     0.014 A 
HETATM   27  C   UNK N   1      30.381  20.531  -6.332  0.00  0.00     0.033 A 
HETATM   28  C   UNK N   1      30.683  20.887  -5.020  0.00  0.00     0.060 A 
HETATM   29  N   UNK N   1      31.572  20.319  -4.180  0.00  0.00    -0.300 N 
HETATM   30  C   UNK N   1      30.076  21.928  -4.396  0.00  0.00     0.016 A 
HETATM   31  N   UNK N   1      31.539  20.993  -3.034  0.00  0.00    -0.304 N 
HETATM   32  H   UNK N   1      32.144  19.543  -4.380  0.00  0.00     0.187 HD
HETATM   33  C   UNK N   1      30.628  21.989  -3.146  0.00  0.00     0.034 A 
ATOM     34  HN  UNK N   1      32.105  20.795  -2.209  1.00  0.00     0.186 HD
HETATM   35  C   UNK N   1      30.309  22.973  -2.074  0.00  0.00     0.070 C 
HETATM   36  C   UNK N   1      29.108  22.690  -5.019  0.00  0.00     0.028 A 
ENDBRANCH   1  25
TORSDOF 7
ENDMDL
MODEL 8
REMARK VINA RESULT:      -6.8     16.438     20.500
REMARK  7 active torsions:
REMARK  status: ('A' for Active; 'I' for Inactive)
REMARK    1  A    between atoms: C_9  and  C_12 
REMARK    2  A    between atoms: C_17  and  O_18 
REMARK    3  A    between atoms: O_18  and  C_19 
REMARK    4  A    between atoms: C_19  and  C_20 
REMARK    5  A    between atoms: C_20  and  N_21 
REMARK    6  A    between atoms: C_20  and  C_22 
REMARK    7  A    between atoms: C_22  and  C_23 
ROOT
HETATM    1  C   UNK N   1      33.311  16.743   8.833  0.00  0.00    -0.008 A 
HETATM    2  C   UNK N   1      34.341  17.681   8.994  0.00  0.00     0.100 A 
HETATM    3  N   UNK N   1      35.309  17.473   9.936  0.00  0.00    -0.372 N 
ATOM      4  HN  UNK N   1      36.063  18.154  10.031  1.00  0.00     0.164 HD
HETATM    5  C   UNK N   1      35.294  16.379  10.755  0.00  0.00     0.124 A 
HETATM    6  C   UNK N   1      34.268  15.437  10.639  0.00  0.00     0.085 A 
HETATM    7  C   UNK N   1      33.297  15.635   9.665  0.00  0.00     0.051 A 
ENDROOT
BRANCH   6   8
HETATM    8  O   UNK N   1      34.189  14.365  11.465  0.00  0.00    -0.348 OA
BRANCH   8   9
HETATM    9  C   UNK N   1      35.169  13.387  11.411  0.00  0.00     0.200 C 
BRANCH   9  10
HETATM   10  C   UNK N   1      36.405  13.706  12.237  0.00  0.00     0.102 C 
BRANCH  10  11
HETATM   11  N   UNK N   1      37.591  13.775  11.397  0.00  0.00    -0.424 N 
HETATM   12  H   UNK N   1      38.424  14.118  10.918  0.00  0.00     0.150 HD
HETATM   13  H   UNK N   1      37.587  12.820  11.040  0.00  0.00     0.150 HD
ENDBRANCH  10  11
BRANCH  10  14
HETATM   14  C   UNK N   1      36.573  12.559  13.239  0.00  0.00     0.067 C 
BRANCH  14  15
HETATM   15  C   UNK N   1      35.911  12.766  14.570  0.00  0.00    -0.028 A 
HETATM   16  C   UNK N   1      34.907  11.988  15.141  0.00  0.00     0.096 A 
HETATM   17  N   UNK N   1      34.618  12.456  16.382  0.00  0.00    -0.365 N 
HETATM   18  C   UNK N   1      35.431  13.508  16.584  0.00  0.00     0.042 A 
HETATM   19  H   UNK N   1      33.947  12.097  17.007  0.00  0.00     0.165 HD
HETATM   20  C   UNK N   1      35.500  14.300  17.726  0.00  0.00     0.030 A 
HETATM   21  C   UNK N   1      36.233  13.726  15.500  0.00  0.00    -0.002 A 
HETATM   22  C   UNK N   1      36.430  15.356  17.735  0.00  0.00     0.002 A 
HETATM   23  C   UNK N   1      37.259  15.587  16.612  0.00  0.00     0.001 A 
HETATM   24  C   UNK N   1      37.166  14.761  15.475  0.00  0.00     0.014 A 
ENDBRANCH  14  15
ENDBRANCH  10  14
ENDBRANCH   9  10
ENDBRANCH   8   9
ENDBRANCH   6   8
BRANCH   1  25
HETATM   25  C   UNK N   1      32.217  16.881   7.849  0.00  0.00    -0.024 A 
HETATM   26  C   UNK N   1      30.853  16.948   8.238  0.00  0.00     0.014 A 
HETATM   27  C   UNK N   1      29.836  17.032   7.260  0.00  0.00     0.033 A 
HETATM   28  C   UNK N   1      30.227  17.058   5.923  0.00  0.00     0.060 A 
HETATM   29  N   UNK N   1      29.451  17.138   4.824  0.00  0.00    -0.300 N 
HETATM   30  C   UNK N   1      31.532  17.009   5.551  0.00  0.00     0.016 A 
HETATM   31  N   UNK N   1      30.251  17.147   3.760  0.00  0.00    -0.304 N 
HETATM   32  H   UNK N   1      28.469  17.182   4.810  0.00  0.00     0.187 HD
HETATM   33  C   UNK N   1      31.534  17.071   4.185  0.00  0.00     0.034 A 
ATOM     34  HN  UNK N   1      29.949  17.203   2.788  1.00  0.00     0.186 HD
HETATM   35  C   UNK N   1      32.726  17.067   3.292  0.00  0.00     0.070 C 
HETATM   36  C   UNK N   1      32.553  16.915   6.476  0.00  0.00     0.028 A 
ENDBRANCH   1  25
TORSDOF 7
ENDMDL
MODEL 9
REMARK VINA RESULT:      -6.8     13.317     15.906
REMARK  7 active torsions:
REMARK  status: ('A' for Active; 'I' for Inactive)
REMARK    1  A    between atoms: C_9  and  C_12 
REMARK    2  A    between atoms: C_17  and  O_18 
REMARK    3  A    between atoms: O_18  and  C_19 
REMARK    4  A    between atoms: C_19  and  C_20 
REMARK    5  A    between atoms: C_20  and  N_21 
REMARK    6  A    between atoms: C_20  and  C_22 
REMARK    7  A    between atoms: C_22  and  C_23 
ROOT
HETATM    1  C   UNK N   1      22.709  19.438   3.368  0.00  0.00    -0.008 A 
HETATM    2  C   UNK N   1      21.935  20.322   2.604  0.00  0.00     0.100 A 
HETATM    3  N   UNK N   1      20.585  20.132   2.504  0.00  0.00    -0.372 N 
ATOM      4  HN  UNK N   1      20.030  20.792   1.960  1.00  0.00     0.164 HD
HETATM    5  C   UNK N   1      19.960  19.079   3.111  0.00  0.00     0.124 A 
HETATM    6  C   UNK N   1      20.705  18.163   3.858  0.00  0.00     0.085 A 
HETATM    7  C   UNK N   1      22.074  18.371   3.982  0.00  0.00     0.051 A 
ENDROOT
BRANCH   6   8
HETATM    8  O   UNK N   1      20.131  17.079   4.434  0.00  0.00    -0.348 OA
BRANCH   8   9
HETATM    9  C   UNK N   1      20.922  16.163   5.109  0.00  0.00     0.200 C 
BRANCH   9  10
HETATM   10  C   UNK N   1      20.672  16.119   6.608  0.00  0.00     0.102 C 
BRANCH  10  11
HETATM   11  N   UNK N   1      20.651  17.460   7.173  0.00  0.00    -0.424 N 
HETATM   12  H   UNK N   1      20.332  18.375   7.490  0.00  0.00     0.150 HD
HETATM   13  H   UNK N   1      21.634  17.538   7.430  0.00  0.00     0.150 HD
ENDBRANCH  10  11
BRANCH  10  14
HETATM   14  C   UNK N   1      21.835  15.338   7.226  0.00  0.00     0.067 C 
BRANCH  14  15
HETATM   15  C   UNK N   1      21.505  14.568   8.471  0.00  0.00    -0.028 A 
HETATM   16  C   UNK N   1      20.286  14.538   9.144  0.00  0.00     0.096 A 
HETATM   17  N   UNK N   1      20.362  13.674  10.187  0.00  0.00    -0.365 N 
HETATM   18  C   UNK N   1      21.609  13.170  10.166  0.00  0.00     0.042 A 
HETATM   19  H   UNK N   1      19.648  13.459  10.831  0.00  0.00     0.165 HD
HETATM   20  C   UNK N   1      22.145  12.232  11.043  0.00  0.00     0.030 A 
HETATM   21  C   UNK N   1      22.334  13.694   9.133  0.00  0.00    -0.002 A 
HETATM   22  C   UNK N   1      23.479  11.833  10.841  0.00  0.00     0.002 A 
HETATM   23  C   UNK N   1      24.233  12.377   9.775  0.00  0.00     0.001 A 
HETATM   24  C   UNK N   1      23.657  13.320   8.902  0.00  0.00     0.014 A 
ENDBRANCH  14  15
ENDBRANCH  10  14
ENDBRANCH   9  10
ENDBRANCH   8   9
ENDBRANCH   6   8
BRANCH   1  25
HETATM   25  C   UNK N   1      24.173  19.555   3.533  0.00  0.00    -0.024 A 
HETATM   26  C   UNK N   1      24.927  20.576   2.896  0.00  0.00     0.014 A 
HETATM   27  C   UNK N   1      26.333  20.622   3.043  0.00  0.00     0.033 A 
HETATM   28  C   UNK N   1      26.931  19.645   3.836  0.00  0.00     0.060 A 
HETATM   29  N   UNK N   1      28.237  19.485   4.128  0.00  0.00    -0.300 N 
HETATM   30  C   UNK N   1      26.208  18.678   4.458  0.00  0.00     0.016 A 
HETATM   31  N   UNK N   1      28.349  18.431   4.932  0.00  0.00    -0.304 N 
HETATM   32  H   UNK N   1      28.976  20.047   3.803  0.00  0.00     0.187 HD
HETATM   33  C   UNK N   1      27.113  17.922   5.150  0.00  0.00     0.034 A 
ATOM     34  HN  UNK N   1      29.219  18.068   5.320  1.00  0.00     0.186 HD
HETATM   35  C   UNK N   1      26.821  16.742   6.010  0.00  0.00     0.070 C 
HETATM   36  C   UNK N   1      24.836  18.593   4.328  0.00  0.00     0.028 A 
ENDBRANCH   1  25
TORSDOF 7
ENDMDL
