REMARK  7 active torsions:
REMARK  status: ('A' for Active; 'I' for Inactive)
REMARK    1  A    between atoms: C_9  and  C_12 
REMARK    2  A    between atoms: C_17  and  O_18 
REMARK    3  A    between atoms: O_18  and  C_19 
REMARK    4  A    between atoms: C_19  and  C_20 
REMARK    5  A    between atoms: C_20  and  N_21 
REMARK    6  A    between atoms: C_20  and  C_22 
REMARK    7  A    between atoms: C_22  and  C_23 
ROOT
HETATM    1  C   UNK N   1      -4.144  -3.529  -0.091  0.00  0.00    -0.008 A 
HETATM    2  C   UNK N   1      -5.442  -4.044  -0.215  0.00  0.00     0.100 A 
HETATM    3  N   UNK N   1      -6.519  -3.215  -0.072  0.00  0.00    -0.372 N 
ATOM      4  HN  UNK N   1      -7.458  -3.598  -0.182  1.00  0.00     0.164 HD
HETATM    5  C   UNK N   1      -6.372  -1.887   0.217  0.00  0.00     0.124 A 
HETATM    6  C   UNK N   1      -5.093  -1.346   0.373  0.00  0.00     0.085 A 
HETATM    7  C   UNK N   1      -3.997  -2.183   0.203  0.00  0.00     0.051 A 
ENDROOT
BRANCH   6   8
HETATM    8  O   UNK N   1      -4.906  -0.046   0.709  0.00  0.00    -0.348 OA
BRANCH   8   9
HETATM    9  C   UNK N   1      -3.659   0.376   1.141  0.00  0.00     0.200 C 
BRANCH   9  10
HETATM   10  C   UNK N   1      -2.967   1.334   0.184  0.00  0.00     0.102 C 
BRANCH  10  11
HETATM   11  N   UNK N   1      -3.213   0.958  -1.200  0.00  0.00    -0.424 N 
HETATM   12  H   UNK N   1      -3.527   0.976  -2.170  0.00  0.00     0.150 HD
HETATM   13  H   UNK N   1      -2.753   0.048  -1.200  0.00  0.00     0.150 HD
ENDBRANCH  10  11
BRANCH  10  14
HETATM   14  C   UNK N   1      -1.465   1.231   0.467  0.00  0.00     0.067 C 
BRANCH  14  15
HETATM   15  C   UNK N   1      -0.673   2.478   0.203  0.00  0.00    -0.028 A 
HETATM   16  C   UNK N   1      -1.161   3.777   0.088  0.00  0.00     0.096 A 
HETATM   17  N   UNK N   1      -0.127   4.639  -0.084  0.00  0.00    -0.365 N 
HETATM   18  C   UNK N   1       0.990   3.890  -0.074  0.00  0.00     0.042 A 
HETATM   19  H   UNK N   1      -0.184   5.616  -0.194  0.00  0.00     0.165 HD
HETATM   20  C   UNK N   1       2.299   4.344  -0.206  0.00  0.00     0.030 A 
HETATM   21  C   UNK N   1       0.695   2.568   0.099  0.00  0.00    -0.002 A 
HETATM   22  C   UNK N   1       3.331   3.388  -0.163  0.00  0.00     0.002 A 
HETATM   23  C   UNK N   1       3.028   2.018   0.011  0.00  0.00     0.001 A 
HETATM   24  C   UNK N   1       1.692   1.594   0.148  0.00  0.00     0.014 A 
ENDBRANCH  14  15
ENDBRANCH  10  14
ENDBRANCH   9  10
ENDBRANCH   8   9
ENDBRANCH   6   8
BRANCH   1  25
HETATM   25  C   UNK N   1      -2.918  -4.344  -0.222  0.00  0.00    -0.024 A 
HETATM   26  C   UNK N   1      -2.957  -5.760  -0.319  0.00  0.00     0.014 A 
HETATM   27  C   UNK N   1      -1.756  -6.503  -0.395  0.00  0.00     0.033 A 
HETATM   28  C   UNK N   1      -0.557  -5.794  -0.383  0.00  0.00     0.060 A 
HETATM   29  N   UNK N   1       0.701  -6.273  -0.449  0.00  0.00    -0.300 N 
HETATM   30  C   UNK N   1      -0.520  -4.439  -0.306  0.00  0.00     0.016 A 
HETATM   31  N   UNK N   1       1.534  -5.236  -0.421  0.00  0.00    -0.304 N 
HETATM   32  H   UNK N   1       0.958  -7.221  -0.507  0.00  0.00     0.187 HD
HETATM   33  C   UNK N   1       0.804  -4.099  -0.336  0.00  0.00     0.034 A 
ATOM     34  HN  UNK N   1       2.552  -5.288  -0.458  1.00  0.00     0.186 HD
HETATM   35  C   UNK N   1       1.375  -2.724  -0.293  0.00  0.00     0.070 C 
HETATM   36  C   UNK N   1      -1.670  -3.680  -0.218  0.00  0.00     0.028 A 
ENDBRANCH   1  25
TORSDOF 7
