MODEL 1
REMARK VINA RESULT:      -5.5      0.000      0.000
REMARK  3 active torsions:
REMARK  status: ('A' for Active; 'I' for Inactive)
REMARK    1  A    between atoms: C_3  and  C_14 
REMARK    2  A    between atoms: N_5  and  C_6 
REMARK    3  A    between atoms: C_14  and  N_15 
ROOT
HETATM    1  C   UNK N   1      36.544  14.170  11.670  0.00  0.00     0.131 A 
HETATM    2  C   UNK N   1      35.726  13.065  11.507  0.00  0.00     0.122 A 
HETATM    3  N   UNK N   1      35.407  12.390  10.395  0.00  0.00    -0.346 N 
ATOM      4  HN  UNK N   1      35.717  12.572   9.440  1.00  0.00     0.167 HD
HETATM    5  C   UNK N   1      35.113  12.509  12.569  0.00  0.00     0.140 A 
HETATM    6  N   UNK N   1      34.378  11.458  12.176  0.00  0.00    -0.336 N 
ATOM      7  HN  UNK N   1      33.806  10.842  12.753  1.00  0.00     0.168 HD
HETATM    8  C   UNK N   1      34.574  11.405  10.830  0.00  0.00     0.182 A 
HETATM    9  N   UNK N   1      35.255  12.994  13.832  0.00  0.00    -0.324 N 
HETATM   10  C   UNK N   1      36.052  14.101  14.000  0.00  0.00     0.186 A 
HETATM   11  N   UNK N   1      36.692  14.675  12.929  0.00  0.00    -0.337 N 
ATOM     12  HN  UNK N   1      37.286  15.491  13.076  1.00  0.00     0.168 HD
ENDROOT
BRANCH   9  13
HETATM   13  C   UNK N   1      34.568  12.329  14.949  0.00  0.00     0.159 C 
BRANCH  13  14
HETATM   14  C   UNK N   1      34.687  13.026  16.283  0.00  0.00    -0.005 C 
HETATM   15  C   UNK N   1      35.171  12.466  17.401  0.00  0.00    -0.090 C 
HETATM   16  C   UNK N   1      35.662  11.055  17.437  0.00  0.00     0.042 C 
HETATM   17  C   UNK N   1      35.208  13.274  18.651  0.00  0.00     0.042 C 
ENDBRANCH  13  14
ENDBRANCH   9  13
BRANCH   1  18
HETATM   18  N   UNK N   1      37.205  14.761  10.575  0.00  0.00    -0.383 N 
HETATM   19  H   UNK N   1      38.051  14.385  10.241  0.00  0.00     0.157 HD
HETATM   20  H   UNK N   1      36.819  15.555  10.141  0.00  0.00     0.157 HD
ENDBRANCH   1  18
TORSDOF 3
ENDMDL
MODEL 2
REMARK VINA RESULT:      -5.5     10.610     12.356
REMARK  3 active torsions:
REMARK  status: ('A' for Active; 'I' for Inactive)
REMARK    1  A    between atoms: C_3  and  C_14 
REMARK    2  A    between atoms: N_5  and  C_6 
REMARK    3  A    between atoms: C_14  and  N_15 
ROOT
HETATM    1  C   UNK N   1      27.094  19.933   7.345  0.00  0.00     0.131 A 
HETATM    2  C   UNK N   1      27.323  19.798   5.987  0.00  0.00     0.122 A 
HETATM    3  N   UNK N   1      26.813  20.488   4.958  0.00  0.00    -0.346 N 
ATOM      4  HN  UNK N   1      26.146  21.260   4.989  1.00  0.00     0.167 HD
HETATM    5  C   UNK N   1      28.172  18.859   5.530  0.00  0.00     0.140 A 
HETATM    6  N   UNK N   1      28.237  18.912   4.191  0.00  0.00    -0.336 N 
ATOM      7  HN  UNK N   1      28.793  18.329   3.566  1.00  0.00     0.168 HD
HETATM    8  C   UNK N   1      27.388  19.925   3.861  0.00  0.00     0.182 A 
HETATM    9  N   UNK N   1      28.833  18.006   6.357  0.00  0.00    -0.324 N 
HETATM   10  C   UNK N   1      28.600  18.123   7.707  0.00  0.00     0.186 A 
HETATM   11  N   UNK N   1      27.743  19.081   8.191  0.00  0.00    -0.337 N 
ATOM     12  HN  UNK N   1      27.590  19.156   9.196  1.00  0.00     0.168 HD
ENDROOT
BRANCH   9  13
HETATM   13  C   UNK N   1      29.758  17.012   5.792  0.00  0.00     0.159 C 
BRANCH  13  14
HETATM   14  C   UNK N   1      31.184  17.111   6.277  0.00  0.00    -0.005 C 
HETATM   15  C   UNK N   1      32.245  17.364   5.497  0.00  0.00    -0.090 C 
HETATM   16  C   UNK N   1      32.115  17.586   4.025  0.00  0.00     0.042 C 
HETATM   17  C   UNK N   1      33.598  17.412   6.117  0.00  0.00     0.042 C 
ENDBRANCH  13  14
ENDBRANCH   9  13
BRANCH   1  18
HETATM   18  N   UNK N   1      26.219  20.917   7.848  0.00  0.00    -0.383 N 
HETATM   19  H   UNK N   1      26.574  21.750   8.233  0.00  0.00     0.157 HD
HETATM   20  H   UNK N   1      25.247  20.770   7.814  0.00  0.00     0.157 HD
ENDBRANCH   1  18
TORSDOF 3
ENDMDL
MODEL 3
REMARK VINA RESULT:      -5.4      3.160      3.969
REMARK  3 active torsions:
REMARK  status: ('A' for Active; 'I' for Inactive)
REMARK    1  A    between atoms: C_3  and  C_14 
REMARK    2  A    between atoms: N_5  and  C_6 
REMARK    3  A    between atoms: C_14  and  N_15 
ROOT
HETATM    1  C   UNK N   1      34.414  17.241   9.261  0.00  0.00     0.131 A 
HETATM    2  C   UNK N   1      33.734  16.042   9.142  0.00  0.00     0.122 A 
HETATM    3  N   UNK N   1      32.822  15.658   8.239  0.00  0.00    -0.346 N 
ATOM      4  HN  UNK N   1      32.455  16.194   7.451  1.00  0.00     0.167 HD
HETATM    5  C   UNK N   1      33.952  15.046  10.021  0.00  0.00     0.140 A 
HETATM    6  N   UNK N   1      33.189  13.987   9.712  0.00  0.00    -0.336 N 
ATOM      7  HN  UNK N   1      33.137  13.089  10.193  1.00  0.00     0.168 HD
HETATM    8  C   UNK N   1      32.499  14.389   8.609  0.00  0.00     0.182 A 
HETATM    9  N   UNK N   1      34.829  15.160  11.054  0.00  0.00    -0.324 N 
HETATM   10  C   UNK N   1      35.498  16.354  11.188  0.00  0.00     0.186 A 
HETATM   11  N   UNK N   1      35.293  17.378  10.296  0.00  0.00    -0.337 N 
ATOM     12  HN  UNK N   1      35.805  18.253  10.409  1.00  0.00     0.168 HD
ENDROOT
BRANCH   9  13
HETATM   13  C   UNK N   1      35.031  14.027  11.968  0.00  0.00     0.159 C 
BRANCH  13  14
HETATM   14  C   UNK N   1      35.931  14.305  13.148  0.00  0.00    -0.005 C 
HETATM   15  C   UNK N   1      35.920  13.619  14.300  0.00  0.00    -0.090 C 
HETATM   16  C   UNK N   1      34.991  12.471  14.535  0.00  0.00     0.042 C 
HETATM   17  C   UNK N   1      36.856  14.023  15.385  0.00  0.00     0.042 C 
ENDBRANCH  13  14
ENDBRANCH   9  13
BRANCH   1  18
HETATM   18  N   UNK N   1      34.211  18.294   8.346  0.00  0.00    -0.383 N 
HETATM   19  H   UNK N   1      34.485  18.198   7.406  0.00  0.00     0.157 HD
HETATM   20  H   UNK N   1      33.792  19.131   8.649  0.00  0.00     0.157 HD
ENDBRANCH   1  18
TORSDOF 3
ENDMDL
MODEL 4
REMARK VINA RESULT:      -5.3     17.069     18.567
REMARK  3 active torsions:
REMARK  status: ('A' for Active; 'I' for Inactive)
REMARK    1  A    between atoms: C_3  and  C_14 
REMARK    2  A    between atoms: N_5  and  C_6 
REMARK    3  A    between atoms: C_14  and  N_15 
ROOT
HETATM    1  C   UNK N   1      19.773  17.283   1.653  0.00  0.00     0.131 A 
HETATM    2  C   UNK N   1      20.371  18.485   1.987  0.00  0.00     0.122 A 
HETATM    3  N   UNK N   1      20.414  19.640   1.309  0.00  0.00    -0.346 N 
ATOM      4  HN  UNK N   1      20.001  19.849   0.399  1.00  0.00     0.167 HD
HETATM    5  C   UNK N   1      21.036  18.616   3.150  0.00  0.00     0.140 A 
HETATM    6  N   UNK N   1      21.529  19.858   3.260  0.00  0.00    -0.336 N 
ATOM      7  HN  UNK N   1      22.074  20.252   4.027  1.00  0.00     0.168 HD
HETATM    8  C   UNK N   1      21.133  20.472   2.111  0.00  0.00     0.182 A 
HETATM    9  N   UNK N   1      21.159  17.595   4.041  0.00  0.00    -0.324 N 
HETATM   10  C   UNK N   1      20.582  16.393   3.710  0.00  0.00     0.186 A 
HETATM   11  N   UNK N   1      19.893  16.245   2.531  0.00  0.00    -0.337 N 
ATOM     12  HN  UNK N   1      19.464  15.346   2.309  1.00  0.00     0.168 HD
ENDROOT
BRANCH   9  13
HETATM   13  C   UNK N   1      21.887  17.810   5.301  0.00  0.00     0.159 C 
BRANCH  13  14
HETATM   14  C   UNK N   1      21.021  17.916   6.533  0.00  0.00    -0.005 C 
HETATM   15  C   UNK N   1      20.830  16.932   7.423  0.00  0.00    -0.090 C 
HETATM   16  C   UNK N   1      21.482  15.593   7.283  0.00  0.00     0.042 C 
HETATM   17  C   UNK N   1      19.930  17.176   8.583  0.00  0.00     0.042 C 
ENDBRANCH  13  14
ENDBRANCH   9  13
BRANCH   1  18
HETATM   18  N   UNK N   1      19.062  17.126   0.447  0.00  0.00    -0.383 N 
HETATM   19  H   UNK N   1      19.299  17.660  -0.345  0.00  0.00     0.157 HD
HETATM   20  H   UNK N   1      18.324  16.478   0.396  0.00  0.00     0.157 HD
ENDBRANCH   1  18
TORSDOF 3
ENDMDL
MODEL 5
REMARK VINA RESULT:      -5.2      8.922     10.796
REMARK  3 active torsions:
REMARK  status: ('A' for Active; 'I' for Inactive)
REMARK    1  A    between atoms: C_3  and  C_14 
REMARK    2  A    between atoms: N_5  and  C_6 
REMARK    3  A    between atoms: C_14  and  N_15 
ROOT
HETATM    1  C   UNK N   1      27.745  18.791   6.283  0.00  0.00     0.131 A 
HETATM    2  C   UNK N   1      28.137  18.366   7.540  0.00  0.00     0.122 A 
HETATM    3  N   UNK N   1      27.590  18.611   8.738  0.00  0.00    -0.346 N 
ATOM      4  HN  UNK N   1      26.762  19.170   8.947  1.00  0.00     0.167 HD
HETATM    5  C   UNK N   1      29.221  17.581   7.685  0.00  0.00     0.140 A 
HETATM    6  N   UNK N   1      29.409  17.295   8.982  0.00  0.00    -0.336 N 
ATOM      7  HN  UNK N   1      30.145  16.725   9.400  1.00  0.00     0.168 HD
HETATM    8  C   UNK N   1      28.390  17.943   9.613  0.00  0.00     0.182 A 
HETATM    9  N   UNK N   1      29.979  17.176   6.631  0.00  0.00    -0.324 N 
HETATM   10  C   UNK N   1      29.605  17.608   5.380  0.00  0.00     0.186 A 
HETATM   11  N   UNK N   1      28.497  18.401   5.212  0.00  0.00    -0.337 N 
ATOM     12  HN  UNK N   1      28.232  18.703   4.275  1.00  0.00     0.168 HD
ENDROOT
BRANCH   9  13
HETATM   13  C   UNK N   1      31.142  16.307   6.860  0.00  0.00     0.159 C 
BRANCH  13  14
HETATM   14  C   UNK N   1      32.305  16.961   7.567  0.00  0.00    -0.005 C 
HETATM   15  C   UNK N   1      33.370  17.498   6.957  0.00  0.00    -0.090 C 
HETATM   16  C   UNK N   1      33.514  17.510   5.469  0.00  0.00     0.042 C 
HETATM   17  C   UNK N   1      34.452  18.092   7.790  0.00  0.00     0.042 C 
ENDBRANCH  13  14
ENDBRANCH   9  13
BRANCH   1  18
HETATM   18  N   UNK N   1      26.607  19.602   6.104  0.00  0.00    -0.383 N 
HETATM   19  H   UNK N   1      26.609  20.325   5.435  0.00  0.00     0.157 HD
HETATM   20  H   UNK N   1      25.804  19.445   6.650  0.00  0.00     0.157 HD
ENDBRANCH   1  18
TORSDOF 3
ENDMDL
MODEL 6
REMARK VINA RESULT:      -5.2      9.127     10.943
REMARK  3 active torsions:
REMARK  status: ('A' for Active; 'I' for Inactive)
REMARK    1  A    between atoms: C_3  and  C_14 
REMARK    2  A    between atoms: N_5  and  C_6 
REMARK    3  A    between atoms: C_14  and  N_15 
ROOT
HETATM    1  C   UNK N   1      31.829  16.820   8.620  0.00  0.00     0.131 A 
HETATM    2  C   UNK N   1      31.755  16.780   7.239  0.00  0.00     0.122 A 
HETATM    3  N   UNK N   1      32.672  16.397   6.341  0.00  0.00    -0.346 N 
ATOM      4  HN  UNK N   1      33.618  16.055   6.517  1.00  0.00     0.167 HD
HETATM    5  C   UNK N   1      30.630  17.164   6.606  0.00  0.00     0.140 A 
HETATM    6  N   UNK N   1      30.787  17.042   5.279  0.00  0.00    -0.336 N 
ATOM      7  HN  UNK N   1      30.111  17.255   4.545  1.00  0.00     0.168 HD
HETATM    8  C   UNK N   1      32.056  16.568   5.140  0.00  0.00     0.182 A 
HETATM    9  N   UNK N   1      29.531  17.608   7.272  0.00  0.00    -0.324 N 
HETATM   10  C   UNK N   1      29.601  17.666   8.644  0.00  0.00     0.186 A 
HETATM   11  N   UNK N   1      30.738  17.270   9.306  0.00  0.00    -0.337 N 
ATOM     12  HN  UNK N   1      30.766  17.313  10.325  1.00  0.00     0.168 HD
ENDROOT
BRANCH   9  13
HETATM   13  C   UNK N   1      28.330  17.998   6.519  0.00  0.00     0.159 C 
BRANCH  13  14
HETATM   14  C   UNK N   1      27.830  19.398   6.785  0.00  0.00    -0.005 C 
HETATM   15  C   UNK N   1      27.532  20.299   5.838  0.00  0.00    -0.090 C 
HETATM   16  C   UNK N   1      27.662  19.996   4.380  0.00  0.00     0.042 C 
HETATM   17  C   UNK N   1      27.068  21.651   6.254  0.00  0.00     0.042 C 
ENDBRANCH  13  14
ENDBRANCH   9  13
BRANCH   1  18
HETATM   18  N   UNK N   1      32.990  16.412   9.306  0.00  0.00    -0.383 N 
HETATM   19  H   UNK N   1      32.994  15.577   9.828  0.00  0.00     0.157 HD
HETATM   20  H   UNK N   1      33.803  16.964   9.262  0.00  0.00     0.157 HD
ENDBRANCH   1  18
TORSDOF 3
ENDMDL
MODEL 7
REMARK VINA RESULT:      -5.2     13.234     14.462
REMARK  3 active torsions:
REMARK  status: ('A' for Active; 'I' for Inactive)
REMARK    1  A    between atoms: C_3  and  C_14 
REMARK    2  A    between atoms: N_5  and  C_6 
REMARK    3  A    between atoms: C_14  and  N_15 
ROOT
HETATM    1  C   UNK N   1      20.870  16.191   7.909  0.00  0.00     0.131 A 
HETATM    2  C   UNK N   1      21.929  15.492   7.356  0.00  0.00     0.122 A 
HETATM    3  N   UNK N   1      22.770  15.844   6.375  0.00  0.00    -0.346 N 
ATOM      4  HN  UNK N   1      22.785  16.715   5.843  1.00  0.00     0.167 HD
HETATM    5  C   UNK N   1      22.240  14.262   7.804  0.00  0.00     0.140 A 
HETATM    6  N   UNK N   1      23.293  13.780   7.127  0.00  0.00    -0.336 N 
ATOM      7  HN  UNK N   1      23.755  12.878   7.242  1.00  0.00     0.168 HD
HETATM    8  C   UNK N   1      23.602  14.774   6.249  0.00  0.00     0.182 A 
HETATM    9  N   UNK N   1      21.547  13.648   8.800  0.00  0.00    -0.324 N 
HETATM   10  C   UNK N   1      20.484  14.329   9.344  0.00  0.00     0.186 A 
HETATM   11  N   UNK N   1      20.156  15.588   8.904  0.00  0.00    -0.337 N 
ATOM     12  HN  UNK N   1      19.369  16.080   9.328  1.00  0.00     0.168 HD
ENDROOT
BRANCH   9  13
HETATM   13  C   UNK N   1      21.950  12.308   9.252  0.00  0.00     0.159 C 
BRANCH  13  14
HETATM   14  C   UNK N   1      22.060  12.140  10.748  0.00  0.00    -0.005 C 
HETATM   15  C   UNK N   1      23.213  12.066  11.429  0.00  0.00    -0.090 C 
HETATM   16  C   UNK N   1      24.544  12.152  10.754  0.00  0.00     0.042 C 
HETATM   17  C   UNK N   1      23.164  11.879  12.905  0.00  0.00     0.042 C 
ENDBRANCH  13  14
ENDBRANCH   9  13
BRANCH   1  18
HETATM   18  N   UNK N   1      20.532  17.485   7.465  0.00  0.00    -0.383 N 
HETATM   19  H   UNK N   1      21.236  18.123   7.206  0.00  0.00     0.157 HD
HETATM   20  H   UNK N   1      19.587  17.753   7.413  0.00  0.00     0.157 HD
ENDBRANCH   1  18
TORSDOF 3
ENDMDL
MODEL 8
REMARK VINA RESULT:      -5.2      5.458      7.865
REMARK  3 active torsions:
REMARK  status: ('A' for Active; 'I' for Inactive)
REMARK    1  A    between atoms: C_3  and  C_14 
REMARK    2  A    between atoms: N_5  and  C_6 
REMARK    3  A    between atoms: C_14  and  N_15 
ROOT
HETATM    1  C   UNK N   1      33.664  13.744   9.727  0.00  0.00     0.131 A 
HETATM    2  C   UNK N   1      34.260  14.958  10.021  0.00  0.00     0.122 A 
HETATM    3  N   UNK N   1      35.313  15.230  10.803  0.00  0.00    -0.346 N 
ATOM      4  HN  UNK N   1      35.884  14.573  11.337  1.00  0.00     0.167 HD
HETATM    5  C   UNK N   1      33.781  16.098   9.489  0.00  0.00     0.140 A 
HETATM    6  N   UNK N   1      34.511  17.142   9.910  0.00  0.00    -0.336 N 
ATOM      7  HN  UNK N   1      34.390  18.128   9.677  1.00  0.00     0.168 HD
HETATM    8  C   UNK N   1      35.450  16.581  10.721  0.00  0.00     0.182 A 
HETATM    9  N   UNK N   1      32.707  16.123   8.656  0.00  0.00    -0.324 N 
HETATM   10  C   UNK N   1      32.099  14.923   8.371  0.00  0.00     0.186 A 
HETATM   11  N   UNK N   1      32.579  13.749   8.899  0.00  0.00    -0.337 N 
ATOM     12  HN  UNK N   1      32.118  12.869   8.668  1.00  0.00     0.168 HD
ENDROOT
BRANCH   9  13
HETATM   13  C   UNK N   1      32.245  17.402   8.098  0.00  0.00     0.159 C 
BRANCH  13  14
HETATM   14  C   UNK N   1      30.986  17.958   8.719  0.00  0.00    -0.005 C 
HETATM   15  C   UNK N   1      29.765  17.886   8.172  0.00  0.00    -0.090 C 
HETATM   16  C   UNK N   1      29.519  17.220   6.857  0.00  0.00     0.042 C 
HETATM   17  C   UNK N   1      28.616  18.500   8.895  0.00  0.00     0.042 C 
ENDBRANCH  13  14
ENDBRANCH   9  13
BRANCH   1  18
HETATM   18  N   UNK N   1      34.154  12.537  10.262  0.00  0.00    -0.383 N 
HETATM   19  H   UNK N   1      34.659  11.909   9.697  0.00  0.00     0.157 HD
HETATM   20  H   UNK N   1      33.991  12.319  11.208  0.00  0.00     0.157 HD
ENDBRANCH   1  18
TORSDOF 3
ENDMDL
MODEL 9
REMARK VINA RESULT:      -5.2     17.157     18.547
REMARK  3 active torsions:
REMARK  status: ('A' for Active; 'I' for Inactive)
REMARK    1  A    between atoms: C_3  and  C_14 
REMARK    2  A    between atoms: N_5  and  C_6 
REMARK    3  A    between atoms: C_14  and  N_15 
ROOT
HETATM    1  C   UNK N   1      20.637  19.918   1.708  0.00  0.00     0.131 A 
HETATM    2  C   UNK N   1      20.461  18.564   1.488  0.00  0.00     0.122 A 
HETATM    3  N   UNK N   1      20.021  17.921   0.399  0.00  0.00    -0.346 N 
ATOM      4  HN  UNK N   1      19.729  18.324  -0.493  1.00  0.00     0.167 HD
HETATM    5  C   UNK N   1      20.747  17.674   2.457  0.00  0.00     0.140 A 
HETATM    6  N   UNK N   1      20.502  16.429   2.023  0.00  0.00    -0.336 N 
ATOM      7  HN  UNK N   1      20.623  15.552   2.530  1.00  0.00     0.168 HD
HETATM    8  C   UNK N   1      20.053  16.607   0.750  0.00  0.00     0.182 A 
HETATM    9  N   UNK N   1      21.211  18.047   3.680  0.00  0.00    -0.324 N 
HETATM   10  C   UNK N   1      21.374  19.393   3.912  0.00  0.00     0.186 A 
HETATM   11  N   UNK N   1      21.094  20.313   2.932  0.00  0.00    -0.337 N 
ATOM     12  HN  UNK N   1      21.230  21.306   3.122  1.00  0.00     0.168 HD
ENDROOT
BRANCH   9  13
HETATM   13  C   UNK N   1      21.518  17.022   4.688  0.00  0.00     0.159 C 
BRANCH  13  14
HETATM   14  C   UNK N   1      20.838  17.208   6.023  0.00  0.00    -0.005 C 
HETATM   15  C   UNK N   1      21.062  16.455   7.109  0.00  0.00    -0.090 C 
HETATM   16  C   UNK N   1      22.042  15.326   7.108  0.00  0.00     0.042 C 
HETATM   17  C   UNK N   1      20.298  16.745   8.354  0.00  0.00     0.042 C 
ENDBRANCH  13  14
ENDBRANCH   9  13
BRANCH   1  18
HETATM   18  N   UNK N   1      20.355  20.868   0.705  0.00  0.00    -0.383 N 
HETATM   19  H   UNK N   1      19.741  21.616   0.885  0.00  0.00     0.157 HD
HETATM   20  H   UNK N   1      20.775  20.783  -0.180  0.00  0.00     0.157 HD
ENDBRANCH   1  18
TORSDOF 3
ENDMDL
