MODEL 1
REMARK VINA RESULT:      -5.2      0.000      0.000
REMARK  2 active torsions:
REMARK  status: ('A' for Active; 'I' for Inactive)
REMARK    1  A    between atoms: N_1  and  C_2 
REMARK    2  A    between atoms: C_7  and  C_8 
REMARK       I    between atoms: C_13  and  N_16 
ROOT
HETATM    1  C   UNK N   1      20.549  18.186   1.832  0.00  0.00     0.077 A 
HETATM    2  C   UNK N   1      21.181  18.401   3.061  0.00  0.00     0.050 A 
HETATM    3  C   UNK N   1      21.544  19.704   3.402  0.00  0.00     0.108 A 
HETATM    4  N   UNK N   1      21.283  20.729   2.549  0.00  0.00    -0.202 N 
ATOM      5  HN  UNK N   1      21.551  21.679   2.805  1.00  0.00     0.183 HD
HETATM    6  C   UNK N   1      20.668  20.501   1.358  0.00  0.00     0.676 A 
HETATM    7  N   UNK N   1      20.307  19.240   1.011  0.00  0.00    -0.190 N 
ATOM      8  HN  UNK N   1      19.846  19.081   0.114  1.00  0.00     0.184 HD
HETATM    9  N   UNK N   1      20.403  21.572   0.484  0.00  0.00    -0.234 N 
HETATM   10  H   UNK N   1      19.957  21.405  -0.377  0.00  0.00     0.174 HD
HETATM   11  H   UNK N   1      20.663  22.488   0.734  0.00  0.00     0.174 HD
ENDROOT
BRANCH   1  12
HETATM   12  C   UNK N   1      20.137  16.841   1.404  0.00  0.00     0.068 A 
HETATM   13  C   UNK N   1      20.831  15.658   1.745  0.00  0.00     0.085 A 
HETATM   14  S   UNK N   1      19.964  14.437   1.022  0.00  0.00    -0.064 SA
HETATM   15  C   UNK N   1      18.797  15.368   0.332  0.00  0.00     0.142 A 
HETATM   16  N   UNK N   1      19.013  16.668   0.622  0.00  0.00    -0.335 N 
ATOM     17  HN  UNK N   1      18.416  17.431   0.301  1.00  0.00     0.168 HD
BRANCH  15  18
HETATM   18  N   UNK N   1      17.721  14.905  -0.450  0.00  0.00    -0.380 N 
HETATM   19  H   UNK N   1      17.821  14.826  -1.426  0.00  0.00     0.158 HD
HETATM   20  H   UNK N   1      16.870  14.662  -0.020  0.00  0.00     0.158 HD
ENDBRANCH  15  18
ENDBRANCH   1  12
TORSDOF 2
ENDMDL
MODEL 2
REMARK VINA RESULT:      -5.1     11.538     13.276
REMARK  2 active torsions:
REMARK  status: ('A' for Active; 'I' for Inactive)
REMARK    1  A    between atoms: N_1  and  C_2 
REMARK    2  A    between atoms: C_7  and  C_8 
REMARK       I    between atoms: C_13  and  N_16 
ROOT
HETATM    1  C   UNK N   1      30.410  17.204   7.450  0.00  0.00     0.077 A 
HETATM    2  C   UNK N   1      29.811  16.478   6.415  0.00  0.00     0.050 A 
HETATM    3  C   UNK N   1      28.422  16.511   6.299  0.00  0.00     0.108 A 
HETATM    4  N   UNK N   1      27.681  17.236   7.178  0.00  0.00    -0.202 N 
ATOM      5  HN  UNK N   1      26.666  17.256   7.087  1.00  0.00     0.183 HD
HETATM    6  C   UNK N   1      28.281  17.936   8.177  0.00  0.00     0.676 A 
HETATM    7  N   UNK N   1      29.631  17.916   8.305  0.00  0.00    -0.190 N 
ATOM      8  HN  UNK N   1      30.070  18.445   9.059  1.00  0.00     0.184 HD
HETATM    9  N   UNK N   1      27.502  18.684   9.081  0.00  0.00    -0.234 N 
HETATM   10  H   UNK N   1      27.938  19.190   9.804  0.00  0.00     0.174 HD
HETATM   11  H   UNK N   1      26.522  18.700   8.990  0.00  0.00     0.174 HD
ENDROOT
BRANCH   1  12
HETATM   12  C   UNK N   1      31.868  17.218   7.636  0.00  0.00     0.068 A 
HETATM   13  C   UNK N   1      32.799  17.275   6.573  0.00  0.00     0.085 A 
HETATM   14  S   UNK N   1      34.286  17.266   7.314  0.00  0.00    -0.064 SA
HETATM   15  C   UNK N   1      33.762  17.195   8.871  0.00  0.00     0.142 A 
HETATM   16  N   UNK N   1      32.414  17.174   8.903  0.00  0.00    -0.335 N 
ATOM     17  HN  UNK N   1      31.864  17.131   9.761  1.00  0.00     0.168 HD
BRANCH  15  18
HETATM   18  N   UNK N   1      34.576  17.160  10.020  0.00  0.00    -0.380 N 
HETATM   19  H   UNK N   1      35.473  17.566  10.000  0.00  0.00     0.158 HD
HETATM   20  H   UNK N   1      34.248  16.731  10.842  0.00  0.00     0.158 HD
ENDBRANCH  15  18
ENDBRANCH   1  12
TORSDOF 2
ENDMDL
MODEL 3
REMARK VINA RESULT:      -5.1      3.691      5.680
REMARK  2 active torsions:
REMARK  status: ('A' for Active; 'I' for Inactive)
REMARK    1  A    between atoms: N_1  and  C_2 
REMARK    2  A    between atoms: C_7  and  C_8 
REMARK       I    between atoms: C_13  and  N_16 
ROOT
HETATM    1  C   UNK N   1      22.392  19.662   3.093  0.00  0.00     0.077 A 
HETATM    2  C   UNK N   1      21.462  18.869   3.773  0.00  0.00     0.050 A 
HETATM    3  C   UNK N   1      20.140  18.865   3.327  0.00  0.00     0.108 A 
HETATM    4  N   UNK N   1      19.781  19.618   2.255  0.00  0.00    -0.202 N 
ATOM      5  HN  UNK N   1      18.813  19.610   1.934  1.00  0.00     0.183 HD
HETATM    6  C   UNK N   1      20.698  20.383   1.605  0.00  0.00     0.676 A 
HETATM    7  N   UNK N   1      21.988  20.399   2.026  0.00  0.00    -0.190 N 
ATOM      8  HN  UNK N   1      22.668  20.977   1.530  1.00  0.00     0.184 HD
HETATM    9  N   UNK N   1      20.313  21.159   0.496  0.00  0.00    -0.234 N 
HETATM   10  H   UNK N   1      20.979  21.712   0.027  0.00  0.00     0.174 HD
HETATM   11  H   UNK N   1      19.378  21.149   0.190  0.00  0.00     0.174 HD
ENDROOT
BRANCH   1  12
HETATM   12  C   UNK N   1      23.802  19.718   3.504  0.00  0.00     0.068 A 
HETATM   13  C   UNK N   1      24.777  20.524   2.872  0.00  0.00     0.085 A 
HETATM   14  S   UNK N   1      26.181  20.221   3.709  0.00  0.00    -0.064 SA
HETATM   15  C   UNK N   1      25.570  19.143   4.790  0.00  0.00     0.142 A 
HETATM   16  N   UNK N   1      24.254  18.958   4.565  0.00  0.00    -0.335 N 
ATOM     17  HN  UNK N   1      23.663  18.332   5.112  1.00  0.00     0.168 HD
BRANCH  15  18
HETATM   18  N   UNK N   1      26.291  18.493   5.811  0.00  0.00    -0.380 N 
HETATM   19  H   UNK N   1      26.571  17.556   5.695  0.00  0.00     0.158 HD
HETATM   20  H   UNK N   1      26.515  18.975   6.639  0.00  0.00     0.158 HD
ENDBRANCH  15  18
ENDBRANCH   1  12
TORSDOF 2
ENDMDL
MODEL 4
REMARK VINA RESULT:      -5.1     12.010     13.493
REMARK  2 active torsions:
REMARK  status: ('A' for Active; 'I' for Inactive)
REMARK    1  A    between atoms: N_1  and  C_2 
REMARK    2  A    between atoms: C_7  and  C_8 
REMARK       I    between atoms: C_13  and  N_16 
ROOT
HETATM    1  C   UNK N   1      31.859  17.464   8.006  0.00  0.00     0.077 A 
HETATM    2  C   UNK N   1      32.428  17.450   6.728  0.00  0.00     0.050 A 
HETATM    3  C   UNK N   1      33.813  17.330   6.618  0.00  0.00     0.108 A 
HETATM    4  N   UNK N   1      34.579  17.231   7.737  0.00  0.00    -0.202 N 
ATOM      5  HN  UNK N   1      35.591  17.144   7.650  1.00  0.00     0.183 HD
HETATM    6  C   UNK N   1      34.009  17.247   8.971  0.00  0.00     0.676 A 
HETATM    7  N   UNK N   1      32.663  17.363   9.096  0.00  0.00    -0.190 N 
ATOM      8  HN  UNK N   1      32.247  17.374  10.028  1.00  0.00     0.184 HD
HETATM    9  N   UNK N   1      34.813  17.144  10.122  0.00  0.00    -0.234 N 
HETATM   10  H   UNK N   1      34.399  17.156  11.014  0.00  0.00     0.174 HD
HETATM   11  H   UNK N   1      35.790  17.060  10.033  0.00  0.00     0.174 HD
ENDROOT
BRANCH   1  12
HETATM   12  C   UNK N   1      30.408  17.587   8.201  0.00  0.00     0.068 A 
HETATM   13  C   UNK N   1      29.812  18.195   9.330  0.00  0.00     0.085 A 
HETATM   14  S   UNK N   1      28.176  18.074   9.059  0.00  0.00    -0.064 SA
HETATM   15  C   UNK N   1      28.244  17.303   7.609  0.00  0.00     0.142 A 
HETATM   16  N   UNK N   1      29.529  17.097   7.255  0.00  0.00    -0.335 N 
ATOM     17  HN  UNK N   1      29.817  16.635   6.393  1.00  0.00     0.168 HD
BRANCH  15  18
HETATM   18  N   UNK N   1      27.141  16.903   6.829  0.00  0.00    -0.380 N 
HETATM   19  H   UNK N   1      26.330  17.461   6.802  0.00  0.00     0.158 HD
HETATM   20  H   UNK N   1      27.182  16.067   6.311  0.00  0.00     0.158 HD
ENDBRANCH  15  18
ENDBRANCH   1  12
TORSDOF 2
ENDMDL
MODEL 5
REMARK VINA RESULT:      -4.9     11.511     13.232
REMARK  2 active torsions:
REMARK  status: ('A' for Active; 'I' for Inactive)
REMARK    1  A    between atoms: N_1  and  C_2 
REMARK    2  A    between atoms: C_7  and  C_8 
REMARK       I    between atoms: C_13  and  N_16 
ROOT
HETATM    1  C   UNK N   1      30.238  17.392   8.070  0.00  0.00     0.077 A 
HETATM    2  C   UNK N   1      29.564  17.802   9.226  0.00  0.00     0.050 A 
HETATM    3  C   UNK N   1      28.169  17.824   9.209  0.00  0.00     0.108 A 
HETATM    4  N   UNK N   1      27.496  17.452   8.088  0.00  0.00    -0.202 N 
ATOM      5  HN  UNK N   1      26.477  17.471   8.083  1.00  0.00     0.183 HD
HETATM    6  C   UNK N   1      28.167  17.057   6.974  0.00  0.00     0.676 A 
HETATM    7  N   UNK N   1      29.524  17.030   6.973  0.00  0.00    -0.190 N 
ATOM      8  HN  UNK N   1      30.017  16.731   6.131  1.00  0.00     0.184 HD
HETATM    9  N   UNK N   1      27.458  16.675   5.820  0.00  0.00    -0.234 N 
HETATM   10  H   UNK N   1      27.946  16.389   5.015  0.00  0.00     0.174 HD
HETATM   11  H   UNK N   1      26.473  16.694   5.819  0.00  0.00     0.174 HD
ENDROOT
BRANCH   1  12
HETATM   12  C   UNK N   1      31.706  17.344   8.012  0.00  0.00     0.068 A 
HETATM   13  C   UNK N   1      32.448  17.352   6.809  0.00  0.00     0.085 A 
HETATM   14  S   UNK N   1      34.037  17.284   7.294  0.00  0.00    -0.064 SA
HETATM   15  C   UNK N   1      33.775  17.247   8.917  0.00  0.00     0.142 A 
HETATM   16  N   UNK N   1      32.452  17.286   9.172  0.00  0.00    -0.335 N 
ATOM     17  HN  UNK N   1      32.050  17.273  10.110  1.00  0.00     0.168 HD
BRANCH  15  18
HETATM   18  N   UNK N   1      34.767  17.185   9.916  0.00  0.00    -0.380 N 
HETATM   19  H   UNK N   1      35.016  17.999  10.413  0.00  0.00     0.158 HD
HETATM   20  H   UNK N   1      35.209  16.330  10.118  0.00  0.00     0.158 HD
ENDBRANCH  15  18
ENDBRANCH   1  12
TORSDOF 2
ENDMDL
MODEL 6
REMARK VINA RESULT:      -4.9     18.283     19.720
REMARK  2 active torsions:
REMARK  status: ('A' for Active; 'I' for Inactive)
REMARK    1  A    between atoms: N_1  and  C_2 
REMARK    2  A    between atoms: C_7  and  C_8 
REMARK       I    between atoms: C_13  and  N_16 
ROOT
HETATM    1  C   UNK N   1      35.797  14.182  12.845  0.00  0.00     0.077 A 
HETATM    2  C   UNK N   1      35.304  12.948  13.284  0.00  0.00     0.050 A 
HETATM    3  C   UNK N   1      35.589  12.546  14.589  0.00  0.00     0.108 A 
HETATM    4  N   UNK N   1      36.328  13.346  15.402  0.00  0.00    -0.202 N 
ATOM      5  HN  UNK N   1      36.532  13.046  16.355  1.00  0.00     0.183 HD
HETATM    6  C   UNK N   1      36.798  14.542  14.958  0.00  0.00     0.676 A 
HETATM    7  N   UNK N   1      36.531  14.948  13.692  0.00  0.00    -0.190 N 
ATOM      8  HN  UNK N   1      36.890  15.848  13.370  1.00  0.00     0.184 HD
HETATM    9  N   UNK N   1      37.563  15.360  15.811  0.00  0.00    -0.234 N 
HETATM   10  H   UNK N   1      37.902  16.225  15.488  0.00  0.00     0.174 HD
HETATM   11  H   UNK N   1      37.758  15.067  16.730  0.00  0.00     0.174 HD
ENDROOT
BRANCH   1  12
HETATM   12  C   UNK N   1      35.538  14.672  11.484  0.00  0.00     0.068 A 
HETATM   13  C   UNK N   1      35.878  13.959  10.311  0.00  0.00     0.085 A 
HETATM   14  S   UNK N   1      35.379  14.938   9.063  0.00  0.00    -0.064 SA
HETATM   15  C   UNK N   1      34.779  16.171   9.971  0.00  0.00     0.142 A 
HETATM   16  N   UNK N   1      34.930  15.895  11.282  0.00  0.00    -0.335 N 
ATOM     17  HN  UNK N   1      34.631  16.515  12.035  1.00  0.00     0.168 HD
BRANCH  15  18
HETATM   18  N   UNK N   1      34.188  17.352   9.480  0.00  0.00    -0.380 N 
HETATM   19  H   UNK N   1      33.773  17.360   8.587  0.00  0.00     0.158 HD
HETATM   20  H   UNK N   1      34.190  18.168  10.029  0.00  0.00     0.158 HD
ENDBRANCH  15  18
ENDBRANCH   1  12
TORSDOF 2
ENDMDL
MODEL 7
REMARK VINA RESULT:      -4.9     13.010     14.546
REMARK  2 active torsions:
REMARK  status: ('A' for Active; 'I' for Inactive)
REMARK    1  A    between atoms: N_1  and  C_2 
REMARK    2  A    between atoms: C_7  and  C_8 
REMARK       I    between atoms: C_13  and  N_16 
ROOT
HETATM    1  C   UNK N   1      32.671  16.420   8.355  0.00  0.00     0.077 A 
HETATM    2  C   UNK N   1      33.301  15.462   7.553  0.00  0.00     0.050 A 
HETATM    3  C   UNK N   1      34.592  15.058   7.892  0.00  0.00     0.108 A 
HETATM    4  N   UNK N   1      35.210  15.593   8.979  0.00  0.00    -0.202 N 
ATOM      5  HN  UNK N   1      36.154  15.293   9.221  1.00  0.00     0.183 HD
HETATM    6  C   UNK N   1      34.581  16.523   9.747  0.00  0.00     0.676 A 
HETATM    7  N   UNK N   1      33.325  16.927   9.431  0.00  0.00    -0.190 N 
ATOM      8  HN  UNK N   1      32.864  17.625  10.014  1.00  0.00     0.184 HD
HETATM    9  N   UNK N   1      35.232  17.068  10.869  0.00  0.00    -0.234 N 
HETATM   10  H   UNK N   1      34.776  17.741  11.423  0.00  0.00     0.174 HD
HETATM   11  H   UNK N   1      36.144  16.776  11.100  0.00  0.00     0.174 HD
ENDROOT
BRANCH   1  12
HETATM   12  C   UNK N   1      31.311  16.894   8.060  0.00  0.00     0.068 A 
HETATM   13  C   UNK N   1      30.700  16.799   6.788  0.00  0.00     0.085 A 
HETATM   14  S   UNK N   1      29.193  17.469   6.993  0.00  0.00    -0.064 SA
HETATM   15  C   UNK N   1      29.329  17.845   8.588  0.00  0.00     0.142 A 
HETATM   16  N   UNK N   1      30.541  17.475   9.048  0.00  0.00    -0.335 N 
ATOM     17  HN  UNK N   1      30.852  17.609  10.010  1.00  0.00     0.168 HD
BRANCH  15  18
HETATM   18  N   UNK N   1      28.342  18.462   9.382  0.00  0.00    -0.380 N 
HETATM   19  H   UNK N   1      28.568  19.258   9.917  0.00  0.00     0.158 HD
HETATM   20  H   UNK N   1      27.428  18.098   9.402  0.00  0.00     0.158 HD
ENDBRANCH  15  18
ENDBRANCH   1  12
TORSDOF 2
ENDMDL
MODEL 8
REMARK VINA RESULT:      -4.9     23.884     25.264
REMARK  2 active torsions:
REMARK  status: ('A' for Active; 'I' for Inactive)
REMARK    1  A    between atoms: N_1  and  C_2 
REMARK    2  A    between atoms: C_7  and  C_8 
REMARK       I    between atoms: C_13  and  N_16 
ROOT
HETATM    1  C   UNK N   1      44.398  21.125   3.057  0.00  0.00     0.077 A 
HETATM    2  C   UNK N   1      43.009  21.020   2.927  0.00  0.00     0.050 A 
HETATM    3  C   UNK N   1      42.266  22.190   2.766  0.00  0.00     0.108 A 
HETATM    4  N   UNK N   1      42.893  23.396   2.738  0.00  0.00    -0.202 N 
ATOM      5  HN  UNK N   1      42.344  24.247   2.620  1.00  0.00     0.183 HD
HETATM    6  C   UNK N   1      44.244  23.479   2.867  0.00  0.00     0.676 A 
HETATM    7  N   UNK N   1      44.982  22.351   3.024  0.00  0.00    -0.190 N 
ATOM      8  HN  UNK N   1      45.995  22.426   3.120  1.00  0.00     0.184 HD
HETATM    9  N   UNK N   1      44.880  24.734   2.837  0.00  0.00    -0.234 N 
HETATM   10  H   UNK N   1      45.858  24.792   2.930  0.00  0.00     0.174 HD
HETATM   11  H   UNK N   1      44.347  25.554   2.723  0.00  0.00     0.174 HD
ENDROOT
BRANCH   1  12
HETATM   12  C   UNK N   1      45.246  19.938   3.230  0.00  0.00     0.068 A 
HETATM   13  C   UNK N   1      44.803  18.613   3.009  0.00  0.00     0.085 A 
HETATM   14  S   UNK N   1      46.127  17.665   3.340  0.00  0.00    -0.064 SA
HETATM   15  C   UNK N   1      47.174  18.870   3.734  0.00  0.00     0.142 A 
HETATM   16  N   UNK N   1      46.560  20.067   3.632  0.00  0.00    -0.335 N 
ATOM     17  HN  UNK N   1      47.013  20.959   3.827  1.00  0.00     0.168 HD
BRANCH  15  18
HETATM   18  N   UNK N   1      48.518  18.707   4.124  0.00  0.00    -0.380 N 
HETATM   19  H   UNK N   1      48.799  17.887   4.592  0.00  0.00     0.158 HD
HETATM   20  H   UNK N   1      49.175  19.413   3.930  0.00  0.00     0.158 HD
ENDBRANCH  15  18
ENDBRANCH   1  12
TORSDOF 2
ENDMDL
MODEL 9
REMARK VINA RESULT:      -4.8     18.034     19.306
REMARK  2 active torsions:
REMARK  status: ('A' for Active; 'I' for Inactive)
REMARK    1  A    between atoms: N_1  and  C_2 
REMARK    2  A    between atoms: C_7  and  C_8 
REMARK       I    between atoms: C_13  and  N_16 
ROOT
HETATM    1  C   UNK N   1      35.198  14.301  11.881  0.00  0.00     0.077 A 
HETATM    2  C   UNK N   1      35.963  15.461  11.722  0.00  0.00     0.050 A 
HETATM    3  C   UNK N   1      35.470  16.475  10.900  0.00  0.00     0.108 A 
HETATM    4  N   UNK N   1      34.272  16.323  10.276  0.00  0.00    -0.202 N 
ATOM      5  HN  UNK N   1      33.918  17.067   9.676  1.00  0.00     0.183 HD
HETATM    6  C   UNK N   1      33.542  15.188  10.442  0.00  0.00     0.676 A 
HETATM    7  N   UNK N   1      34.007  14.192  11.238  0.00  0.00    -0.190 N 
ATOM      8  HN  UNK N   1      33.450  13.345  11.355  1.00  0.00     0.184 HD
HETATM    9  N   UNK N   1      32.304  15.043   9.789  0.00  0.00    -0.234 N 
HETATM   10  H   UNK N   1      31.776  14.221   9.911  0.00  0.00     0.174 HD
HETATM   11  H   UNK N   1      31.965  15.765   9.211  0.00  0.00     0.174 HD
ENDROOT
BRANCH   1  12
HETATM   12  C   UNK N   1      35.652  13.191  12.731  0.00  0.00     0.068 A 
HETATM   13  C   UNK N   1      34.794  12.196  13.255  0.00  0.00     0.085 A 
HETATM   14  S   UNK N   1      35.793  11.197  14.131  0.00  0.00    -0.064 SA
HETATM   15  C   UNK N   1      37.206  11.989  13.851  0.00  0.00     0.142 A 
HETATM   16  N   UNK N   1      36.985  13.065  13.068  0.00  0.00    -0.335 N 
ATOM     17  HN  UNK N   1      37.714  13.709  12.762  1.00  0.00     0.168 HD
BRANCH  15  18
HETATM   18  N   UNK N   1      38.474  11.623  14.342  0.00  0.00    -0.380 N 
HETATM   19  H   UNK N   1      38.594  11.431  15.300  0.00  0.00     0.158 HD
HETATM   20  H   UNK N   1      39.240  11.559  13.727  0.00  0.00     0.158 HD
ENDBRANCH  15  18
ENDBRANCH   1  12
TORSDOF 2
ENDMDL
