MODEL 1
REMARK VINA RESULT:      -7.3      0.000      0.000
REMARK  3 active torsions:
REMARK  status: ('A' for Active; 'I' for Inactive)
REMARK    1  A    between atoms: C_8  and  C_9 
REMARK    2  A    between atoms: C_9  and  N_10 
REMARK    3  A    between atoms: C_16  and  C_17 
REMARK       I    between atoms: C_22  and  N_25 
ROOT
HETATM    1  N   UNK N   1      36.019  12.355  13.634  0.00  0.00    -0.340 N 
HETATM    2  C   UNK N   1      36.178  13.441  12.858  0.00  0.00     0.124 A 
HETATM    3  C   UNK N   1      34.920  11.720  13.177  0.00  0.00     0.080 A 
HETATM    4  C   UNK N   1      34.352  10.478  13.771  0.00  0.00     0.089 C 
HETATM    5  N   UNK N   1      34.342  12.384  12.156  0.00  0.00    -0.343 N 
ATOM      6  HN  UNK N   1      33.498  12.127  11.643  1.00  0.00     0.167 HD
HETATM    7  C   UNK N   1      35.128  13.461  11.962  0.00  0.00     0.076 A 
ENDROOT
BRANCH   7   8
HETATM    8  C   UNK N   1      34.783  14.586  11.083  0.00  0.00     0.078 A 
HETATM    9  C   UNK N   1      35.647  15.677  10.958  0.00  0.00     0.050 A 
HETATM   10  C   UNK N   1      35.233  16.776  10.212  0.00  0.00     0.108 A 
HETATM   11  N   UNK N   1      33.997  16.784   9.646  0.00  0.00    -0.202 N 
HETATM   12  C   UNK N   1      33.164  15.719   9.782  0.00  0.00     0.676 A 
ATOM     13  HN  UNK N   1      33.692  17.598   9.113  1.00  0.00     0.183 HD
HETATM   14  N   UNK N   1      33.558  14.629  10.492  0.00  0.00    -0.190 N 
HETATM   15  N   UNK N   1      31.876  15.759   9.213  0.00  0.00    -0.234 N 
ATOM     16  HN  UNK N   1      32.926  13.834  10.585  1.00  0.00     0.184 HD
HETATM   17  H   UNK N   1      31.239  15.014   9.307  0.00  0.00     0.174 HD
HETATM   18  H   UNK N   1      31.604  16.557   8.706  0.00  0.00     0.174 HD
ENDBRANCH   7   8
BRANCH   1  19
HETATM   19  C   UNK N   1      36.780  11.976  14.832  0.00  0.00     0.171 C 
BRANCH  19  20
HETATM   20  C   UNK N   1      36.191  12.441  16.146  0.00  0.00     0.004 A 
HETATM   21  C   UNK N   1      36.272  13.809  16.475  0.00  0.00     0.043 A 
HETATM   22 Cl   UNK N   1      37.057  14.962  15.404  0.00  0.00    -0.084 Cl
HETATM   23  C   UNK N   1      35.758  14.273  17.689  0.00  0.00     0.024 A 
HETATM   24  C   UNK N   1      35.157  13.390  18.583  0.00  0.00     0.003 A 
HETATM   25  C   UNK N   1      35.092  12.032  18.283  0.00  0.00     0.024 A 
HETATM   26  C   UNK N   1      35.609  11.543  17.080  0.00  0.00     0.043 A 
HETATM   27 Cl   UNK N   1      35.538   9.804  16.816  0.00  0.00    -0.084 Cl
ENDBRANCH  19  20
ENDBRANCH   1  19
TORSDOF 3
ENDMDL
MODEL 2
REMARK VINA RESULT:      -7.2     11.611     15.324
REMARK  3 active torsions:
REMARK  status: ('A' for Active; 'I' for Inactive)
REMARK    1  A    between atoms: C_8  and  C_9 
REMARK    2  A    between atoms: C_9  and  N_10 
REMARK    3  A    between atoms: C_16  and  C_17 
REMARK       I    between atoms: C_22  and  N_25 
ROOT
HETATM    1  N   UNK N   1      25.401  18.748   4.102  0.00  0.00    -0.340 N 
HETATM    2  C   UNK N   1      24.335  18.041   4.515  0.00  0.00     0.124 A 
HETATM    3  C   UNK N   1      24.916  19.783   3.386  0.00  0.00     0.080 A 
HETATM    4  C   UNK N   1      25.754  20.808   2.706  0.00  0.00     0.089 C 
HETATM    5  N   UNK N   1      23.572  19.743   3.290  0.00  0.00    -0.343 N 
ATOM      6  HN  UNK N   1      22.962  20.396   2.797  1.00  0.00     0.167 HD
HETATM    7  C   UNK N   1      23.212  18.651   3.993  0.00  0.00     0.076 A 
ENDROOT
BRANCH   7   8
HETATM    8  C   UNK N   1      21.856  18.087   4.004  0.00  0.00     0.078 A 
HETATM    9  C   UNK N   1      21.592  16.892   4.679  0.00  0.00     0.050 A 
HETATM   10  C   UNK N   1      20.326  16.326   4.566  0.00  0.00     0.108 A 
HETATM   11  N   UNK N   1      19.385  16.922   3.788  0.00  0.00    -0.202 N 
HETATM   12  C   UNK N   1      19.657  18.079   3.131  0.00  0.00     0.676 A 
ATOM     13  HN  UNK N   1      18.463  16.495   3.696  1.00  0.00     0.183 HD
HETATM   14  N   UNK N   1      20.883  18.657   3.242  0.00  0.00    -0.190 N 
HETATM   15  N   UNK N   1      18.677  18.665   2.305  0.00  0.00    -0.234 N 
ATOM     16  HN  UNK N   1      21.075  19.528   2.748  1.00  0.00     0.184 HD
HETATM   17  H   UNK N   1      18.846  19.493   1.799  0.00  0.00     0.174 HD
HETATM   18  H   UNK N   1      17.797  18.233   2.231  0.00  0.00     0.174 HD
ENDBRANCH   7   8
BRANCH   1  19
HETATM   19  C   UNK N   1      26.824  18.417   4.257  0.00  0.00     0.171 C 
BRANCH  19  20
HETATM   20  C   UNK N   1      27.315  18.328   5.685  0.00  0.00     0.004 A 
HETATM   21  C   UNK N   1      27.417  17.057   6.286  0.00  0.00     0.043 A 
HETATM   22 Cl   UNK N   1      26.967  15.597   5.416  0.00  0.00    -0.084 Cl
HETATM   23  C   UNK N   1      27.848  16.936   7.610  0.00  0.00     0.024 A 
HETATM   24  C   UNK N   1      28.183  18.069   8.348  0.00  0.00     0.003 A 
HETATM   25  C   UNK N   1      28.064  19.333   7.776  0.00  0.00     0.024 A 
HETATM   26  C   UNK N   1      27.626  19.480   6.457  0.00  0.00     0.043 A 
HETATM   27 Cl   UNK N   1      27.446  21.119   5.842  0.00  0.00    -0.084 Cl
ENDBRANCH  19  20
ENDBRANCH   1  19
TORSDOF 3
ENDMDL
MODEL 3
REMARK VINA RESULT:      -7.2      0.234      1.979
REMARK  3 active torsions:
REMARK  status: ('A' for Active; 'I' for Inactive)
REMARK    1  A    between atoms: C_8  and  C_9 
REMARK    2  A    between atoms: C_9  and  N_10 
REMARK    3  A    between atoms: C_16  and  C_17 
REMARK       I    between atoms: C_22  and  N_25 
ROOT
HETATM    1  N   UNK N   1      35.948  12.320  13.760  0.00  0.00    -0.340 N 
HETATM    2  C   UNK N   1      36.168  13.429  13.032  0.00  0.00     0.124 A 
HETATM    3  C   UNK N   1      34.858  11.728  13.230  0.00  0.00     0.080 A 
HETATM    4  C   UNK N   1      34.236  10.480  13.751  0.00  0.00     0.089 C 
HETATM    5  N   UNK N   1      34.344  12.441  12.208  0.00  0.00    -0.343 N 
ATOM      6  HN  UNK N   1      33.520  12.222  11.647  1.00  0.00     0.167 HD
HETATM    7  C   UNK N   1      35.162  13.505  12.090  0.00  0.00     0.076 A 
ENDROOT
BRANCH   7   8
HETATM    8  C   UNK N   1      34.884  14.668  11.237  0.00  0.00     0.078 A 
HETATM    9  C   UNK N   1      35.741  15.772  11.244  0.00  0.00     0.050 A 
HETATM   10  C   UNK N   1      35.382  16.902  10.515  0.00  0.00     0.108 A 
HETATM   11  N   UNK N   1      34.203  16.926   9.840  0.00  0.00    -0.202 N 
HETATM   12  C   UNK N   1      33.375  15.848   9.847  0.00  0.00     0.676 A 
ATOM     13  HN  UNK N   1      33.937  17.762   9.320  1.00  0.00     0.183 HD
HETATM   14  N   UNK N   1      33.717  14.729  10.539  0.00  0.00    -0.190 N 
HETATM   15  N   UNK N   1      32.144  15.904   9.165  0.00  0.00    -0.234 N 
ATOM     16  HN  UNK N   1      33.090  13.924  10.535  1.00  0.00     0.184 HD
HETATM   17  H   UNK N   1      31.511  15.150   9.165  0.00  0.00     0.174 HD
HETATM   18  H   UNK N   1      31.909  16.723   8.674  0.00  0.00     0.174 HD
ENDBRANCH   7   8
BRANCH   1  19
HETATM   19  C   UNK N   1      36.644  11.882  14.977  0.00  0.00     0.171 C 
BRANCH  19  20
HETATM   20  C   UNK N   1      36.154  12.511  16.264  0.00  0.00     0.004 A 
HETATM   21  C   UNK N   1      35.449  11.707  17.182  0.00  0.00     0.043 A 
HETATM   22 Cl   UNK N   1      35.118  10.013  16.848  0.00  0.00    -0.084 Cl
HETATM   23  C   UNK N   1      34.964  12.257  18.372  0.00  0.00     0.024 A 
HETATM   24  C   UNK N   1      35.174  13.603  18.663  0.00  0.00     0.003 A 
HETATM   25  C   UNK N   1      35.848  14.416  17.754  0.00  0.00     0.024 A 
HETATM   26  C   UNK N   1      36.333  13.890  16.553  0.00  0.00     0.043 A 
HETATM   27 Cl   UNK N   1      37.114  15.007  15.439  0.00  0.00    -0.084 Cl
ENDBRANCH  19  20
ENDBRANCH   1  19
TORSDOF 3
ENDMDL
MODEL 4
REMARK VINA RESULT:      -7.2      8.165     11.054
REMARK  3 active torsions:
REMARK  status: ('A' for Active; 'I' for Inactive)
REMARK    1  A    between atoms: C_8  and  C_9 
REMARK    2  A    between atoms: C_9  and  N_10 
REMARK    3  A    between atoms: C_16  and  C_17 
REMARK       I    between atoms: C_22  and  N_25 
ROOT
HETATM    1  N   UNK N   1      29.757  17.151   8.077  0.00  0.00    -0.340 N 
HETATM    2  C   UNK N   1      29.120  17.951   7.204  0.00  0.00     0.124 A 
HETATM    3  C   UNK N   1      29.163  17.345   9.272  0.00  0.00     0.080 A 
HETATM    4  C   UNK N   1      29.576  16.682  10.540  0.00  0.00     0.089 C 
HETATM    5  N   UNK N   1      28.189  18.275   9.206  0.00  0.00    -0.343 N 
ATOM      6  HN  UNK N   1      27.599  18.614   9.965  1.00  0.00     0.167 HD
HETATM    7  C   UNK N   1      28.168  18.655   7.914  0.00  0.00     0.076 A 
ENDROOT
BRANCH   7   8
HETATM    8  C   UNK N   1      27.402  19.799   7.402  0.00  0.00     0.078 A 
HETATM    9  C   UNK N   1      27.607  20.263   6.100  0.00  0.00     0.050 A 
HETATM   10  C   UNK N   1      26.952  21.421   5.692  0.00  0.00     0.108 A 
HETATM   11  N   UNK N   1      26.154  22.090   6.565  0.00  0.00    -0.202 N 
HETATM   12  C   UNK N   1      25.968  21.632   7.830  0.00  0.00     0.676 A 
ATOM     13  HN  UNK N   1      25.688  22.947   6.266  1.00  0.00     0.183 HD
HETATM   14  N   UNK N   1      26.586  20.493   8.242  0.00  0.00    -0.190 N 
HETATM   15  N   UNK N   1      25.161  22.357   8.729  0.00  0.00    -0.234 N 
ATOM     16  HN  UNK N   1      26.438  20.156   9.193  1.00  0.00     0.184 HD
HETATM   17  H   UNK N   1      25.019  22.065   9.658  0.00  0.00     0.174 HD
HETATM   18  H   UNK N   1      24.725  23.182   8.417  0.00  0.00     0.174 HD
ENDBRANCH   7   8
BRANCH   1  19
HETATM   19  C   UNK N   1      30.950  16.326   7.847  0.00  0.00     0.171 C 
BRANCH  19  20
HETATM   20  C   UNK N   1      31.646  16.549   6.522  0.00  0.00     0.004 A 
HETATM   21  C   UNK N   1      31.190  15.840   5.392  0.00  0.00     0.043 A 
HETATM   22 Cl   UNK N   1      29.856  14.699   5.507  0.00  0.00    -0.084 Cl
HETATM   23  C   UNK N   1      31.820  16.004   4.156  0.00  0.00     0.024 A 
HETATM   24  C   UNK N   1      32.901  16.873   4.026  0.00  0.00     0.003 A 
HETATM   25  C   UNK N   1      33.379  17.562   5.138  0.00  0.00     0.024 A 
HETATM   26  C   UNK N   1      32.772  17.405   6.387  0.00  0.00     0.043 A 
HETATM   27 Cl   UNK N   1      33.484  18.267   7.746  0.00  0.00    -0.084 Cl
ENDBRANCH  19  20
ENDBRANCH   1  19
TORSDOF 3
ENDMDL
MODEL 5
REMARK VINA RESULT:      -7.1      6.952     11.189
REMARK  3 active torsions:
REMARK  status: ('A' for Active; 'I' for Inactive)
REMARK    1  A    between atoms: C_8  and  C_9 
REMARK    2  A    between atoms: C_9  and  N_10 
REMARK    3  A    between atoms: C_16  and  C_17 
REMARK       I    between atoms: C_22  and  N_25 
ROOT
HETATM    1  N   UNK N   1      29.351  16.459   6.728  0.00  0.00    -0.340 N 
HETATM    2  C   UNK N   1      30.129  16.962   7.701  0.00  0.00     0.124 A 
HETATM    3  C   UNK N   1      30.153  15.699   5.955  0.00  0.00     0.080 A 
HETATM    4  C   UNK N   1      29.711  14.974   4.732  0.00  0.00     0.089 C 
HETATM    5  N   UNK N   1      31.433  15.727   6.377  0.00  0.00    -0.343 N 
ATOM      6  HN  UNK N   1      32.236  15.252   5.964  1.00  0.00     0.167 HD
HETATM    7  C   UNK N   1      31.416  16.521   7.465  0.00  0.00     0.076 A 
ENDROOT
BRANCH   7   8
HETATM    8  C   UNK N   1      32.620  17.012   8.148  0.00  0.00     0.078 A 
HETATM    9  C   UNK N   1      33.380  18.043   7.590  0.00  0.00     0.050 A 
HETATM   10  C   UNK N   1      34.578  18.398   8.203  0.00  0.00     0.108 A 
HETATM   11  N   UNK N   1      34.999  17.725   9.306  0.00  0.00    -0.202 N 
HETATM   12  C   UNK N   1      34.255  16.719   9.834  0.00  0.00     0.676 A 
ATOM     13  HN  UNK N   1      35.886  17.978   9.742  1.00  0.00     0.183 HD
HETATM   14  N   UNK N   1      33.073  16.369   9.259  0.00  0.00    -0.190 N 
HETATM   15  N   UNK N   1      34.724  16.014  10.959  0.00  0.00    -0.234 N 
ATOM     16  HN  UNK N   1      32.520  15.615   9.666  1.00  0.00     0.184 HD
HETATM   17  H   UNK N   1      34.219  15.267  11.357  0.00  0.00     0.174 HD
HETATM   18  H   UNK N   1      35.583  16.275  11.361  0.00  0.00     0.174 HD
ENDBRANCH   7   8
BRANCH   1  19
HETATM   19  C   UNK N   1      27.941  16.764   6.445  0.00  0.00     0.171 C 
BRANCH  19  20
HETATM   20  C   UNK N   1      27.689  18.098   5.777  0.00  0.00     0.004 A 
HETATM   21  C   UNK N   1      27.681  19.260   6.574  0.00  0.00     0.043 A 
HETATM   22 Cl   UNK N   1      27.935  19.178   8.312  0.00  0.00    -0.084 Cl
HETATM   23  C   UNK N   1      27.431  20.508   5.997  0.00  0.00     0.024 A 
HETATM   24  C   UNK N   1      27.192  20.617   4.628  0.00  0.00     0.003 A 
HETATM   25  C   UNK N   1      27.173  19.474   3.832  0.00  0.00     0.024 A 
HETATM   26  C   UNK N   1      27.409  18.214   4.389  0.00  0.00     0.043 A 
HETATM   27 Cl   UNK N   1      27.301  16.823   3.316  0.00  0.00    -0.084 Cl
ENDBRANCH  19  20
ENDBRANCH   1  19
TORSDOF 3
ENDMDL
MODEL 6
REMARK VINA RESULT:      -7.0      8.850     11.357
REMARK  3 active torsions:
REMARK  status: ('A' for Active; 'I' for Inactive)
REMARK    1  A    between atoms: C_8  and  C_9 
REMARK    2  A    between atoms: C_9  and  N_10 
REMARK    3  A    between atoms: C_16  and  C_17 
REMARK       I    between atoms: C_22  and  N_25 
ROOT
HETATM    1  N   UNK N   1      29.408  17.294   7.519  0.00  0.00    -0.340 N 
HETATM    2  C   UNK N   1      28.639  17.310   6.417  0.00  0.00     0.124 A 
HETATM    3  C   UNK N   1      28.986  18.315   8.292  0.00  0.00     0.080 A 
HETATM    4  C   UNK N   1      29.587  18.690   9.602  0.00  0.00     0.089 C 
HETATM    5  N   UNK N   1      27.995  19.015   7.705  0.00  0.00    -0.343 N 
ATOM      6  HN  UNK N   1      27.511  19.836   8.069  1.00  0.00     0.167 HD
HETATM    7  C   UNK N   1      27.784  18.387   6.532  0.00  0.00     0.076 A 
ENDROOT
BRANCH   7   8
HETATM    8  C   UNK N   1      26.930  18.911   5.457  0.00  0.00     0.078 A 
HETATM    9  C   UNK N   1      27.410  19.895   4.589  0.00  0.00     0.050 A 
HETATM   10  C   UNK N   1      26.536  20.453   3.662  0.00  0.00     0.108 A 
HETATM   11  N   UNK N   1      25.236  20.058   3.634  0.00  0.00    -0.202 N 
HETATM   12  C   UNK N   1      24.780  19.105   4.489  0.00  0.00     0.676 A 
ATOM     13  HN  UNK N   1      24.595  20.481   2.962  1.00  0.00     0.183 HD
HETATM   14  N   UNK N   1      25.624  18.536   5.390  0.00  0.00    -0.190 N 
HETATM   15  N   UNK N   1      23.422  18.730   4.464  0.00  0.00    -0.234 N 
ATOM     16  HN  UNK N   1      25.273  17.819   6.025  1.00  0.00     0.184 HD
HETATM   17  H   UNK N   1      23.053  18.057   5.081  0.00  0.00     0.174 HD
HETATM   18  H   UNK N   1      22.823  19.155   3.809  0.00  0.00     0.174 HD
ENDBRANCH   7   8
BRANCH   1  19
HETATM   19  C   UNK N   1      30.573  16.443   7.801  0.00  0.00     0.171 C 
BRANCH  19  20
HETATM   20  C   UNK N   1      31.667  16.478   6.756  0.00  0.00     0.004 A 
HETATM   21  C   UNK N   1      31.606  15.564   5.684  0.00  0.00     0.043 A 
HETATM   22 Cl   UNK N   1      30.307  14.386   5.561  0.00  0.00    -0.084 Cl
HETATM   23  C   UNK N   1      32.609  15.553   4.711  0.00  0.00     0.024 A 
HETATM   24  C   UNK N   1      33.675  16.446   4.787  0.00  0.00     0.003 A 
HETATM   25  C   UNK N   1      33.761  17.339   5.852  0.00  0.00     0.024 A 
HETATM   26  C   UNK N   1      32.776  17.362   6.844  0.00  0.00     0.043 A 
HETATM   27 Cl   UNK N   1      33.003  18.479   8.184  0.00  0.00    -0.084 Cl
ENDBRANCH  19  20
ENDBRANCH   1  19
TORSDOF 3
ENDMDL
MODEL 7
REMARK VINA RESULT:      -6.8      2.184      3.743
REMARK  3 active torsions:
REMARK  status: ('A' for Active; 'I' for Inactive)
REMARK    1  A    between atoms: C_8  and  C_9 
REMARK    2  A    between atoms: C_9  and  N_10 
REMARK    3  A    between atoms: C_16  and  C_17 
REMARK       I    between atoms: C_22  and  N_25 
ROOT
HETATM    1  N   UNK N   1      36.826  13.341  11.698  0.00  0.00    -0.340 N 
HETATM    2  C   UNK N   1      35.752  14.145  11.618  0.00  0.00     0.124 A 
HETATM    3  C   UNK N   1      37.551  13.565  10.582  0.00  0.00     0.080 A 
HETATM    4  C   UNK N   1      38.815  12.856  10.238  0.00  0.00     0.089 C 
HETATM    5  N   UNK N   1      36.957  14.458   9.766  0.00  0.00    -0.343 N 
ATOM      6  HN  UNK N   1      37.288  14.791   8.860  1.00  0.00     0.167 HD
HETATM    7  C   UNK N   1      35.831  14.816  10.414  0.00  0.00     0.076 A 
ENDROOT
BRANCH   7   8
HETATM    8  C   UNK N   1      34.757  15.622   9.819  0.00  0.00     0.078 A 
HETATM    9  C   UNK N   1      33.509  15.052   9.553  0.00  0.00     0.050 A 
HETATM   10  C   UNK N   1      32.557  15.812   8.880  0.00  0.00     0.108 A 
HETATM   11  N   UNK N   1      32.863  17.071   8.470  0.00  0.00    -0.202 N 
HETATM   12  C   UNK N   1      34.083  17.611   8.728  0.00  0.00     0.676 A 
ATOM     13  HN  UNK N   1      32.167  17.618   7.963  1.00  0.00     0.183 HD
HETATM   14  N   UNK N   1      35.020  16.890   9.400  0.00  0.00    -0.190 N 
HETATM   15  N   UNK N   1      34.389  18.906   8.269  0.00  0.00    -0.234 N 
ATOM     16  HN  UNK N   1      35.931  17.305   9.592  1.00  0.00     0.184 HD
HETATM   17  H   UNK N   1      35.269  19.321   8.421  0.00  0.00     0.174 HD
HETATM   18  H   UNK N   1      33.703  19.413   7.780  0.00  0.00     0.174 HD
ENDBRANCH   7   8
BRANCH   1  19
HETATM   19  C   UNK N   1      37.117  12.313  12.706  0.00  0.00     0.171 C 
BRANCH  19  20
HETATM   20  C   UNK N   1      35.914  11.781  13.453  0.00  0.00     0.004 A 
HETATM   21  C   UNK N   1      35.106  10.810  12.826  0.00  0.00     0.043 A 
HETATM   22 Cl   UNK N   1      35.462  10.235  11.203  0.00  0.00    -0.084 Cl
HETATM   23  C   UNK N   1      33.975  10.309  13.476  0.00  0.00     0.024 A 
HETATM   24  C   UNK N   1      33.636  10.761  14.750  0.00  0.00     0.003 A 
HETATM   25  C   UNK N   1      34.410  11.737  15.371  0.00  0.00     0.024 A 
HETATM   26  C   UNK N   1      35.540  12.260  14.737  0.00  0.00     0.043 A 
HETATM   27 Cl   UNK N   1      36.419  13.535  15.573  0.00  0.00    -0.084 Cl
ENDBRANCH  19  20
ENDBRANCH   1  19
TORSDOF 3
ENDMDL
MODEL 8
REMARK VINA RESULT:      -6.8     13.176     16.124
REMARK  3 active torsions:
REMARK  status: ('A' for Active; 'I' for Inactive)
REMARK    1  A    between atoms: C_8  and  C_9 
REMARK    2  A    between atoms: C_9  and  N_10 
REMARK    3  A    between atoms: C_16  and  C_17 
REMARK       I    between atoms: C_22  and  N_25 
ROOT
HETATM    1  N   UNK N   1      25.260  18.449   4.581  0.00  0.00    -0.340 N 
HETATM    2  C   UNK N   1      23.930  18.283   4.478  0.00  0.00     0.124 A 
HETATM    3  C   UNK N   1      25.546  19.616   3.969  0.00  0.00     0.080 A 
HETATM    4  C   UNK N   1      26.917  20.178   3.816  0.00  0.00     0.089 C 
HETATM    5  N   UNK N   1      24.447  20.189   3.439  0.00  0.00    -0.343 N 
ATOM      6  HN  UNK N   1      24.391  21.064   2.916  1.00  0.00     0.167 HD
HETATM    7  C   UNK N   1      23.440  19.352   3.755  0.00  0.00     0.076 A 
ENDROOT
BRANCH   7   8
HETATM    8  C   UNK N   1      22.078  19.458   3.214  0.00  0.00     0.078 A 
HETATM    9  C   UNK N   1      21.079  18.577   3.635  0.00  0.00     0.050 A 
HETATM   10  C   UNK N   1      19.836  18.630   3.013  0.00  0.00     0.108 A 
HETATM   11  N   UNK N   1      19.623  19.509   1.999  0.00  0.00    -0.202 N 
HETATM   12  C   UNK N   1      20.606  20.355   1.594  0.00  0.00     0.676 A 
ATOM     13  HN  UNK N   1      18.714  19.533   1.536  1.00  0.00     0.183 HD
HETATM   14  N   UNK N   1      21.822  20.330   2.201  0.00  0.00    -0.190 N 
HETATM   15  N   UNK N   1      20.375  21.238   0.521  0.00  0.00    -0.234 N 
ATOM     16  HN  UNK N   1      22.552  20.972   1.892  1.00  0.00     0.184 HD
HETATM   17  H   UNK N   1      21.069  21.852   0.188  0.00  0.00     0.174 HD
HETATM   18  H   UNK N   1      19.491  21.240   0.089  0.00  0.00     0.174 HD
ENDBRANCH   7   8
BRANCH   1  19
HETATM   19  C   UNK N   1      26.253  17.508   5.119  0.00  0.00     0.171 C 
BRANCH  19  20
HETATM   20  C   UNK N   1      27.036  16.732   4.082  0.00  0.00     0.004 A 
HETATM   21  C   UNK N   1      26.365  15.748   3.327  0.00  0.00     0.043 A 
HETATM   22 Cl   UNK N   1      24.661  15.401   3.586  0.00  0.00    -0.084 Cl
HETATM   23  C   UNK N   1      27.059  14.997   2.375  0.00  0.00     0.024 A 
HETATM   24  C   UNK N   1      28.418  15.215   2.159  0.00  0.00     0.003 A 
HETATM   25  C   UNK N   1      29.100  16.167   2.914  0.00  0.00     0.024 A 
HETATM   26  C   UNK N   1      28.429  16.923   3.880  0.00  0.00     0.043 A 
HETATM   27 Cl   UNK N   1      29.386  18.055   4.828  0.00  0.00    -0.084 Cl
ENDBRANCH  19  20
ENDBRANCH   1  19
TORSDOF 3
ENDMDL
MODEL 9
REMARK VINA RESULT:      -6.7      4.852      9.442
REMARK  3 active torsions:
REMARK  status: ('A' for Active; 'I' for Inactive)
REMARK    1  A    between atoms: C_8  and  C_9 
REMARK    2  A    between atoms: C_9  and  N_10 
REMARK    3  A    between atoms: C_16  and  C_17 
REMARK       I    between atoms: C_22  and  N_25 
ROOT
HETATM    1  N   UNK N   1      32.916  15.464   7.978  0.00  0.00    -0.340 N 
HETATM    2  C   UNK N   1      33.795  14.594   8.503  0.00  0.00     0.124 A 
HETATM    3  C   UNK N   1      33.071  16.618   8.658  0.00  0.00     0.080 A 
HETATM    4  C   UNK N   1      32.268  17.851   8.429  0.00  0.00     0.089 C 
HETATM    5  N   UNK N   1      33.995  16.508   9.633  0.00  0.00    -0.343 N 
ATOM      6  HN  UNK N   1      34.291  17.225  10.296  1.00  0.00     0.167 HD
HETATM    7  C   UNK N   1      34.442  15.241   9.536  0.00  0.00     0.076 A 
ENDROOT
BRANCH   7   8
HETATM    8  C   UNK N   1      35.317  14.597  10.525  0.00  0.00     0.078 A 
HETATM    9  C   UNK N   1      34.934  14.521  11.867  0.00  0.00     0.050 A 
HETATM   10  C   UNK N   1      35.839  14.013  12.793  0.00  0.00     0.108 A 
HETATM   11  N   UNK N   1      37.079  13.629  12.389  0.00  0.00    -0.202 N 
HETATM   12  C   UNK N   1      37.442  13.715  11.082  0.00  0.00     0.676 A 
ATOM     13  HN  UNK N   1      37.744  13.272  13.074  1.00  0.00     0.183 HD
HETATM   14  N   UNK N   1      36.565  14.193  10.159  0.00  0.00    -0.190 N 
HETATM   15  N   UNK N   1      38.741  13.341  10.688  0.00  0.00    -0.234 N 
ATOM     16  HN  UNK N   1      36.846  14.250   9.181  1.00  0.00     0.184 HD
HETATM   17  H   UNK N   1      39.045  13.408   9.753  0.00  0.00     0.174 HD
HETATM   18  H   UNK N   1      39.366  13.002  11.368  0.00  0.00     0.174 HD
ENDBRANCH   7   8
BRANCH   1  19
HETATM   19  C   UNK N   1      31.882  15.210   6.965  0.00  0.00     0.171 C 
BRANCH  19  20
HETATM   20  C   UNK N   1      32.160  15.794   5.597  0.00  0.00     0.004 A 
HETATM   21  C   UNK N   1      31.311  16.811   5.113  0.00  0.00     0.043 A 
HETATM   22 Cl   UNK N   1      29.943  17.385   6.056  0.00  0.00    -0.084 Cl
HETATM   23  C   UNK N   1      31.523  17.361   3.846  0.00  0.00     0.024 A 
HETATM   24  C   UNK N   1      32.576  16.913   3.050  0.00  0.00     0.003 A 
HETATM   25  C   UNK N   1      33.407  15.893   3.505  0.00  0.00     0.024 A 
HETATM   26  C   UNK N   1      33.209  15.320   4.764  0.00  0.00     0.043 A 
HETATM   27 Cl   UNK N   1      34.269  13.993   5.226  0.00  0.00    -0.084 Cl
ENDBRANCH  19  20
ENDBRANCH   1  19
TORSDOF 3
ENDMDL
