MODEL 1
REMARK VINA RESULT:      -7.1      0.000      0.000
REMARK  6 active torsions:
REMARK  status: ('A' for Active; 'I' for Inactive)
REMARK    1  A    between atoms: C_1  and  N_18 
REMARK       I    between atoms: C_7  and  N_18 
REMARK       I    between atoms: C_7  and  N_19 
REMARK    2  A    between atoms: C_8  and  O_21 
REMARK    3  A    between atoms: C_11  and  N_19 
REMARK    4  A    between atoms: C_14  and  C_17 
REMARK    5  A    between atoms: C_14  and  O_21 
REMARK    6  A    between atoms: C_17  and  O_22 
ROOT
HETATM    1  C   UNK N   1      35.006  16.365   9.560  0.00  0.00     0.070 A 
HETATM    2  C   UNK N   1      35.632  15.279   8.920  0.00  0.00     0.039 A 
HETATM    3  C   UNK N   1      36.383  14.361   9.655  0.00  0.00     0.032 A 
HETATM    4  C   UNK N   1      36.501  14.503  11.039  0.00  0.00     0.036 A 
HETATM    5  C   UNK N   1      35.889  15.603  11.666  0.00  0.00     0.032 A 
HETATM    6  C   UNK N   1      35.147  16.522  10.935  0.00  0.00     0.039 A 
ENDROOT
BRANCH   4   7
HETATM    7  N   UNK N   1      37.388  13.636  11.740  0.00  0.00    -0.309 N 
HETATM    8  C   UNK N   1      36.977  12.536  12.420  0.00  0.00     0.325 C 
HETATM    9  N   UNK N   1      37.748  12.089  13.440  0.00  0.00    -0.309 N 
HETATM   10  O   UNK N   1      35.831  12.124  12.304  0.00  0.00    -0.247 OA
HETATM   11  H   UNK N   1      38.720  11.995  13.322  0.00  0.00     0.170 HD
HETATM   12  H   UNK N   1      38.350  13.846  11.729  0.00  0.00     0.170 HD
BRANCH   9  13
HETATM   13  C   UNK N   1      37.140  11.756  14.682  0.00  0.00     0.039 A 
HETATM   14  C   UNK N   1      36.524  12.731  15.469  0.00  0.00     0.053 A 
HETATM   15  C   UNK N   1      35.785  12.343  16.598  0.00  0.00     0.037 A 
HETATM   16  C   UNK N   1      35.629  10.987  16.913  0.00  0.00     0.048 A 
HETATM   17 Cl   UNK N   1      35.010  13.552  17.594  0.00  0.00    -0.084 Cl
HETATM   18  C   UNK N   1      36.226  10.014  16.114  0.00  0.00     0.037 A 
HETATM   19  C   UNK N   1      36.966  10.398  15.010  0.00  0.00     0.053 A 
HETATM   20 Cl   UNK N   1      36.002   8.310  16.443  0.00  0.00    -0.084 Cl
ENDBRANCH   9  13
ENDBRANCH   4   7
BRANCH   1  21
HETATM   21  O   UNK N   1      34.228  17.247   8.886  0.00  0.00    -0.330 OA
BRANCH  21  22
HETATM   22  C   UNK N   1      33.074  16.938   8.182  0.00  0.00     0.145 C 
HETATM   23  C   UNK N   1      31.955  17.935   8.455  0.00  0.00     0.058 C 
HETATM   24  C   UNK N   1      32.588  15.583   8.671  0.00  0.00     0.058 C 
BRANCH  22  25
HETATM   25  C   UNK N   1      33.393  16.892   6.696  0.00  0.00     0.175 C 
HETATM   26  O   UNK N   1      32.890  16.046   5.974  0.00  0.00    -0.648 OA
BRANCH  25  27
HETATM   27  O   UNK N   1      34.263  17.774   6.163  0.00  0.00    -0.774 OA
HETATM   28  H   UNK N   1      35.190  17.681   6.260  0.00  0.00     0.167 HD
ENDBRANCH  25  27
ENDBRANCH  22  25
ENDBRANCH  21  22
ENDBRANCH   1  21
TORSDOF 6
ENDMDL
MODEL 2
REMARK VINA RESULT:      -7.1      1.035      2.380
REMARK  6 active torsions:
REMARK  status: ('A' for Active; 'I' for Inactive)
REMARK    1  A    between atoms: C_1  and  N_18 
REMARK       I    between atoms: C_7  and  N_18 
REMARK       I    between atoms: C_7  and  N_19 
REMARK    2  A    between atoms: C_8  and  O_21 
REMARK    3  A    between atoms: C_11  and  N_19 
REMARK    4  A    between atoms: C_14  and  C_17 
REMARK    5  A    between atoms: C_14  and  O_21 
REMARK    6  A    between atoms: C_17  and  O_22 
ROOT
HETATM    1  C   UNK N   1      34.431  15.326   9.112  0.00  0.00     0.070 A 
HETATM    2  C   UNK N   1      34.252  15.623  10.475  0.00  0.00     0.039 A 
HETATM    3  C   UNK N   1      35.176  15.182  11.424  0.00  0.00     0.032 A 
HETATM    4  C   UNK N   1      36.300  14.460  11.021  0.00  0.00     0.036 A 
HETATM    5  C   UNK N   1      36.460  14.151   9.658  0.00  0.00     0.032 A 
HETATM    6  C   UNK N   1      35.537  14.581   8.714  0.00  0.00     0.039 A 
ENDROOT
BRANCH   4   7
HETATM    7  N   UNK N   1      37.147  13.904  12.022  0.00  0.00    -0.309 N 
HETATM    8  C   UNK N   1      36.807  12.830  12.778  0.00  0.00     0.325 C 
HETATM    9  N   UNK N   1      37.389  12.692  13.993  0.00  0.00    -0.309 N 
HETATM   10  O   UNK N   1      35.820  12.161  12.502  0.00  0.00    -0.247 OA
HETATM   11  H   UNK N   1      38.361  12.804  14.093  0.00  0.00     0.170 HD
HETATM   12  H   UNK N   1      38.027  14.320  12.172  0.00  0.00     0.170 HD
BRANCH   9  13
HETATM   13  C   UNK N   1      36.583  12.382  15.124  0.00  0.00     0.039 A 
HETATM   14  C   UNK N   1      36.434  11.066  15.564  0.00  0.00     0.053 A 
HETATM   15  C   UNK N   1      35.778  10.813  16.780  0.00  0.00     0.037 A 
HETATM   16  C   UNK N   1      35.313  11.873  17.569  0.00  0.00     0.048 A 
HETATM   17 Cl   UNK N   1      35.581   9.171  17.344  0.00  0.00    -0.084 Cl
HETATM   18  C   UNK N   1      35.481  13.188  17.138  0.00  0.00     0.037 A 
HETATM   19  C   UNK N   1      36.115  13.434  15.933  0.00  0.00     0.053 A 
HETATM   20 Cl   UNK N   1      34.966  14.537  18.126  0.00  0.00    -0.084 Cl
ENDBRANCH   9  13
ENDBRANCH   4   7
BRANCH   1  21
HETATM   21  O   UNK N   1      33.581  15.779   8.157  0.00  0.00    -0.330 OA
BRANCH  21  22
HETATM   22  C   UNK N   1      33.559  17.063   7.635  0.00  0.00     0.145 C 
HETATM   23  C   UNK N   1      34.564  17.977   8.326  0.00  0.00     0.058 C 
HETATM   24  C   UNK N   1      32.179  17.642   7.900  0.00  0.00     0.058 C 
BRANCH  22  25
HETATM   25  C   UNK N   1      33.839  17.000   6.142  0.00  0.00     0.175 C 
HETATM   26  O   UNK N   1      33.108  17.563   5.344  0.00  0.00    -0.648 OA
BRANCH  25  27
HETATM   27  O   UNK N   1      34.889  16.291   5.679  0.00  0.00    -0.774 OA
HETATM   28  H   UNK N   1      35.772  16.491   5.921  0.00  0.00     0.167 HD
ENDBRANCH  25  27
ENDBRANCH  22  25
ENDBRANCH  21  22
ENDBRANCH   1  21
TORSDOF 6
ENDMDL
MODEL 3
REMARK VINA RESULT:      -6.8      5.918      9.071
REMARK  6 active torsions:
REMARK  status: ('A' for Active; 'I' for Inactive)
REMARK    1  A    between atoms: C_1  and  N_18 
REMARK       I    between atoms: C_7  and  N_18 
REMARK       I    between atoms: C_7  and  N_19 
REMARK    2  A    between atoms: C_8  and  O_21 
REMARK    3  A    between atoms: C_11  and  N_19 
REMARK    4  A    between atoms: C_14  and  C_17 
REMARK    5  A    between atoms: C_14  and  O_21 
REMARK    6  A    between atoms: C_17  and  O_22 
ROOT
HETATM    1  C   UNK N   1      35.374  12.615  16.956  0.00  0.00     0.070 A 
HETATM    2  C   UNK N   1      35.721  11.265  17.149  0.00  0.00     0.039 A 
HETATM    3  C   UNK N   1      35.811  10.735  18.436  0.00  0.00     0.032 A 
HETATM    4  C   UNK N   1      35.535  11.537  19.544  0.00  0.00     0.036 A 
HETATM    5  C   UNK N   1      35.209  12.891  19.342  0.00  0.00     0.032 A 
HETATM    6  C   UNK N   1      35.127  13.422  18.061  0.00  0.00     0.039 A 
ENDROOT
BRANCH   4   7
HETATM    7  N   UNK N   1      35.773  11.008  20.846  0.00  0.00    -0.309 N 
HETATM    8  C   UNK N   1      35.108   9.940  21.352  0.00  0.00     0.325 C 
HETATM    9  N   UNK N   1      35.006   9.828  22.698  0.00  0.00    -0.309 N 
HETATM   10  O   UNK N   1      34.395   9.252  20.634  0.00  0.00    -0.247 OA
HETATM   11  H   UNK N   1      35.798   9.957  23.267  0.00  0.00     0.170 HD
HETATM   12  H   UNK N   1      36.458  11.441  21.406  0.00  0.00     0.170 HD
BRANCH   9  13
HETATM   13  C   UNK N   1      33.746   9.522  23.281  0.00  0.00     0.039 A 
HETATM   14  C   UNK N   1      33.209   8.235  23.205  0.00  0.00     0.053 A 
HETATM   15  C   UNK N   1      32.053   7.923  23.938  0.00  0.00     0.037 A 
HETATM   16  C   UNK N   1      31.462   8.880  24.773  0.00  0.00     0.048 A 
HETATM   17 Cl   UNK N   1      31.368   6.317  23.851  0.00  0.00    -0.084 Cl
HETATM   18  C   UNK N   1      32.011  10.157  24.865  0.00  0.00     0.037 A 
HETATM   19  C   UNK N   1      33.143  10.467  24.131  0.00  0.00     0.053 A 
HETATM   20 Cl   UNK N   1      31.335  11.358  25.943  0.00  0.00    -0.084 Cl
ENDBRANCH   9  13
ENDBRANCH   4   7
BRANCH   1  21
HETATM   21  O   UNK N   1      35.229  13.152  15.719  0.00  0.00    -0.330 OA
BRANCH  21  22
HETATM   22  C   UNK N   1      36.260  13.497  14.858  0.00  0.00     0.145 C 
HETATM   23  C   UNK N   1      37.189  12.321  14.583  0.00  0.00     0.058 C 
HETATM   24  C   UNK N   1      37.093  14.567  15.545  0.00  0.00     0.058 C 
BRANCH  22  25
HETATM   25  C   UNK N   1      35.671  14.022  13.559  0.00  0.00     0.175 C 
HETATM   26  O   UNK N   1      34.680  13.506  13.068  0.00  0.00    -0.648 OA
BRANCH  25  27
HETATM   27  O   UNK N   1      36.259  15.052  12.916  0.00  0.00    -0.774 OA
HETATM   28  H   UNK N   1      37.150  15.295  13.074  0.00  0.00     0.167 HD
ENDBRANCH  25  27
ENDBRANCH  22  25
ENDBRANCH  21  22
ENDBRANCH   1  21
TORSDOF 6
ENDMDL
MODEL 4
REMARK VINA RESULT:      -6.7     14.017     17.453
REMARK  6 active torsions:
REMARK  status: ('A' for Active; 'I' for Inactive)
REMARK    1  A    between atoms: C_1  and  N_18 
REMARK       I    between atoms: C_7  and  N_18 
REMARK       I    between atoms: C_7  and  N_19 
REMARK    2  A    between atoms: C_8  and  O_21 
REMARK    3  A    between atoms: C_11  and  N_19 
REMARK    4  A    between atoms: C_14  and  C_17 
REMARK    5  A    between atoms: C_14  and  O_21 
REMARK    6  A    between atoms: C_17  and  O_22 
ROOT
HETATM    1  C   UNK N   1      22.085  14.090   9.160  0.00  0.00     0.070 A 
HETATM    2  C   UNK N   1      22.664  14.141   7.879  0.00  0.00     0.039 A 
HETATM    3  C   UNK N   1      21.971  14.715   6.812  0.00  0.00     0.032 A 
HETATM    4  C   UNK N   1      20.704  15.264   7.015  0.00  0.00     0.036 A 
HETATM    5  C   UNK N   1      20.126  15.190   8.295  0.00  0.00     0.032 A 
HETATM    6  C   UNK N   1      20.811  14.612   9.356  0.00  0.00     0.039 A 
ENDROOT
BRANCH   4   7
HETATM    7  N   UNK N   1      19.966  15.713   5.882  0.00  0.00    -0.309 N 
HETATM    8  C   UNK N   1      19.563  14.893   4.879  0.00  0.00     0.325 C 
HETATM    9  N   UNK N   1      19.349  15.435   3.656  0.00  0.00    -0.309 N 
HETATM   10  O   UNK N   1      19.653  13.678   4.993  0.00  0.00    -0.247 OA
HETATM   11  H   UNK N   1      18.824  16.262   3.566  0.00  0.00     0.170 HD
HETATM   12  H   UNK N   1      19.734  16.668   5.826  0.00  0.00     0.170 HD
BRANCH   9  13
HETATM   13  C   UNK N   1      19.888  14.799   2.504  0.00  0.00     0.039 A 
HETATM   14  C   UNK N   1      21.243  14.909   2.187  0.00  0.00     0.053 A 
HETATM   15  C   UNK N   1      21.776  14.129   1.148  0.00  0.00     0.037 A 
HETATM   16  C   UNK N   1      20.967  13.217   0.458  0.00  0.00     0.048 A 
HETATM   17 Cl   UNK N   1      23.470  14.257   0.737  0.00  0.00    -0.084 Cl
HETATM   18  C   UNK N   1      19.619  13.093   0.790  0.00  0.00     0.037 A 
HETATM   19  C   UNK N   1      19.093  13.872   1.806  0.00  0.00     0.053 A 
HETATM   20 Cl   UNK N   1      18.594  11.921  -0.008  0.00  0.00    -0.084 Cl
ENDBRANCH   9  13
ENDBRANCH   4   7
BRANCH   1  21
HETATM   21  O   UNK N   1      22.748  13.585  10.230  0.00  0.00    -0.330 OA
BRANCH  21  22
HETATM   22  C   UNK N   1      22.619  12.298  10.731  0.00  0.00     0.145 C 
HETATM   23  C   UNK N   1      22.877  11.243   9.662  0.00  0.00     0.058 C 
HETATM   24  C   UNK N   1      21.179  12.125  11.184  0.00  0.00     0.058 C 
BRANCH  22  25
HETATM   25  C   UNK N   1      23.577  12.117  11.896  0.00  0.00     0.175 C 
HETATM   26  O   UNK N   1      23.161  11.862  13.015  0.00  0.00    -0.648 OA
BRANCH  25  27
HETATM   27  O   UNK N   1      24.905  12.268  11.712  0.00  0.00    -0.774 OA
HETATM   28  H   UNK N   1      25.488  12.464  12.419  0.00  0.00     0.167 HD
ENDBRANCH  25  27
ENDBRANCH  22  25
ENDBRANCH  21  22
ENDBRANCH   1  21
TORSDOF 6
ENDMDL
MODEL 5
REMARK VINA RESULT:      -6.7      6.975     11.472
REMARK  6 active torsions:
REMARK  status: ('A' for Active; 'I' for Inactive)
REMARK    1  A    between atoms: C_1  and  N_18 
REMARK       I    between atoms: C_7  and  N_18 
REMARK       I    between atoms: C_7  and  N_19 
REMARK    2  A    between atoms: C_8  and  O_21 
REMARK    3  A    between atoms: C_11  and  N_19 
REMARK    4  A    between atoms: C_14  and  C_17 
REMARK    5  A    between atoms: C_14  and  O_21 
REMARK    6  A    between atoms: C_17  and  O_22 
ROOT
HETATM    1  C   UNK N   1      33.320  16.221   7.768  0.00  0.00     0.070 A 
HETATM    2  C   UNK N   1      32.231  16.972   8.248  0.00  0.00     0.039 A 
HETATM    3  C   UNK N   1      30.960  16.808   7.696  0.00  0.00     0.032 A 
HETATM    4  C   UNK N   1      30.756  15.879   6.675  0.00  0.00     0.036 A 
HETATM    5  C   UNK N   1      31.854  15.147   6.189  0.00  0.00     0.032 A 
HETATM    6  C   UNK N   1      33.122  15.315   6.732  0.00  0.00     0.039 A 
ENDROOT
BRANCH   4   7
HETATM    7  N   UNK N   1      29.483  15.836   6.037  0.00  0.00    -0.309 N 
HETATM    8  C   UNK N   1      29.090  16.726   5.092  0.00  0.00     0.325 C 
HETATM    9  N   UNK N   1      27.762  16.940   4.925  0.00  0.00    -0.309 N 
HETATM   10  O   UNK N   1      29.892  17.508   4.599  0.00  0.00    -0.247 OA
HETATM   11  H   UNK N   1      27.142  16.178   4.864  0.00  0.00     0.170 HD
HETATM   12  H   UNK N   1      28.856  15.121   6.294  0.00  0.00     0.170 HD
BRANCH   9  13
HETATM   13  C   UNK N   1      27.273  18.272   4.839  0.00  0.00     0.039 A 
HETATM   14  C   UNK N   1      26.645  18.736   3.682  0.00  0.00     0.053 A 
HETATM   15  C   UNK N   1      26.020  19.994   3.690  0.00  0.00     0.037 A 
HETATM   16  C   UNK N   1      25.988  20.763   4.862  0.00  0.00     0.048 A 
HETATM   17 Cl   UNK N   1      25.232  20.590   2.249  0.00  0.00    -0.084 Cl
HETATM   18  C   UNK N   1      26.596  20.288   6.022  0.00  0.00     0.037 A 
HETATM   19  C   UNK N   1      27.224  19.055   6.007  0.00  0.00     0.053 A 
HETATM   20 Cl   UNK N   1      26.524  21.194   7.517  0.00  0.00    -0.084 Cl
ENDBRANCH   9  13
ENDBRANCH   4   7
BRANCH   1  21
HETATM   21  O   UNK N   1      34.558  16.317   8.314  0.00  0.00    -0.330 OA
BRANCH  21  22
HETATM   22  C   UNK N   1      35.046  15.547   9.359  0.00  0.00     0.145 C 
HETATM   23  C   UNK N   1      35.926  14.407   8.864  0.00  0.00     0.058 C 
HETATM   24  C   UNK N   1      33.854  14.914  10.058  0.00  0.00     0.058 C 
BRANCH  22  25
HETATM   25  C   UNK N   1      35.821  16.439  10.316  0.00  0.00     0.175 C 
HETATM   26  O   UNK N   1      35.488  17.599  10.498  0.00  0.00    -0.648 OA
BRANCH  25  27
HETATM   27  O   UNK N   1      36.909  15.962  10.955  0.00  0.00    -0.774 OA
HETATM   28  H   UNK N   1      36.891  15.163  11.443  0.00  0.00     0.167 HD
ENDBRANCH  25  27
ENDBRANCH  22  25
ENDBRANCH  21  22
ENDBRANCH   1  21
TORSDOF 6
ENDMDL
MODEL 6
REMARK VINA RESULT:      -6.5      3.036      4.982
REMARK  6 active torsions:
REMARK  status: ('A' for Active; 'I' for Inactive)
REMARK    1  A    between atoms: C_1  and  N_18 
REMARK       I    between atoms: C_7  and  N_18 
REMARK       I    between atoms: C_7  and  N_19 
REMARK    2  A    between atoms: C_8  and  O_21 
REMARK    3  A    between atoms: C_11  and  N_19 
REMARK    4  A    between atoms: C_14  and  C_17 
REMARK    5  A    between atoms: C_14  and  O_21 
REMARK    6  A    between atoms: C_17  and  O_22 
ROOT
HETATM    1  C   UNK N   1      32.074  17.303   6.023  0.00  0.00     0.070 A 
HETATM    2  C   UNK N   1      33.447  17.610   6.047  0.00  0.00     0.039 A 
HETATM    3  C   UNK N   1      34.166  17.547   7.242  0.00  0.00     0.032 A 
HETATM    4  C   UNK N   1      33.528  17.158   8.421  0.00  0.00     0.036 A 
HETATM    5  C   UNK N   1      32.151  16.873   8.390  0.00  0.00     0.032 A 
HETATM    6  C   UNK N   1      31.433  16.942   7.203  0.00  0.00     0.039 A 
ENDROOT
BRANCH   4   7
HETATM    7  N   UNK N   1      34.251  17.241   9.646  0.00  0.00    -0.309 N 
HETATM    8  C   UNK N   1      35.138  16.300  10.057  0.00  0.00     0.325 C 
HETATM    9  N   UNK N   1      35.372  16.178  11.385  0.00  0.00    -0.309 N 
HETATM   10  O   UNK N   1      35.506  15.416   9.295  0.00  0.00    -0.247 OA
HETATM   11  H   UNK N   1      35.541  16.976  11.935  0.00  0.00     0.170 HD
HETATM   12  H   UNK N   1      34.099  18.024  10.225  0.00  0.00     0.170 HD
BRANCH   9  13
HETATM   13  C   UNK N   1      35.374  14.885  11.979  0.00  0.00     0.039 A 
HETATM   14  C   UNK N   1      34.883  13.774  11.291  0.00  0.00     0.053 A 
HETATM   15  C   UNK N   1      35.059  12.491  11.833  0.00  0.00     0.037 A 
HETATM   16  C   UNK N   1      35.757  12.318  13.035  0.00  0.00     0.048 A 
HETATM   17 Cl   UNK N   1      34.448  11.091  10.985  0.00  0.00    -0.084 Cl
HETATM   18  C   UNK N   1      36.265  13.426  13.710  0.00  0.00     0.037 A 
HETATM   19  C   UNK N   1      36.079  14.691  13.181  0.00  0.00     0.053 A 
HETATM   20 Cl   UNK N   1      37.194  13.242  15.182  0.00  0.00    -0.084 Cl
ENDBRANCH   9  13
ENDBRANCH   4   7
BRANCH   1  21
HETATM   21  O   UNK N   1      31.356  17.305   4.873  0.00  0.00    -0.330 OA
BRANCH  21  22
HETATM   22  C   UNK N   1      31.454  16.368   3.854  0.00  0.00     0.145 C 
HETATM   23  C   UNK N   1      31.958  15.024   4.363  0.00  0.00     0.058 C 
HETATM   24  C   UNK N   1      32.482  16.879   2.859  0.00  0.00     0.058 C 
BRANCH  22  25
HETATM   25  C   UNK N   1      30.095  16.208   3.192  0.00  0.00     0.175 C 
HETATM   26  O   UNK N   1      29.743  15.130   2.739  0.00  0.00    -0.648 OA
BRANCH  25  27
HETATM   27  O   UNK N   1      29.271  17.269   3.070  0.00  0.00    -0.774 OA
HETATM   28  H   UNK N   1      28.340  17.176   3.028  0.00  0.00     0.167 HD
ENDBRANCH  25  27
ENDBRANCH  22  25
ENDBRANCH  21  22
ENDBRANCH   1  21
TORSDOF 6
ENDMDL
MODEL 7
REMARK VINA RESULT:      -6.5      4.492      9.864
REMARK  6 active torsions:
REMARK  status: ('A' for Active; 'I' for Inactive)
REMARK    1  A    between atoms: C_1  and  N_18 
REMARK       I    between atoms: C_7  and  N_18 
REMARK       I    between atoms: C_7  and  N_19 
REMARK    2  A    between atoms: C_8  and  O_21 
REMARK    3  A    between atoms: C_11  and  N_19 
REMARK    4  A    between atoms: C_14  and  C_17 
REMARK    5  A    between atoms: C_14  and  O_21 
REMARK    6  A    between atoms: C_17  and  O_22 
ROOT
HETATM    1  C   UNK N   1      35.242  11.024  18.115  0.00  0.00     0.070 A 
HETATM    2  C   UNK N   1      35.004  12.406  18.239  0.00  0.00     0.039 A 
HETATM    3  C   UNK N   1      35.403  13.286  17.232  0.00  0.00     0.032 A 
HETATM    4  C   UNK N   1      36.024  12.797  16.081  0.00  0.00     0.036 A 
HETATM    5  C   UNK N   1      36.276  11.417  15.976  0.00  0.00     0.032 A 
HETATM    6  C   UNK N   1      35.887  10.541  16.981  0.00  0.00     0.039 A 
ENDROOT
BRANCH   4   7
HETATM    7  N   UNK N   1      36.545  13.730  15.139  0.00  0.00    -0.309 N 
HETATM    8  C   UNK N   1      35.989  13.955  13.923  0.00  0.00     0.325 C 
HETATM    9  N   UNK N   1      36.784  14.425  12.932  0.00  0.00    -0.309 N 
HETATM   10  O   UNK N   1      34.888  13.499  13.647  0.00  0.00    -0.247 OA
HETATM   11  H   UNK N   1      37.394  15.178  13.101  0.00  0.00     0.170 HD
HETATM   12  H   UNK N   1      37.351  14.240  15.386  0.00  0.00     0.170 HD
BRANCH   9  13
HETATM   13  C   UNK N   1      36.730  13.822  11.645  0.00  0.00     0.039 A 
HETATM   14  C   UNK N   1      36.131  14.477  10.567  0.00  0.00     0.053 A 
HETATM   15  C   UNK N   1      36.247  13.934   9.277  0.00  0.00     0.037 A 
HETATM   16  C   UNK N   1      36.994  12.768   9.062  0.00  0.00     0.048 A 
HETATM   17 Cl   UNK N   1      35.501  14.740   7.918  0.00  0.00    -0.084 Cl
HETATM   18  C   UNK N   1      37.609  12.128  10.136  0.00  0.00     0.037 A 
HETATM   19  C   UNK N   1      37.481  12.656  11.409  0.00  0.00     0.053 A 
HETATM   20 Cl   UNK N   1      38.597  10.704   9.895  0.00  0.00    -0.084 Cl
ENDBRANCH   9  13
ENDBRANCH   4   7
BRANCH   1  21
HETATM   21  O   UNK N   1      34.825  10.135  19.049  0.00  0.00    -0.330 OA
BRANCH  21  22
HETATM   22  C   UNK N   1      35.549   9.725  20.159  0.00  0.00     0.145 C 
HETATM   23  C   UNK N   1      36.872  10.471  20.284  0.00  0.00     0.058 C 
HETATM   24  C   UNK N   1      35.885   8.255  19.970  0.00  0.00     0.058 C 
BRANCH  22  25
HETATM   25  C   UNK N   1      34.706   9.929  21.407  0.00  0.00     0.175 C 
HETATM   26  O   UNK N   1      34.677   9.084  22.288  0.00  0.00    -0.648 OA
BRANCH  25  27
HETATM   27  O   UNK N   1      33.953  11.040  21.543  0.00  0.00    -0.774 OA
HETATM   28  H   UNK N   1      33.203  11.070  22.103  0.00  0.00     0.167 HD
ENDBRANCH  25  27
ENDBRANCH  22  25
ENDBRANCH  21  22
ENDBRANCH   1  21
TORSDOF 6
ENDMDL
MODEL 8
REMARK VINA RESULT:      -6.5      5.064      9.527
REMARK  6 active torsions:
REMARK  status: ('A' for Active; 'I' for Inactive)
REMARK    1  A    between atoms: C_1  and  N_18 
REMARK       I    between atoms: C_7  and  N_18 
REMARK       I    between atoms: C_7  and  N_19 
REMARK    2  A    between atoms: C_8  and  O_21 
REMARK    3  A    between atoms: C_11  and  N_19 
REMARK    4  A    between atoms: C_14  and  C_17 
REMARK    5  A    between atoms: C_14  and  O_21 
REMARK    6  A    between atoms: C_17  and  O_22 
ROOT
HETATM    1  C   UNK N   1      36.441  14.382  11.189  0.00  0.00     0.070 A 
HETATM    2  C   UNK N   1      35.885  15.566  11.707  0.00  0.00     0.039 A 
HETATM    3  C   UNK N   1      35.222  16.463  10.868  0.00  0.00     0.032 A 
HETATM    4  C   UNK N   1      35.086  16.178   9.509  0.00  0.00     0.036 A 
HETATM    5  C   UNK N   1      35.663  15.001   8.997  0.00  0.00     0.032 A 
HETATM    6  C   UNK N   1      36.330  14.112   9.830  0.00  0.00     0.039 A 
ENDROOT
BRANCH   4   7
HETATM    7  N   UNK N   1      34.531  17.175   8.655  0.00  0.00    -0.309 N 
HETATM    8  C   UNK N   1      33.322  17.054   8.051  0.00  0.00     0.325 C 
HETATM    9  N   UNK N   1      33.106  17.746   6.908  0.00  0.00    -0.309 N 
HETATM   10  O   UNK N   1      32.556  16.153   8.365  0.00  0.00    -0.247 OA
HETATM   11  H   UNK N   1      33.350  18.698   6.851  0.00  0.00     0.170 HD
HETATM   12  H   UNK N   1      35.052  17.995   8.497  0.00  0.00     0.170 HD
BRANCH   9  13
HETATM   13  C   UNK N   1      32.521  17.088   5.791  0.00  0.00     0.039 A 
HETATM   14  C   UNK N   1      31.187  17.307   5.441  0.00  0.00     0.053 A 
HETATM   15  C   UNK N   1      30.692  16.781   4.238  0.00  0.00     0.037 A 
HETATM   16  C   UNK N   1      31.537  16.076   3.370  0.00  0.00     0.048 A 
HETATM   17 Cl   UNK N   1      29.024  17.044   3.787  0.00  0.00    -0.084 Cl
HETATM   18  C   UNK N   1      32.873  15.877   3.710  0.00  0.00     0.037 A 
HETATM   19  C   UNK N   1      33.356  16.384   4.904  0.00  0.00     0.053 A 
HETATM   20 Cl   UNK N   1      33.970  15.055   2.623  0.00  0.00    -0.084 Cl
ENDBRANCH   9  13
ENDBRANCH   4   7
BRANCH   1  21
HETATM   21  O   UNK N   1      37.049  13.465  11.982  0.00  0.00    -0.330 OA
BRANCH  21  22
HETATM   22  C   UNK N   1      36.412  12.613  12.872  0.00  0.00     0.145 C 
HETATM   23  C   UNK N   1      37.230  11.356  13.142  0.00  0.00     0.058 C 
HETATM   24  C   UNK N   1      35.111  12.164  12.226  0.00  0.00     0.058 C 
BRANCH  22  25
HETATM   25  C   UNK N   1      36.142  13.358  14.169  0.00  0.00     0.175 C 
HETATM   26  O   UNK N   1      35.004  13.481  14.594  0.00  0.00    -0.648 OA
BRANCH  25  27
HETATM   27  O   UNK N   1      37.159  13.919  14.853  0.00  0.00    -0.774 OA
HETATM   28  H   UNK N   1      37.940  14.220  14.429  0.00  0.00     0.167 HD
ENDBRANCH  25  27
ENDBRANCH  22  25
ENDBRANCH  21  22
ENDBRANCH   1  21
TORSDOF 6
ENDMDL
MODEL 9
REMARK VINA RESULT:      -6.5     22.680     25.216
REMARK  6 active torsions:
REMARK  status: ('A' for Active; 'I' for Inactive)
REMARK    1  A    between atoms: C_1  and  N_18 
REMARK       I    between atoms: C_7  and  N_18 
REMARK       I    between atoms: C_7  and  N_19 
REMARK    2  A    between atoms: C_8  and  O_21 
REMARK    3  A    between atoms: C_11  and  N_19 
REMARK    4  A    between atoms: C_14  and  C_17 
REMARK    5  A    between atoms: C_14  and  O_21 
REMARK    6  A    between atoms: C_17  and  O_22 
ROOT
HETATM    1  C   UNK N   1      26.222  27.709  -3.503  0.00  0.00     0.070 A 
HETATM    2  C   UNK N   1      25.423  27.946  -4.636  0.00  0.00     0.039 A 
HETATM    3  C   UNK N   1      25.048  26.893  -5.472  0.00  0.00     0.032 A 
HETATM    4  C   UNK N   1      25.447  25.589  -5.175  0.00  0.00     0.036 A 
HETATM    5  C   UNK N   1      26.263  25.365  -4.051  0.00  0.00     0.032 A 
HETATM    6  C   UNK N   1      26.644  26.413  -3.223  0.00  0.00     0.039 A 
ENDROOT
BRANCH   4   7
HETATM    7  N   UNK N   1      25.170  24.559  -6.119  0.00  0.00    -0.309 N 
HETATM    8  C   UNK N   1      25.930  24.329  -7.219  0.00  0.00     0.325 C 
HETATM    9  N   UNK N   1      25.348  23.728  -8.285  0.00  0.00    -0.309 N 
HETATM   10  O   UNK N   1      27.013  24.881  -7.355  0.00  0.00    -0.247 OA
HETATM   11  H   UNK N   1      24.792  22.926  -8.159  0.00  0.00     0.170 HD
HETATM   12  H   UNK N   1      24.386  23.983  -5.964  0.00  0.00     0.170 HD
BRANCH   9  13
HETATM   13  C   UNK N   1      25.548  24.265  -9.586  0.00  0.00     0.039 A 
HETATM   14  C   UNK N   1      26.311  23.585 -10.538  0.00  0.00     0.053 A 
HETATM   15  C   UNK N   1      26.345  24.053 -11.861  0.00  0.00     0.037 A 
HETATM   16  C   UNK N   1      25.587  25.169 -12.239  0.00  0.00     0.048 A 
HETATM   17 Cl   UNK N   1      27.297  23.214 -13.062  0.00  0.00    -0.084 Cl
HETATM   18  C   UNK N   1      24.809  25.834 -11.293  0.00  0.00     0.037 A 
HETATM   19  C   UNK N   1      24.789  25.380  -9.986  0.00  0.00     0.053 A 
HETATM   20 Cl   UNK N   1      23.804  27.194 -11.743  0.00  0.00    -0.084 Cl
ENDBRANCH   9  13
ENDBRANCH   4   7
BRANCH   1  21
HETATM   21  O   UNK N   1      26.565  28.699  -2.642  0.00  0.00    -0.330 OA
BRANCH  21  22
HETATM   22  C   UNK N   1      27.431  29.747  -2.915  0.00  0.00     0.145 C 
HETATM   23  C   UNK N   1      26.697  30.968  -3.454  0.00  0.00     0.058 C 
HETATM   24  C   UNK N   1      28.380  29.284  -4.008  0.00  0.00     0.058 C 
BRANCH  22  25
HETATM   25  C   UNK N   1      28.197  30.103  -1.651  0.00  0.00     0.175 C 
HETATM   26  O   UNK N   1      27.833  29.690  -0.562  0.00  0.00    -0.648 OA
BRANCH  25  27
HETATM   27  O   UNK N   1      29.277  30.909  -1.717  0.00  0.00    -0.774 OA
HETATM   28  H   UNK N   1      29.726  31.205  -0.950  0.00  0.00     0.167 HD
ENDBRANCH  25  27
ENDBRANCH  22  25
ENDBRANCH  21  22
ENDBRANCH   1  21
TORSDOF 6
ENDMDL
