REMARK  6 active torsions:
REMARK  status: ('A' for Active; 'I' for Inactive)
REMARK    1  A    between atoms: C_1  and  N_18 
REMARK       I    between atoms: C_7  and  N_18 
REMARK       I    between atoms: C_7  and  N_19 
REMARK    2  A    between atoms: C_8  and  O_21 
REMARK    3  A    between atoms: C_11  and  N_19 
REMARK    4  A    between atoms: C_14  and  C_17 
REMARK    5  A    between atoms: C_14  and  O_21 
REMARK    6  A    between atoms: C_17  and  O_22 
ROOT
HETATM    1  C   UNK N   1      -2.473   1.770   0.587  0.00  0.00     0.070 A 
HETATM    2  C   UNK N   1      -1.336   2.278   1.242  0.00  0.00     0.039 A 
HETATM    3  C   UNK N   1      -0.059   1.846   0.881  0.00  0.00     0.032 A 
HETATM    4  C   UNK N   1       0.100   0.920  -0.151  0.00  0.00     0.036 A 
HETATM    5  C   UNK N   1      -1.044   0.403  -0.786  0.00  0.00     0.032 A 
HETATM    6  C   UNK N   1      -2.316   0.826  -0.422  0.00  0.00     0.039 A 
ENDROOT
BRANCH   4   7
HETATM    7  N   UNK N   1       1.400   0.393  -0.400  0.00  0.00    -0.309 N 
HETATM    8  C   UNK N   1       1.624  -0.741  -1.110  0.00  0.00     0.325 C 
HETATM    9  N   UNK N   1       2.764  -1.432  -0.870  0.00  0.00    -0.309 N 
HETATM   10  O   UNK N   1       0.719  -1.271  -1.740  0.00  0.00    -0.247 OA
HETATM   11  H   UNK N   1       3.627  -0.962  -0.819  0.00  0.00     0.170 HD
HETATM   12  H   UNK N   1       2.177   0.879  -0.039  0.00  0.00     0.170 HD
BRANCH   9  13
HETATM   13  C   UNK N   1       2.704  -2.842  -0.694  0.00  0.00     0.039 A 
HETATM   14  C   UNK N   1       3.859  -3.625  -0.744  0.00  0.00     0.053 A 
HETATM   15  C   UNK N   1       3.790  -4.983  -0.394  0.00  0.00     0.037 A 
HETATM   16  C   UNK N   1       2.582  -5.543   0.043  0.00  0.00     0.048 A 
HETATM   17 Cl   UNK N   1       5.226  -5.977  -0.454  0.00  0.00    -0.084 Cl
HETATM   18  C   UNK N   1       1.435  -4.755   0.113  0.00  0.00     0.037 A 
HETATM   19  C   UNK N   1       1.502  -3.420  -0.246  0.00  0.00     0.053 A 
HETATM   20 Cl   UNK N   1      -0.075  -5.406   0.711  0.00  0.00    -0.084 Cl
ENDBRANCH   9  13
ENDBRANCH   4   7
BRANCH   1  21
HETATM   21  O   UNK N   1      -3.725   2.203   0.877  0.00  0.00    -0.330 OA
BRANCH  21  22
HETATM   22  C   UNK N   1      -4.060   3.470   1.331  0.00  0.00     0.145 C 
HETATM   23  C   UNK N   1      -3.401   3.789   2.667  0.00  0.00     0.058 C 
HETATM   24  C   UNK N   1      -5.562   3.492   1.562  0.00  0.00     0.058 C 
BRANCH  22  25
HETATM   25  C   UNK N   1      -3.660   4.497   0.284  0.00  0.00     0.175 C 
HETATM   26  O   UNK N   1      -4.502   5.184  -0.272  0.00  0.00    -0.648 OA
BRANCH  25  27
HETATM   27  O   UNK N   1      -2.365   4.640  -0.065  0.00  0.00    -0.774 OA
HETATM   28  H   UNK N   1      -1.830   3.910  -0.308  0.00  0.00     0.167 HD
ENDBRANCH  25  27
ENDBRANCH  22  25
ENDBRANCH  21  22
ENDBRANCH   1  21
TORSDOF 6
