MODEL 1
REMARK VINA RESULT:      -7.5      0.000      0.000
REMARK  14 active torsions:
REMARK  status: ('A' for Active; 'I' for Inactive)
REMARK    1  A    between atoms: C_1  and  C_4 
REMARK    2  A    between atoms: C_2  and  O_6 
REMARK    3  A    between atoms: C_3  and  O_8 
REMARK    4  A    between atoms: C_4  and  C_9 
REMARK    5  A    between atoms: C_11  and  O_6 
REMARK    6  A    between atoms: C_12  and  C_7 
REMARK    7  A    between atoms: C_11  and  C_14 
REMARK    8  A    between atoms: C_14  and  C_17 
REMARK    9  A    between atoms: O_18  and  C_17 
REMARK   10  A    between atoms: C_19  and  O_18 
REMARK   11  A    between atoms: O_25  and  C_24 
REMARK   12  A    between atoms: O_25  and  C_26 
REMARK   13  A    between atoms: C_26  and  C_27 
REMARK   14  A    between atoms: C_27  and  O_28 
ROOT
HETATM    1  C   UNK N   1      29.400  15.870   4.400  0.00  0.00     0.178 C 
ENDROOT
BRANCH   1   2
HETATM    2  O   UNK N   1      30.171  16.999   4.530  0.00  0.00    -0.350 OA
BRANCH   2   3
HETATM    3  C   UNK N   1      31.113  17.209   5.486  0.00  0.00     0.077 A 
HETATM    4  C   UNK N   1      30.833  17.268   6.882  0.00  0.00     0.009 A 
HETATM    5  C   UNK N   1      31.883  17.498   7.794  0.00  0.00     0.088 A 
HETATM    6  C   UNK N   1      33.207  17.673   7.331  0.00  0.00     0.043 A 
HETATM    7  C   UNK N   1      33.460  17.601   5.958  0.00  0.00     0.021 A 
HETATM    8  C   UNK N   1      32.430  17.368   5.053  0.00  0.00     0.038 A 
BRANCH   4   9
HETATM    9  C   UNK N   1      29.440  17.086   7.414  0.00  0.00     0.044 C 
BRANCH   9  10
HETATM   10  C   UNK N   1      28.763  18.426   7.635  0.00  0.00     0.000 C 
HETATM   11  C   UNK N   1      28.122  18.440   9.006  0.00  0.00     0.005 C 
ENDBRANCH   9  10
ENDBRANCH   4   9
BRANCH   5  12
HETATM   12  O   UNK N   1      31.612  17.557   9.114  0.00  0.00    -0.359 OA
HETATM   13  H   UNK N   1      30.740  17.433   9.434  0.00  0.00     0.217 HD
ENDBRANCH   5  12
BRANCH   6  14
HETATM   14  C   UNK N   1      34.344  17.934   8.257  0.00  0.00     0.158 C 
HETATM   15  O   UNK N   1      34.874  19.033   8.302  0.00  0.00    -0.293 OA
HETATM   16  C   UNK N   1      34.864  16.852   9.147  0.00  0.00     0.097 C 
ENDBRANCH   6  14
ENDBRANCH   2   3
ENDBRANCH   1   2
BRANCH   1  17
HETATM   17  C   UNK N   1      28.079  16.198   3.739  0.00  0.00     0.053 C 
BRANCH  17  18
HETATM   18  C   UNK N   1      27.885  17.697   3.863  0.00  0.00     0.178 C 
BRANCH  18  19
HETATM   19  O   UNK N   1      26.715  18.026   4.523  0.00  0.00    -0.351 OA
BRANCH  19  20
HETATM   20  C   UNK N   1      25.727  18.818   4.029  0.00  0.00     0.068 A 
HETATM   21  C   UNK N   1      25.999  19.965   3.262  0.00  0.00     0.039 A 
HETATM   22  C   UNK N   1      24.956  20.738   2.748  0.00  0.00     0.039 A 
HETATM   23  C   UNK N   1      23.622  20.381   3.009  0.00  0.00     0.069 A 
HETATM   24  C   UNK N   1      23.354  19.252   3.785  0.00  0.00     0.039 A 
HETATM   25  C   UNK N   1      24.398  18.470   4.286  0.00  0.00     0.039 A 
BRANCH  23  26
HETATM   26  O   UNK N   1      22.585  21.099   2.520  0.00  0.00    -0.341 OA
BRANCH  26  27
HETATM   27  C   UNK N   1      21.283  20.646   2.501  0.00  0.00     0.285 C 
BRANCH  27  28
HETATM   28  C   UNK N   1      20.929  20.118   1.144  0.00  0.00     0.164 C 
HETATM   29  O   UNK N   1      20.716  18.927   0.974  0.00  0.00    -0.648 OA
BRANCH  28  30
HETATM   30  O   UNK N   1      20.844  20.965   0.102  0.00  0.00    -0.775 OA
HETATM   31  H   UNK N   1      20.138  20.888  -0.509  0.00  0.00     0.167 HD
ENDBRANCH  28  30
ENDBRANCH  27  28
ENDBRANCH  26  27
ENDBRANCH  23  26
ENDBRANCH  19  20
ENDBRANCH  18  19
ENDBRANCH  17  18
ENDBRANCH   1  17
TORSDOF 14
ENDMDL
MODEL 2
REMARK VINA RESULT:      -7.3      1.653      2.947
REMARK  14 active torsions:
REMARK  status: ('A' for Active; 'I' for Inactive)
REMARK    1  A    between atoms: C_1  and  C_4 
REMARK    2  A    between atoms: C_2  and  O_6 
REMARK    3  A    between atoms: C_3  and  O_8 
REMARK    4  A    between atoms: C_4  and  C_9 
REMARK    5  A    between atoms: C_11  and  O_6 
REMARK    6  A    between atoms: C_12  and  C_7 
REMARK    7  A    between atoms: C_11  and  C_14 
REMARK    8  A    between atoms: C_14  and  C_17 
REMARK    9  A    between atoms: O_18  and  C_17 
REMARK   10  A    between atoms: C_19  and  O_18 
REMARK   11  A    between atoms: O_25  and  C_24 
REMARK   12  A    between atoms: O_25  and  C_26 
REMARK   13  A    between atoms: C_26  and  C_27 
REMARK   14  A    between atoms: C_27  and  O_28 
ROOT
HETATM    1  C   UNK N   1      28.303  17.606   6.248  0.00  0.00     0.178 C 
ENDROOT
BRANCH   1   2
HETATM    2  O   UNK N   1      29.468  16.941   5.956  0.00  0.00    -0.350 OA
BRANCH   2   3
HETATM    3  C   UNK N   1      30.686  17.198   6.502  0.00  0.00     0.077 A 
HETATM    4  C   UNK N   1      31.883  17.356   5.744  0.00  0.00     0.009 A 
HETATM    5  C   UNK N   1      33.099  17.615   6.409  0.00  0.00     0.088 A 
HETATM    6  C   UNK N   1      33.136  17.716   7.819  0.00  0.00     0.043 A 
HETATM    7  C   UNK N   1      31.948  17.568   8.541  0.00  0.00     0.021 A 
HETATM    8  C   UNK N   1      30.744  17.318   7.891  0.00  0.00     0.038 A 
BRANCH   4   9
HETATM    9  C   UNK N   1      31.884  17.258   4.246  0.00  0.00     0.044 C 
BRANCH   9  10
HETATM   10  C   UNK N   1      32.164  15.836   3.794  0.00  0.00     0.000 C 
HETATM   11  C   UNK N   1      33.369  15.832   2.878  0.00  0.00     0.005 C 
ENDBRANCH   9  10
ENDBRANCH   4   9
BRANCH   5  12
HETATM   12  O   UNK N   1      34.229  17.759   5.687  0.00  0.00    -0.359 OA
HETATM   13  H   UNK N   1      34.196  17.950   4.770  0.00  0.00     0.217 HD
ENDBRANCH   5  12
BRANCH   6  14
HETATM   14  C   UNK N   1      34.400  17.973   8.562  0.00  0.00     0.158 C 
HETATM   15  O   UNK N   1      35.056  18.981   8.351  0.00  0.00    -0.293 OA
HETATM   16  C   UNK N   1      34.897  16.997   9.579  0.00  0.00     0.097 C 
ENDBRANCH   6  14
ENDBRANCH   2   3
ENDBRANCH   1   2
BRANCH   1  17
HETATM   17  C   UNK N   1      28.207  18.890   5.455  0.00  0.00     0.053 C 
BRANCH  17  18
HETATM   18  C   UNK N   1      27.682  18.521   4.080  0.00  0.00     0.178 C 
BRANCH  18  19
HETATM   19  O   UNK N   1      26.880  19.508   3.539  0.00  0.00    -0.351 OA
BRANCH  19  20
HETATM   20  C   UNK N   1      25.520  19.495   3.518  0.00  0.00     0.068 A 
HETATM   21  C   UNK N   1      24.770  18.507   4.180  0.00  0.00     0.039 A 
HETATM   22  C   UNK N   1      23.374  18.544   4.159  0.00  0.00     0.039 A 
HETATM   23  C   UNK N   1      22.708  19.564   3.459  0.00  0.00     0.069 A 
HETATM   24  C   UNK N   1      23.455  20.535   2.787  0.00  0.00     0.039 A 
HETATM   25  C   UNK N   1      24.851  20.506   2.822  0.00  0.00     0.039 A 
BRANCH  23  26
HETATM   26  O   UNK N   1      21.358  19.639   3.424  0.00  0.00    -0.341 OA
BRANCH  26  27
HETATM   27  C   UNK N   1      20.615  19.525   2.268  0.00  0.00     0.285 C 
BRANCH  27  28
HETATM   28  C   UNK N   1      19.614  18.418   2.394  0.00  0.00     0.164 C 
HETATM   29  O   UNK N   1      19.975  17.251   2.435  0.00  0.00    -0.648 OA
BRANCH  28  30
HETATM   30  O   UNK N   1      18.303  18.711   2.462  0.00  0.00    -0.775 OA
HETATM   31  H   UNK N   1      18.025  19.600   2.566  0.00  0.00     0.167 HD
ENDBRANCH  28  30
ENDBRANCH  27  28
ENDBRANCH  26  27
ENDBRANCH  23  26
ENDBRANCH  19  20
ENDBRANCH  18  19
ENDBRANCH  17  18
ENDBRANCH   1  17
TORSDOF 14
ENDMDL
MODEL 3
REMARK VINA RESULT:      -7.2      5.827      8.713
REMARK  14 active torsions:
REMARK  status: ('A' for Active; 'I' for Inactive)
REMARK    1  A    between atoms: C_1  and  C_4 
REMARK    2  A    between atoms: C_2  and  O_6 
REMARK    3  A    between atoms: C_3  and  O_8 
REMARK    4  A    between atoms: C_4  and  C_9 
REMARK    5  A    between atoms: C_11  and  O_6 
REMARK    6  A    between atoms: C_12  and  C_7 
REMARK    7  A    between atoms: C_11  and  C_14 
REMARK    8  A    between atoms: C_14  and  C_17 
REMARK    9  A    between atoms: O_18  and  C_17 
REMARK   10  A    between atoms: C_19  and  O_18 
REMARK   11  A    between atoms: O_25  and  C_24 
REMARK   12  A    between atoms: O_25  and  C_26 
REMARK   13  A    between atoms: C_26  and  C_27 
REMARK   14  A    between atoms: C_27  and  O_28 
ROOT
HETATM    1  C   UNK N   1      24.594  14.503   7.107  0.00  0.00     0.178 C 
ENDROOT
BRANCH   1   2
HETATM    2  O   UNK N   1      23.286  14.175   6.844  0.00  0.00    -0.350 OA
BRANCH   2   3
HETATM    3  C   UNK N   1      22.194  14.767   7.396  0.00  0.00     0.077 A 
HETATM    4  C   UNK N   1      21.360  14.149   8.372  0.00  0.00     0.009 A 
HETATM    5  C   UNK N   1      20.245  14.848   8.878  0.00  0.00     0.088 A 
HETATM    6  C   UNK N   1      19.950  16.153   8.421  0.00  0.00     0.043 A 
HETATM    7  C   UNK N   1      20.789  16.743   7.470  0.00  0.00     0.021 A 
HETATM    8  C   UNK N   1      21.894  16.062   6.971  0.00  0.00     0.038 A 
BRANCH   4   9
HETATM    9  C   UNK N   1      21.640  12.766   8.884  0.00  0.00     0.044 C 
BRANCH   9  10
HETATM   10  C   UNK N   1      22.656  12.797  10.011  0.00  0.00     0.000 C 
HETATM   11  C   UNK N   1      22.077  12.102  11.224  0.00  0.00     0.005 C 
ENDBRANCH   9  10
ENDBRANCH   4   9
BRANCH   5  12
HETATM   12  O   UNK N   1      19.456  14.256   9.798  0.00  0.00    -0.359 OA
HETATM   13  H   UNK N   1      19.563  13.351  10.016  0.00  0.00     0.217 HD
ENDBRANCH   5  12
BRANCH   6  14
HETATM   14  C   UNK N   1      18.775  16.920   8.916  0.00  0.00     0.158 C 
HETATM   15  O   UNK N   1      17.646  16.463   8.825  0.00  0.00    -0.293 OA
HETATM   16  C   UNK N   1      18.951  18.271   9.530  0.00  0.00     0.097 C 
ENDBRANCH   6  14
ENDBRANCH   2   3
ENDBRANCH   1   2
BRANCH   1  17
HETATM   17  C   UNK N   1      25.365  14.696   5.820  0.00  0.00     0.053 C 
BRANCH  17  18
HETATM   18  C   UNK N   1      24.444  14.283   4.688  0.00  0.00     0.178 C 
BRANCH  18  19
HETATM   19  O   UNK N   1      24.401  15.220   3.672  0.00  0.00    -0.351 OA
BRANCH  19  20
HETATM   20  C   UNK N   1      23.708  16.389   3.707  0.00  0.00     0.068 A 
HETATM   21  C   UNK N   1      24.316  17.610   4.049  0.00  0.00     0.039 A 
HETATM   22  C   UNK N   1      23.576  18.795   4.046  0.00  0.00     0.039 A 
HETATM   23  C   UNK N   1      22.211  18.772   3.715  0.00  0.00     0.069 A 
HETATM   24  C   UNK N   1      21.605  17.555   3.392  0.00  0.00     0.039 A 
HETATM   25  C   UNK N   1      22.349  16.373   3.380  0.00  0.00     0.039 A 
BRANCH  23  26
HETATM   26  O   UNK N   1      21.465  19.900   3.691  0.00  0.00    -0.341 OA
BRANCH  26  27
HETATM   27  C   UNK N   1      20.314  20.039   2.944  0.00  0.00     0.285 C 
BRANCH  27  28
HETATM   28  C   UNK N   1      20.643  20.457   1.544  0.00  0.00     0.164 C 
HETATM   29  O   UNK N   1      20.973  21.608   1.297  0.00  0.00    -0.648 OA
BRANCH  28  30
HETATM   30  O   UNK N   1      20.573  19.557   0.547  0.00  0.00    -0.775 OA
HETATM   31  H   UNK N   1      19.739  19.268   0.232  0.00  0.00     0.167 HD
ENDBRANCH  28  30
ENDBRANCH  27  28
ENDBRANCH  26  27
ENDBRANCH  23  26
ENDBRANCH  19  20
ENDBRANCH  18  19
ENDBRANCH  17  18
ENDBRANCH   1  17
TORSDOF 14
ENDMDL
MODEL 4
REMARK VINA RESULT:      -7.0     10.281     11.948
REMARK  14 active torsions:
REMARK  status: ('A' for Active; 'I' for Inactive)
REMARK    1  A    between atoms: C_1  and  C_4 
REMARK    2  A    between atoms: C_2  and  O_6 
REMARK    3  A    between atoms: C_3  and  O_8 
REMARK    4  A    between atoms: C_4  and  C_9 
REMARK    5  A    between atoms: C_11  and  O_6 
REMARK    6  A    between atoms: C_12  and  C_7 
REMARK    7  A    between atoms: C_11  and  C_14 
REMARK    8  A    between atoms: C_14  and  C_17 
REMARK    9  A    between atoms: O_18  and  C_17 
REMARK   10  A    between atoms: C_19  and  O_18 
REMARK   11  A    between atoms: O_25  and  C_24 
REMARK   12  A    between atoms: O_25  and  C_26 
REMARK   13  A    between atoms: C_26  and  C_27 
REMARK   14  A    between atoms: C_27  and  O_28 
ROOT
HETATM    1  C   UNK N   1      28.744  22.491  -7.206  0.00  0.00     0.178 C 
ENDROOT
BRANCH   1   2
HETATM    2  O   UNK N   1      28.896  22.052  -5.914  0.00  0.00    -0.350 OA
BRANCH   2   3
HETATM    3  C   UNK N   1      30.046  21.576  -5.368  0.00  0.00     0.077 A 
HETATM    4  C   UNK N   1      30.445  21.808  -4.020  0.00  0.00     0.009 A 
HETATM    5  C   UNK N   1      31.664  21.274  -3.553  0.00  0.00     0.088 A 
HETATM    6  C   UNK N   1      32.489  20.515  -4.414  0.00  0.00     0.043 A 
HETATM    7  C   UNK N   1      32.072  20.291  -5.729  0.00  0.00     0.021 A 
HETATM    8  C   UNK N   1      30.868  20.810  -6.195  0.00  0.00     0.038 A 
BRANCH   4   9
HETATM    9  C   UNK N   1      29.596  22.608  -3.075  0.00  0.00     0.044 C 
BRANCH   9  10
HETATM   10  C   UNK N   1      29.491  24.053  -3.528  0.00  0.00     0.000 C 
HETATM   11  C   UNK N   1      30.857  24.700  -3.453  0.00  0.00     0.005 C 
ENDBRANCH   9  10
ENDBRANCH   4   9
BRANCH   5  12
HETATM   12  O   UNK N   1      32.039  21.501  -2.277  0.00  0.00    -0.359 OA
HETATM   13  H   UNK N   1      32.908  21.788  -2.073  0.00  0.00     0.217 HD
ENDBRANCH   5  12
BRANCH   6  14
HETATM   14  C   UNK N   1      33.790  19.946  -3.967  0.00  0.00     0.158 C 
HETATM   15  O   UNK N   1      34.615  20.643  -3.396  0.00  0.00    -0.293 OA
HETATM   16  C   UNK N   1      34.118  18.509  -4.214  0.00  0.00     0.097 C 
ENDBRANCH   6  14
ENDBRANCH   2   3
ENDBRANCH   1   2
BRANCH   1  17
HETATM   17  C   UNK N   1      27.627  23.508  -7.297  0.00  0.00     0.053 C 
BRANCH  17  18
HETATM   18  C   UNK N   1      26.531  23.044  -6.356  0.00  0.00     0.178 C 
BRANCH  18  19
HETATM   19  O   UNK N   1      25.540  23.993  -6.190  0.00  0.00    -0.351 OA
BRANCH  19  20
HETATM   20  C   UNK N   1      25.645  25.118  -5.435  0.00  0.00     0.068 A 
HETATM   21  C   UNK N   1      25.149  26.361  -5.869  0.00  0.00     0.039 A 
HETATM   22  C   UNK N   1      25.251  27.489  -5.051  0.00  0.00     0.039 A 
HETATM   23  C   UNK N   1      25.867  27.392  -3.793  0.00  0.00     0.069 A 
HETATM   24  C   UNK N   1      26.376  26.162  -3.371  0.00  0.00     0.039 A 
HETATM   25  C   UNK N   1      26.259  25.030  -4.182  0.00  0.00     0.039 A 
BRANCH  23  26
HETATM   26  O   UNK N   1      25.975  28.460  -2.969  0.00  0.00    -0.341 OA
BRANCH  26  27
HETATM   27  C   UNK N   1      26.831  29.517  -3.196  0.00  0.00     0.285 C 
BRANCH  27  28
HETATM   28  C   UNK N   1      28.020  29.435  -2.287  0.00  0.00     0.164 C 
HETATM   29  O   UNK N   1      29.110  29.086  -2.716  0.00  0.00    -0.648 OA
BRANCH  28  30
HETATM   30  O   UNK N   1      27.886  29.748  -0.986  0.00  0.00    -0.775 OA
HETATM   31  H   UNK N   1      27.280  29.276  -0.449  0.00  0.00     0.167 HD
ENDBRANCH  28  30
ENDBRANCH  27  28
ENDBRANCH  26  27
ENDBRANCH  23  26
ENDBRANCH  19  20
ENDBRANCH  18  19
ENDBRANCH  17  18
ENDBRANCH   1  17
TORSDOF 14
ENDMDL
MODEL 5
REMARK VINA RESULT:      -6.9     10.698     14.243
REMARK  14 active torsions:
REMARK  status: ('A' for Active; 'I' for Inactive)
REMARK    1  A    between atoms: C_1  and  C_4 
REMARK    2  A    between atoms: C_2  and  O_6 
REMARK    3  A    between atoms: C_3  and  O_8 
REMARK    4  A    between atoms: C_4  and  C_9 
REMARK    5  A    between atoms: C_11  and  O_6 
REMARK    6  A    between atoms: C_12  and  C_7 
REMARK    7  A    between atoms: C_11  and  C_14 
REMARK    8  A    between atoms: C_14  and  C_17 
REMARK    9  A    between atoms: O_18  and  C_17 
REMARK   10  A    between atoms: C_19  and  O_18 
REMARK   11  A    between atoms: O_25  and  C_24 
REMARK   12  A    between atoms: O_25  and  C_26 
REMARK   13  A    between atoms: C_26  and  C_27 
REMARK   14  A    between atoms: C_27  and  O_28 
ROOT
HETATM    1  C   UNK N   1      26.985  26.420  -9.146  0.00  0.00     0.178 C 
ENDROOT
BRANCH   1   2
HETATM    2  O   UNK N   1      27.433  27.369  -8.260  0.00  0.00    -0.350 OA
BRANCH   2   3
HETATM    3  C   UNK N   1      28.317  27.155  -7.249  0.00  0.00     0.077 A 
HETATM    4  C   UNK N   1      28.207  27.744  -5.956  0.00  0.00     0.009 A 
HETATM    5  C   UNK N   1      29.183  27.462  -4.978  0.00  0.00     0.088 A 
HETATM    6  C   UNK N   1      30.265  26.602  -5.273  0.00  0.00     0.043 A 
HETATM    7  C   UNK N   1      30.346  26.027  -6.545  0.00  0.00     0.021 A 
HETATM    8  C   UNK N   1      29.384  26.297  -7.513  0.00  0.00     0.038 A 
BRANCH   4   9
HETATM    9  C   UNK N   1      27.072  28.662  -5.603  0.00  0.00     0.044 C 
BRANCH   9  10
HETATM   10  C   UNK N   1      25.824  27.873  -5.252  0.00  0.00     0.000 C 
HETATM   11  C   UNK N   1      25.589  27.951  -3.758  0.00  0.00     0.005 C 
ENDBRANCH   9  10
ENDBRANCH   4   9
BRANCH   5  12
HETATM   12  O   UNK N   1      29.077  28.026  -3.757  0.00  0.00    -0.359 OA
HETATM   13  H   UNK N   1      28.488  27.681  -3.114  0.00  0.00     0.217 HD
ENDBRANCH   5  12
BRANCH   6  14
HETATM   14  C   UNK N   1      31.325  26.290  -4.276  0.00  0.00     0.158 C 
HETATM   15  O   UNK N   1      31.044  26.109  -3.101  0.00  0.00    -0.293 OA
HETATM   16  C   UNK N   1      32.758  26.197  -4.690  0.00  0.00     0.097 C 
ENDBRANCH   6  14
ENDBRANCH   2   3
ENDBRANCH   1   2
BRANCH   1  17
HETATM   17  C   UNK N   1      25.579  25.985  -8.796  0.00  0.00     0.053 C 
BRANCH  17  18
HETATM   18  C   UNK N   1      25.546  24.472  -8.905  0.00  0.00     0.178 C 
BRANCH  18  19
HETATM   19  O   UNK N   1      25.383  23.857  -7.678  0.00  0.00    -0.351 OA
BRANCH  19  20
HETATM   20  C   UNK N   1      26.324  23.787  -6.700  0.00  0.00     0.068 A 
HETATM   21  C   UNK N   1      26.153  24.409  -5.450  0.00  0.00     0.039 A 
HETATM   22  C   UNK N   1      27.130  24.291  -4.459  0.00  0.00     0.039 A 
HETATM   23  C   UNK N   1      28.304  23.561  -4.713  0.00  0.00     0.069 A 
HETATM   24  C   UNK N   1      28.481  22.959  -5.961  0.00  0.00     0.039 A 
HETATM   25  C   UNK N   1      27.495  23.064  -6.946  0.00  0.00     0.039 A 
BRANCH  23  26
HETATM   26  O   UNK N   1      29.268  23.416  -3.776  0.00  0.00    -0.341 OA
BRANCH  26  27
HETATM   27  C   UNK N   1      30.126  22.338  -3.721  0.00  0.00     0.285 C 
BRANCH  27  28
HETATM   28  C   UNK N   1      30.899  22.345  -2.438  0.00  0.00     0.164 C 
HETATM   29  O   UNK N   1      30.562  23.065  -1.510  0.00  0.00    -0.648 OA
BRANCH  28  30
HETATM   30  O   UNK N   1      31.976  21.550  -2.305  0.00  0.00    -0.775 OA
HETATM   31  H   UNK N   1      32.758  21.880  -1.909  0.00  0.00     0.167 HD
ENDBRANCH  28  30
ENDBRANCH  27  28
ENDBRANCH  26  27
ENDBRANCH  23  26
ENDBRANCH  19  20
ENDBRANCH  18  19
ENDBRANCH  17  18
ENDBRANCH   1  17
TORSDOF 14
ENDMDL
MODEL 6
REMARK VINA RESULT:      -6.8     11.906     14.573
REMARK  14 active torsions:
REMARK  status: ('A' for Active; 'I' for Inactive)
REMARK    1  A    between atoms: C_1  and  C_4 
REMARK    2  A    between atoms: C_2  and  O_6 
REMARK    3  A    between atoms: C_3  and  O_8 
REMARK    4  A    between atoms: C_4  and  C_9 
REMARK    5  A    between atoms: C_11  and  O_6 
REMARK    6  A    between atoms: C_12  and  C_7 
REMARK    7  A    between atoms: C_11  and  C_14 
REMARK    8  A    between atoms: C_14  and  C_17 
REMARK    9  A    between atoms: O_18  and  C_17 
REMARK   10  A    between atoms: C_19  and  O_18 
REMARK   11  A    between atoms: O_25  and  C_24 
REMARK   12  A    between atoms: O_25  and  C_26 
REMARK   13  A    between atoms: C_26  and  C_27 
REMARK   14  A    between atoms: C_27  and  O_28 
ROOT
HETATM    1  C   UNK N   1      29.701  28.952  -3.572  0.00  0.00     0.178 C 
ENDROOT
BRANCH   1   2
HETATM    2  O   UNK N   1      30.021  28.802  -4.899  0.00  0.00    -0.350 OA
BRANCH   2   3
HETATM    3  C   UNK N   1      29.403  27.965  -5.773  0.00  0.00     0.077 A 
HETATM    4  C   UNK N   1      29.725  26.584  -5.920  0.00  0.00     0.009 A 
HETATM    5  C   UNK N   1      29.026  25.803  -6.863  0.00  0.00     0.088 A 
HETATM    6  C   UNK N   1      28.013  26.381  -7.662  0.00  0.00     0.043 A 
HETATM    7  C   UNK N   1      27.707  27.735  -7.493  0.00  0.00     0.021 A 
HETATM    8  C   UNK N   1      28.388  28.511  -6.561  0.00  0.00     0.038 A 
BRANCH   4   9
HETATM    9  C   UNK N   1      30.793  25.933  -5.089  0.00  0.00     0.044 C 
BRANCH   9  10
HETATM   10  C   UNK N   1      30.237  25.466  -3.757  0.00  0.00     0.000 C 
HETATM   11  C   UNK N   1      30.731  24.063  -3.475  0.00  0.00     0.005 C 
ENDBRANCH   9  10
ENDBRANCH   4   9
BRANCH   5  12
HETATM   12  O   UNK N   1      29.338  24.498  -7.001  0.00  0.00    -0.359 OA
HETATM   13  H   UNK N   1      29.012  23.857  -6.400  0.00  0.00     0.217 HD
ENDBRANCH   5  12
BRANCH   6  14
HETATM   14  C   UNK N   1      27.262  25.597  -8.680  0.00  0.00     0.158 C 
HETATM   15  O   UNK N   1      27.754  24.603  -9.193  0.00  0.00    -0.293 OA
HETATM   16  C   UNK N   1      25.890  26.014  -9.102  0.00  0.00     0.097 C 
ENDBRANCH   6  14
ENDBRANCH   2   3
ENDBRANCH   1   2
BRANCH   1  17
HETATM   17  C   UNK N   1      28.533  29.900  -3.409  0.00  0.00     0.053 C 
BRANCH  17  18
HETATM   18  C   UNK N   1      27.561  29.240  -2.450  0.00  0.00     0.178 C 
BRANCH  18  19
HETATM   19  O   UNK N   1      26.353  28.933  -3.049  0.00  0.00    -0.351 OA
BRANCH  19  20
HETATM   20  C   UNK N   1      26.095  27.810  -3.771  0.00  0.00     0.068 A 
HETATM   21  C   UNK N   1      26.724  26.583  -3.499  0.00  0.00     0.039 A 
HETATM   22  C   UNK N   1      26.410  25.444  -4.246  0.00  0.00     0.039 A 
HETATM   23  C   UNK N   1      25.472  25.524  -5.288  0.00  0.00     0.069 A 
HETATM   24  C   UNK N   1      24.861  26.749  -5.569  0.00  0.00     0.039 A 
HETATM   25  C   UNK N   1      25.163  27.883  -4.811  0.00  0.00     0.039 A 
BRANCH  23  26
HETATM   26  O   UNK N   1      25.135  24.442  -6.026  0.00  0.00    -0.341 OA
BRANCH  26  27
HETATM   27  C   UNK N   1      25.902  23.298  -6.101  0.00  0.00     0.285 C 
BRANCH  27  28
HETATM   28  C   UNK N   1      25.374  22.380  -7.161  0.00  0.00     0.164 C 
HETATM   29  O   UNK N   1      24.433  21.635  -6.930  0.00  0.00    -0.648 OA
BRANCH  28  30
HETATM   30  O   UNK N   1      25.943  22.374  -8.380  0.00  0.00    -0.775 OA
HETATM   31  H   UNK N   1      25.607  22.927  -9.058  0.00  0.00     0.167 HD
ENDBRANCH  28  30
ENDBRANCH  27  28
ENDBRANCH  26  27
ENDBRANCH  23  26
ENDBRANCH  19  20
ENDBRANCH  18  19
ENDBRANCH  17  18
ENDBRANCH   1  17
TORSDOF 14
ENDMDL
MODEL 7
REMARK VINA RESULT:      -6.8      1.860     10.707
REMARK  14 active torsions:
REMARK  status: ('A' for Active; 'I' for Inactive)
REMARK    1  A    between atoms: C_1  and  C_4 
REMARK    2  A    between atoms: C_2  and  O_6 
REMARK    3  A    between atoms: C_3  and  O_8 
REMARK    4  A    between atoms: C_4  and  C_9 
REMARK    5  A    between atoms: C_11  and  O_6 
REMARK    6  A    between atoms: C_12  and  C_7 
REMARK    7  A    between atoms: C_11  and  C_14 
REMARK    8  A    between atoms: C_14  and  C_17 
REMARK    9  A    between atoms: O_18  and  C_17 
REMARK   10  A    between atoms: C_19  and  O_18 
REMARK   11  A    between atoms: O_25  and  C_24 
REMARK   12  A    between atoms: O_25  and  C_26 
REMARK   13  A    between atoms: C_26  and  C_27 
REMARK   14  A    between atoms: C_27  and  O_28 
ROOT
HETATM    1  C   UNK N   1      25.604  16.069   5.485  0.00  0.00     0.178 C 
ENDROOT
BRANCH   1   2
HETATM    2  O   UNK N   1      25.529  17.334   4.954  0.00  0.00    -0.350 OA
BRANCH   2   3
HETATM    3  C   UNK N   1      24.390  17.959   4.554  0.00  0.00     0.077 A 
HETATM    4  C   UNK N   1      24.367  19.186   3.830  0.00  0.00     0.009 A 
HETATM    5  C   UNK N   1      23.130  19.757   3.467  0.00  0.00     0.088 A 
HETATM    6  C   UNK N   1      21.917  19.120   3.818  0.00  0.00     0.043 A 
HETATM    7  C   UNK N   1      21.965  17.911   4.519  0.00  0.00     0.021 A 
HETATM    8  C   UNK N   1      23.182  17.339   4.875  0.00  0.00     0.038 A 
BRANCH   4   9
HETATM    9  C   UNK N   1      25.632  19.893   3.438  0.00  0.00     0.044 C 
BRANCH   9  10
HETATM   10  C   UNK N   1      26.271  20.571   4.636  0.00  0.00     0.000 C 
HETATM   11  C   UNK N   1      27.753  20.265   4.651  0.00  0.00     0.005 C 
ENDBRANCH   9  10
ENDBRANCH   4   9
BRANCH   5  12
HETATM   12  O   UNK N   1      23.113  20.921   2.787  0.00  0.00    -0.359 OA
HETATM   13  H   UNK N   1      22.807  20.960   1.901  0.00  0.00     0.217 HD
ENDBRANCH   5  12
BRANCH   6  14
HETATM   14  C   UNK N   1      20.589  19.694   3.468  0.00  0.00     0.158 C 
HETATM   15  O   UNK N   1      20.279  20.818   3.832  0.00  0.00    -0.293 OA
HETATM   16  C   UNK N   1      19.604  18.904   2.669  0.00  0.00     0.097 C 
ENDBRANCH   6  14
ENDBRANCH   2   3
ENDBRANCH   1   2
BRANCH   1  17
HETATM   17  C   UNK N   1      26.687  15.995   6.539  0.00  0.00     0.053 C 
BRANCH  17  18
HETATM   18  C   UNK N   1      27.468  17.293   6.460  0.00  0.00     0.178 C 
BRANCH  18  19
HETATM   19  O   UNK N   1      28.741  17.114   5.952  0.00  0.00    -0.351 OA
BRANCH  19  20
HETATM   20  C   UNK N   1      29.897  17.257   6.653  0.00  0.00     0.068 A 
HETATM   21  C   UNK N   1      29.918  17.752   7.969  0.00  0.00     0.039 A 
HETATM   22  C   UNK N   1      31.123  17.858   8.667  0.00  0.00     0.039 A 
HETATM   23  C   UNK N   1      32.328  17.484   8.050  0.00  0.00     0.069 A 
HETATM   24  C   UNK N   1      32.308  17.009   6.736  0.00  0.00     0.039 A 
HETATM   25  C   UNK N   1      31.100  16.889   6.045  0.00  0.00     0.039 A 
BRANCH  23  26
HETATM   26  O   UNK N   1      33.514  17.563   8.697  0.00  0.00    -0.341 OA
BRANCH  26  27
HETATM   27  C   UNK N   1      34.502  16.606   8.601  0.00  0.00     0.285 C 
BRANCH  27  28
HETATM   28  C   UNK N   1      35.224  16.463   9.907  0.00  0.00     0.164 C 
HETATM   29  O   UNK N   1      35.588  17.449  10.530  0.00  0.00    -0.648 OA
BRANCH  28  30
HETATM   30  O   UNK N   1      35.474  15.236  10.398  0.00  0.00    -0.775 OA
HETATM   31  H   UNK N   1      34.944  14.889  11.088  0.00  0.00     0.167 HD
ENDBRANCH  28  30
ENDBRANCH  27  28
ENDBRANCH  26  27
ENDBRANCH  23  26
ENDBRANCH  19  20
ENDBRANCH  18  19
ENDBRANCH  17  18
ENDBRANCH   1  17
TORSDOF 14
ENDMDL
MODEL 8
REMARK VINA RESULT:      -6.5      5.132      7.993
REMARK  14 active torsions:
REMARK  status: ('A' for Active; 'I' for Inactive)
REMARK    1  A    between atoms: C_1  and  C_4 
REMARK    2  A    between atoms: C_2  and  O_6 
REMARK    3  A    between atoms: C_3  and  O_8 
REMARK    4  A    between atoms: C_4  and  C_9 
REMARK    5  A    between atoms: C_11  and  O_6 
REMARK    6  A    between atoms: C_12  and  C_7 
REMARK    7  A    between atoms: C_11  and  C_14 
REMARK    8  A    between atoms: C_14  and  C_17 
REMARK    9  A    between atoms: O_18  and  C_17 
REMARK   10  A    between atoms: C_19  and  O_18 
REMARK   11  A    between atoms: O_25  and  C_24 
REMARK   12  A    between atoms: O_25  and  C_26 
REMARK   13  A    between atoms: C_26  and  C_27 
REMARK   14  A    between atoms: C_27  and  O_28 
ROOT
HETATM    1  C   UNK N   1      25.555  15.369   6.838  0.00  0.00     0.178 C 
ENDROOT
BRANCH   1   2
HETATM    2  O   UNK N   1      24.472  14.564   6.579  0.00  0.00    -0.350 OA
BRANCH   2   3
HETATM    3  C   UNK N   1      23.526  14.193   7.481  0.00  0.00     0.077 A 
HETATM    4  C   UNK N   1      22.185  14.675   7.475  0.00  0.00     0.009 A 
HETATM    5  C   UNK N   1      21.281  14.232   8.462  0.00  0.00     0.088 A 
HETATM    6  C   UNK N   1      21.699  13.317   9.456  0.00  0.00     0.043 A 
HETATM    7  C   UNK N   1      23.017  12.850   9.436  0.00  0.00     0.021 A 
HETATM    8  C   UNK N   1      23.912  13.278   8.462  0.00  0.00     0.038 A 
BRANCH   4   9
HETATM    9  C   UNK N   1      21.703  15.646   6.436  0.00  0.00     0.044 C 
BRANCH   9  10
HETATM   10  C   UNK N   1      21.011  14.923   5.295  0.00  0.00     0.000 C 
HETATM   11  C   UNK N   1      19.722  15.642   4.957  0.00  0.00     0.005 C 
ENDBRANCH   9  10
ENDBRANCH   4   9
BRANCH   5  12
HETATM   12  O   UNK N   1      20.015  14.694   8.454  0.00  0.00    -0.359 OA
HETATM   13  H   UNK N   1      19.420  14.465   7.766  0.00  0.00     0.217 HD
ENDBRANCH   5  12
BRANCH   6  14
HETATM   14  C   UNK N   1      20.783  12.835  10.526  0.00  0.00     0.158 C 
HETATM   15  O   UNK N   1      19.588  13.088  10.487  0.00  0.00    -0.293 OA
HETATM   16  C   UNK N   1      21.307  12.037  11.675  0.00  0.00     0.097 C 
ENDBRANCH   6  14
ENDBRANCH   2   3
ENDBRANCH   1   2
BRANCH   1  17
HETATM   17  C   UNK N   1      26.591  15.239   5.743  0.00  0.00     0.053 C 
BRANCH  17  18
HETATM   18  C   UNK N   1      26.495  16.492   4.895  0.00  0.00     0.178 C 
BRANCH  18  19
HETATM   19  O   UNK N   1      25.338  16.531   4.139  0.00  0.00    -0.351 OA
BRANCH  19  20
HETATM   20  C   UNK N   1      24.626  17.651   3.844  0.00  0.00     0.068 A 
HETATM   21  C   UNK N   1      25.248  18.867   3.508  0.00  0.00     0.039 A 
HETATM   22  C   UNK N   1      24.482  19.989   3.183  0.00  0.00     0.039 A 
HETATM   23  C   UNK N   1      23.080  19.913   3.206  0.00  0.00     0.069 A 
HETATM   24  C   UNK N   1      22.463  18.710   3.557  0.00  0.00     0.039 A 
HETATM   25  C   UNK N   1      23.231  17.584   3.866  0.00  0.00     0.039 A 
BRANCH  23  26
HETATM   26  O   UNK N   1      22.304  20.975   2.888  0.00  0.00    -0.341 OA
BRANCH  26  27
HETATM   27  C   UNK N   1      20.975  20.873   2.538  0.00  0.00     0.285 C 
BRANCH  27  28
HETATM   28  C   UNK N   1      20.792  21.156   1.078  0.00  0.00     0.164 C 
HETATM   29  O   UNK N   1      20.938  20.272   0.248  0.00  0.00    -0.648 OA
BRANCH  28  30
HETATM   30  O   UNK N   1      20.464  22.397   0.676  0.00  0.00    -0.775 OA
HETATM   31  H   UNK N   1      20.896  22.783  -0.061  0.00  0.00     0.167 HD
ENDBRANCH  28  30
ENDBRANCH  27  28
ENDBRANCH  26  27
ENDBRANCH  23  26
ENDBRANCH  19  20
ENDBRANCH  18  19
ENDBRANCH  17  18
ENDBRANCH   1  17
TORSDOF 14
ENDMDL
MODEL 9
REMARK VINA RESULT:      -6.5     11.105     15.014
REMARK  14 active torsions:
REMARK  status: ('A' for Active; 'I' for Inactive)
REMARK    1  A    between atoms: C_1  and  C_4 
REMARK    2  A    between atoms: C_2  and  O_6 
REMARK    3  A    between atoms: C_3  and  O_8 
REMARK    4  A    between atoms: C_4  and  C_9 
REMARK    5  A    between atoms: C_11  and  O_6 
REMARK    6  A    between atoms: C_12  and  C_7 
REMARK    7  A    between atoms: C_11  and  C_14 
REMARK    8  A    between atoms: C_14  and  C_17 
REMARK    9  A    between atoms: O_18  and  C_17 
REMARK   10  A    between atoms: C_19  and  O_18 
REMARK   11  A    between atoms: O_25  and  C_24 
REMARK   12  A    between atoms: O_25  and  C_26 
REMARK   13  A    between atoms: C_26  and  C_27 
REMARK   14  A    between atoms: C_27  and  O_28 
ROOT
HETATM    1  C   UNK N   1      29.315  29.952  -7.294  0.00  0.00     0.178 C 
ENDROOT
BRANCH   1   2
HETATM    2  O   UNK N   1      28.432  29.925  -6.242  0.00  0.00    -0.350 OA
BRANCH   2   3
HETATM    3  C   UNK N   1      27.878  28.808  -5.701  0.00  0.00     0.077 A 
HETATM    4  C   UNK N   1      27.005  28.816  -4.575  0.00  0.00     0.009 A 
HETATM    5  C   UNK N   1      26.488  27.598  -4.086  0.00  0.00     0.088 A 
HETATM    6  C   UNK N   1      26.832  26.375  -4.705  0.00  0.00     0.043 A 
HETATM    7  C   UNK N   1      27.682  26.392  -5.815  0.00  0.00     0.021 A 
HETATM    8  C   UNK N   1      28.191  27.590  -6.306  0.00  0.00     0.038 A 
BRANCH   4   9
HETATM    9  C   UNK N   1      26.615  30.094  -3.891  0.00  0.00     0.044 C 
BRANCH   9  10
HETATM   10  C   UNK N   1      27.799  30.707  -3.166  0.00  0.00     0.000 C 
HETATM   11  C   UNK N   1      27.985  30.009  -1.836  0.00  0.00     0.005 C 
ENDBRANCH   9  10
ENDBRANCH   4   9
BRANCH   5  12
HETATM   12  O   UNK N   1      25.666  27.611  -3.017  0.00  0.00    -0.359 OA
HETATM   13  H   UNK N   1      25.066  28.318  -2.876  0.00  0.00     0.217 HD
ENDBRANCH   5  12
BRANCH   6  14
HETATM   14  C   UNK N   1      26.321  25.066  -4.212  0.00  0.00     0.158 C 
HETATM   15  O   UNK N   1      26.360  24.786  -3.024  0.00  0.00    -0.293 OA
HETATM   16  C   UNK N   1      25.756  24.062  -5.164  0.00  0.00     0.097 C 
ENDBRANCH   6  14
ENDBRANCH   2   3
ENDBRANCH   1   2
BRANCH   1  17
HETATM   17  C   UNK N   1      30.513  30.815  -6.963  0.00  0.00     0.053 C 
BRANCH  17  18
HETATM   18  C   UNK N   1      30.794  30.631  -5.484  0.00  0.00     0.178 C 
BRANCH  18  19
HETATM   19  O   UNK N   1      31.775  29.686  -5.246  0.00  0.00    -0.351 OA
BRANCH  19  20
HETATM   20  C   UNK N   1      31.558  28.418  -4.809  0.00  0.00     0.068 A 
HETATM   21  C   UNK N   1      30.780  28.140  -3.671  0.00  0.00     0.039 A 
HETATM   22  C   UNK N   1      30.556  26.821  -3.270  0.00  0.00     0.039 A 
HETATM   23  C   UNK N   1      31.125  25.760  -3.994  0.00  0.00     0.069 A 
HETATM   24  C   UNK N   1      31.914  26.038  -5.113  0.00  0.00     0.039 A 
HETATM   25  C   UNK N   1      32.123  27.357  -5.523  0.00  0.00     0.039 A 
BRANCH  23  26
HETATM   26  O   UNK N   1      30.924  24.469  -3.642  0.00  0.00    -0.341 OA
BRANCH  26  27
HETATM   27  C   UNK N   1      29.676  23.892  -3.532  0.00  0.00     0.285 C 
BRANCH  27  28
HETATM   28  C   UNK N   1      29.506  23.261  -2.183  0.00  0.00     0.164 C 
HETATM   29  O   UNK N   1      30.475  23.031  -1.476  0.00  0.00    -0.648 OA
BRANCH  28  30
HETATM   30  O   UNK N   1      28.273  22.945  -1.748  0.00  0.00    -0.775 OA
HETATM   31  H   UNK N   1      27.973  23.258  -0.917  0.00  0.00     0.167 HD
ENDBRANCH  28  30
ENDBRANCH  27  28
ENDBRANCH  26  27
ENDBRANCH  23  26
ENDBRANCH  19  20
ENDBRANCH  18  19
ENDBRANCH  17  18
ENDBRANCH   1  17
TORSDOF 14
ENDMDL
