REMARK  1 active torsions:
REMARK  status: ('A' for Active; 'I' for Inactive)
REMARK    1  A    between atoms: C_7  and  C_4 
ROOT
HETATM    1  C   UNK N   1      -2.368  -0.324   0.111  0.00  0.00     0.185 C 
HETATM    2  O   UNK N   1      -2.459  -0.427  -1.286  0.00  0.00    -0.363 OA
HETATM    3  C   UNK N   1      -1.241  -1.270   0.624  0.00  0.00     0.103 C 
HETATM    4  C   UNK N   1       0.077  -0.770   0.136  0.00  0.00     0.140 C 
HETATM    5  O   UNK N   1       1.146  -1.565   0.497  0.00  0.00    -0.312 OA
HETATM    6  C   UNK N   1       0.194   0.570   0.777  0.00  0.00     0.065 C 
HETATM    7  C   UNK N   1      -0.811   1.471   0.086  0.00  0.00     0.127 C 
HETATM    8  O   UNK N   1      -2.131   1.061   0.483  0.00  0.00    -0.348 OA
HETATM    9  C   UNK N   1      -0.397   2.916   0.428  0.00  0.00     0.033 C 
HETATM   10  C   UNK N   1       0.936   3.360  -0.291  0.00  0.00     0.010 C 
HETATM   11  C   UNK N   1       2.193   2.484  -0.027  0.00  0.00     0.004 C 
HETATM   12  C   UNK N   1       2.546   2.525   1.454  0.00  0.00     0.014 C 
HETATM   13  C   UNK N   1       3.407   2.801  -0.859  0.00  0.00    -0.026 C 
HETATM   14  C   UNK N   1       4.495   1.989  -0.880  0.00  0.00    -0.030 C 
HETATM   15  C   UNK N   1       4.586   0.710  -0.071  0.00  0.00     0.031 C 
HETATM   16  C   UNK N   1       4.975  -0.523  -0.899  0.00  0.00     0.038 C 
HETATM   17  C   UNK N   1       4.739  -1.792  -0.101  0.00  0.00    -0.078 C 
HETATM   18  C   UNK N   1       5.915  -2.576   0.369  0.00  0.00     0.043 C 
HETATM   19  C   UNK N   1       3.507  -2.214   0.244  0.00  0.00     0.084 C 
HETATM   20  C   UNK N   1       2.283  -1.567  -0.259  0.00  0.00     0.283 C 
HETATM   21  O   UNK N   1       2.301  -1.030  -1.355  0.00  0.00    -0.260 OA
HETATM   22  H   UNK N   1      -2.552  -0.409  -2.251  0.00  0.00     0.213 HD
ENDROOT
BRANCH   1  23
HETATM   23  C   UNK N   1      -3.677  -0.876   0.725  0.00  0.00     0.157 C 
HETATM   24  N   UNK N   1      -4.851  -0.330   0.101  0.00  0.00    -0.341 N 
HETATM   25  C   UNK N   1      -5.797  -1.237  -0.200  0.00  0.00     0.280 C 
HETATM   26  H   UNK N   1      -4.954   0.630  -0.090  0.00  0.00     0.163 HD
HETATM   27  O   UNK N   1      -6.820  -0.921  -0.782  0.00  0.00    -0.260 OA
HETATM   28  S   UNK N   1      -5.505  -2.907   0.327  0.00  0.00    -0.067 SA
HETATM   29  C   UNK N   1      -3.770  -2.406   0.515  0.00  0.00     0.114 C 
ENDBRANCH   1  23
TORSDOF 1
