MODEL 1
REMARK VINA RESULT:      -8.7      0.000      0.000
REMARK  1 active torsions:
REMARK  status: ('A' for Active; 'I' for Inactive)
REMARK    1  A    between atoms: C_7  and  C_4 
ROOT
HETATM    1  C   UNK N   1      35.631  13.920  10.995  0.00  0.00     0.185 C 
HETATM    2  O   UNK N   1      34.332  13.437  10.773  0.00  0.00    -0.363 OA
HETATM    3  C   UNK N   1      35.734  14.471  12.449  0.00  0.00     0.103 C 
HETATM    4  C   UNK N   1      35.597  13.340  13.411  0.00  0.00     0.140 C 
HETATM    5  O   UNK N   1      35.627  13.725  14.736  0.00  0.00    -0.312 OA
HETATM    6  C   UNK N   1      36.773  12.480  13.099  0.00  0.00     0.065 C 
HETATM    7  C   UNK N   1      36.498  11.841  11.752  0.00  0.00     0.127 C 
HETATM    8  O   UNK N   1      36.594  12.861  10.742  0.00  0.00    -0.348 OA
HETATM    9  C   UNK N   1      37.472  10.651  11.636  0.00  0.00     0.033 C 
HETATM   10  C   UNK N   1      37.104   9.460  12.604  0.00  0.00     0.010 C 
HETATM   11  C   UNK N   1      37.023   9.796  14.120  0.00  0.00     0.004 C 
HETATM   12  C   UNK N   1      38.385  10.264  14.616  0.00  0.00     0.014 C 
HETATM   13  C   UNK N   1      36.491   8.706  15.012  0.00  0.00    -0.026 C 
HETATM   14  C   UNK N   1      36.174   8.934  16.312  0.00  0.00    -0.030 C 
HETATM   15  C   UNK N   1      36.333  10.288  16.976  0.00  0.00     0.031 C 
HETATM   16  C   UNK N   1      35.066  10.782  17.689  0.00  0.00     0.038 C 
HETATM   17  C   UNK N   1      35.200  12.251  18.047  0.00  0.00    -0.078 C 
HETATM   18  C   UNK N   1      35.339  12.633  19.480  0.00  0.00     0.043 C 
HETATM   19  C   UNK N   1      35.249  13.224  17.116  0.00  0.00     0.084 C 
HETATM   20  C   UNK N   1      35.017  12.958  15.686  0.00  0.00     0.283 C 
HETATM   21  O   UNK N   1      34.278  12.041  15.364  0.00  0.00    -0.260 OA
HETATM   22  H   UNK N   1      33.472  13.043  10.559  0.00  0.00     0.213 HD
ENDROOT
BRANCH   1  23
HETATM   23  C   UNK N   1      35.858  15.144  10.076  0.00  0.00     0.157 C 
HETATM   24  N   UNK N   1      35.612  14.847   8.691  0.00  0.00    -0.341 N 
HETATM   25  C   UNK N   1      34.875  15.767   8.044  0.00  0.00     0.280 C 
HETATM   26  H   UNK N   1      35.955  14.035   8.253  0.00  0.00     0.163 HD
HETATM   27  O   UNK N   1      34.544  15.614   6.881  0.00  0.00    -0.260 OA
HETATM   28  S   UNK N   1      34.443  17.231   8.950  0.00  0.00    -0.067 SA
HETATM   29  C   UNK N   1      34.872  16.281  10.436  0.00  0.00     0.114 C 
ENDBRANCH   1  23
TORSDOF 1
ENDMDL
MODEL 2
REMARK VINA RESULT:      -8.1      9.499     12.436
REMARK  1 active torsions:
REMARK  status: ('A' for Active; 'I' for Inactive)
REMARK    1  A    between atoms: C_7  and  C_4 
ROOT
HETATM    1  C   UNK N   1      27.247  19.501   5.604  0.00  0.00     0.185 C 
HETATM    2  O   UNK N   1      27.895  20.679   5.200  0.00  0.00    -0.363 OA
HETATM    3  C   UNK N   1      27.736  18.315   4.719  0.00  0.00     0.103 C 
HETATM    4  C   UNK N   1      29.177  18.054   5.006  0.00  0.00     0.140 C 
HETATM    5  O   UNK N   1      29.726  17.047   4.238  0.00  0.00    -0.312 OA
HETATM    6  C   UNK N   1      29.174  17.661   6.443  0.00  0.00     0.065 C 
HETATM    7  C   UNK N   1      28.872  18.918   7.236  0.00  0.00     0.127 C 
HETATM    8  O   UNK N   1      27.495  19.268   7.017  0.00  0.00    -0.348 OA
HETATM    9  C   UNK N   1      29.293  18.619   8.689  0.00  0.00     0.033 C 
HETATM   10  C   UNK N   1      30.859  18.530   8.869  0.00  0.00     0.010 C 
HETATM   11  C   UNK N   1      31.601  17.486   7.988  0.00  0.00     0.004 C 
HETATM   12  C   UNK N   1      31.114  16.084   8.331  0.00  0.00     0.014 C 
HETATM   13  C   UNK N   1      33.105  17.536   8.027  0.00  0.00    -0.026 C 
HETATM   14  C   UNK N   1      33.871  16.829   7.157  0.00  0.00    -0.030 C 
HETATM   15  C   UNK N   1      33.286  15.929   6.086  0.00  0.00     0.031 C 
HETATM   16  C   UNK N   1      33.825  16.209   4.676  0.00  0.00     0.038 C 
HETATM   17  C   UNK N   1      32.977  15.502   3.635  0.00  0.00    -0.078 C 
HETATM   18  C   UNK N   1      33.560  14.348   2.895  0.00  0.00     0.043 C 
HETATM   19  C   UNK N   1      31.698  15.844   3.387  0.00  0.00     0.084 C 
HETATM   20  C   UNK N   1      31.069  17.032   3.990  0.00  0.00     0.283 C 
HETATM   21  O   UNK N   1      31.763  17.996   4.268  0.00  0.00    -0.260 OA
HETATM   22  H   UNK N   1      28.334  21.522   5.010  0.00  0.00     0.213 HD
ENDROOT
BRANCH   1  23
HETATM   23  C   UNK N   1      25.737  19.647   5.294  0.00  0.00     0.157 C 
HETATM   24  N   UNK N   1      25.481  20.577   4.228  0.00  0.00    -0.341 N 
HETATM   25  C   UNK N   1      24.598  20.145   3.310  0.00  0.00     0.280 C 
HETATM   26  H   UNK N   1      25.917  21.458   4.175  0.00  0.00     0.163 HD
HETATM   27  O   UNK N   1      24.330  20.808   2.324  0.00  0.00    -0.260 OA
HETATM   28  S   UNK N   1      23.811  18.585   3.625  0.00  0.00    -0.067 SA
HETATM   29  C   UNK N   1      25.150  18.298   4.817  0.00  0.00     0.114 C 
ENDBRANCH   1  23
TORSDOF 1
ENDMDL
MODEL 3
REMARK VINA RESULT:      -8.0      3.340      8.659
REMARK  1 active torsions:
REMARK  status: ('A' for Active; 'I' for Inactive)
REMARK    1  A    between atoms: C_7  and  C_4 
ROOT
HETATM    1  C   UNK N   1      36.198  14.796  10.905  0.00  0.00     0.185 C 
HETATM    2  O   UNK N   1      36.802  16.058  10.783  0.00  0.00    -0.363 OA
HETATM    3  C   UNK N   1      34.650  14.969  10.933  0.00  0.00     0.103 C 
HETATM    4  C   UNK N   1      34.189  15.465   9.604  0.00  0.00     0.140 C 
HETATM    5  O   UNK N   1      32.830  15.697   9.533  0.00  0.00    -0.312 OA
HETATM    6  C   UNK N   1      34.571  14.364   8.675  0.00  0.00     0.065 C 
HETATM    7  C   UNK N   1      36.083  14.394   8.566  0.00  0.00     0.127 C 
HETATM    8  O   UNK N   1      36.634  13.940   9.814  0.00  0.00    -0.348 OA
HETATM    9  C   UNK N   1      36.438  13.576   7.308  0.00  0.00     0.033 C 
HETATM   10  C   UNK N   1      36.034  14.303   5.967  0.00  0.00     0.010 C 
HETATM   11  C   UNK N   1      34.537  14.694   5.812  0.00  0.00     0.004 C 
HETATM   12  C   UNK N   1      33.675  13.438   5.820  0.00  0.00     0.014 C 
HETATM   13  C   UNK N   1      34.197  15.550   4.621  0.00  0.00    -0.026 C 
HETATM   14  C   UNK N   1      32.978  16.131   4.480  0.00  0.00    -0.030 C 
HETATM   15  C   UNK N   1      31.862  15.965   5.493  0.00  0.00     0.031 C 
HETATM   16  C   UNK N   1      31.256  17.292   5.973  0.00  0.00     0.038 C 
HETATM   17  C   UNK N   1      30.385  17.064   7.194  0.00  0.00    -0.078 C 
HETATM   18  C   UNK N   1      28.909  17.217   7.064  0.00  0.00     0.043 C 
HETATM   19  C   UNK N   1      30.888  16.679   8.383  0.00  0.00     0.084 C 
HETATM   20  C   UNK N   1      32.337  16.603   8.638  0.00  0.00     0.283 C 
HETATM   21  O   UNK N   1      33.087  17.354   8.036  0.00  0.00    -0.260 OA
HETATM   22  H   UNK N   1      37.290  16.885  10.654  0.00  0.00     0.213 HD
ENDROOT
BRANCH   1  23
HETATM   23  C   UNK N   1      36.570  14.212  12.289  0.00  0.00     0.157 C 
HETATM   24  N   UNK N   1      35.439  14.121  13.170  0.00  0.00    -0.341 N 
HETATM   25  C   UNK N   1      35.334  12.952  13.828  0.00  0.00     0.280 C 
HETATM   26  H   UNK N   1      34.793  14.855  13.284  0.00  0.00     0.163 HD
HETATM   27  O   UNK N   1      34.393  12.718  14.565  0.00  0.00    -0.260 OA
HETATM   28  S   UNK N   1      36.653  11.785  13.604  0.00  0.00    -0.067 SA
HETATM   29  C   UNK N   1      37.097  12.764  12.141  0.00  0.00     0.114 C 
ENDBRANCH   1  23
TORSDOF 1
ENDMDL
MODEL 4
REMARK VINA RESULT:      -8.0     20.637     23.195
REMARK  1 active torsions:
REMARK  status: ('A' for Active; 'I' for Inactive)
REMARK    1  A    between atoms: C_7  and  C_4 
ROOT
HETATM    1  C   UNK N   1      26.518  25.396  -4.503  0.00  0.00     0.185 C 
HETATM    2  O   UNK N   1      25.967  24.516  -3.559  0.00  0.00    -0.363 OA
HETATM    3  C   UNK N   1      28.061  25.466  -4.302  0.00  0.00     0.103 C 
HETATM    4  C   UNK N   1      28.660  24.144  -4.645  0.00  0.00     0.140 C 
HETATM    5  O   UNK N   1      30.026  24.081  -4.456  0.00  0.00    -0.312 OA
HETATM    6  C   UNK N   1      28.333  23.984  -6.090  0.00  0.00     0.065 C 
HETATM    7  C   UNK N   1      26.839  23.736  -6.172  0.00  0.00     0.127 C 
HETATM    8  O   UNK N   1      26.160  24.960  -5.843  0.00  0.00    -0.348 OA
HETATM    9  C   UNK N   1      26.580  23.149  -7.574  0.00  0.00     0.033 C 
HETATM   10  C   UNK N   1      27.130  21.679  -7.736  0.00  0.00     0.010 C 
HETATM   11  C   UNK N   1      28.646  21.469  -7.463  0.00  0.00     0.004 C 
HETATM   12  C   UNK N   1      29.464  22.278  -8.461  0.00  0.00     0.014 C 
HETATM   13  C   UNK N   1      29.122  20.042  -7.436  0.00  0.00    -0.026 C 
HETATM   14  C   UNK N   1      30.366  19.708  -7.006  0.00  0.00    -0.030 C 
HETATM   15  C   UNK N   1      31.377  20.732  -6.528  0.00  0.00     0.031 C 
HETATM   16  C   UNK N   1      31.975  20.419  -5.149  0.00  0.00     0.038 C 
HETATM   17  C   UNK N   1      32.721  21.625  -4.609  0.00  0.00    -0.078 C 
HETATM   18  C   UNK N   1      34.206  21.571  -4.516  0.00  0.00     0.043 C 
HETATM   19  C   UNK N   1      32.097  22.766  -4.256  0.00  0.00     0.084 C 
HETATM   20  C   UNK N   1      30.629  22.880  -4.215  0.00  0.00     0.283 C 
HETATM   21  O   UNK N   1      29.961  21.889  -3.967  0.00  0.00    -0.260 OA
HETATM   22  H   UNK N   1      25.518  23.890  -2.969  0.00  0.00     0.213 HD
ENDROOT
BRANCH   1  23
HETATM   23  C   UNK N   1      26.000  26.823  -4.198  0.00  0.00     0.157 C 
HETATM   24  N   UNK N   1      26.441  27.307  -2.919  0.00  0.00    -0.341 N 
HETATM   25  C   UNK N   1      26.907  28.568  -2.929  0.00  0.00     0.280 C 
HETATM   26  H   UNK N   1      26.404  26.759  -2.102  0.00  0.00     0.163 HD
HETATM   27  O   UNK N   1      27.365  29.086  -1.925  0.00  0.00    -0.260 OA
HETATM   28  S   UNK N   1      26.786  29.457  -4.461  0.00  0.00    -0.067 SA
HETATM   29  C   UNK N   1      26.550  27.831  -5.235  0.00  0.00     0.114 C 
ENDBRANCH   1  23
TORSDOF 1
ENDMDL
MODEL 5
REMARK VINA RESULT:      -7.8     13.951     15.914
REMARK  1 active torsions:
REMARK  status: ('A' for Active; 'I' for Inactive)
REMARK    1  A    between atoms: C_7  and  C_4 
ROOT
HETATM    1  C   UNK N   1      21.222  17.268   3.848  0.00  0.00     0.185 C 
HETATM    2  O   UNK N   1      20.601  16.282   3.066  0.00  0.00    -0.363 OA
HETATM    3  C   UNK N   1      20.780  17.102   5.333  0.00  0.00     0.103 C 
HETATM    4  C   UNK N   1      21.326  15.819   5.865  0.00  0.00     0.140 C 
HETATM    5  O   UNK N   1      20.954  15.549   7.166  0.00  0.00    -0.312 OA
HETATM    6  C   UNK N   1      22.801  16.014   5.783  0.00  0.00     0.065 C 
HETATM    7  C   UNK N   1      23.162  15.976   4.310  0.00  0.00     0.127 C 
HETATM    8  O   UNK N   1      22.664  17.176   3.693  0.00  0.00    -0.348 OA
HETATM    9  C   UNK N   1      24.684  15.740   4.249  0.00  0.00     0.033 C 
HETATM   10  C   UNK N   1      25.098  14.282   4.689  0.00  0.00     0.010 C 
HETATM   11  C   UNK N   1      24.656  13.833   6.110  0.00  0.00     0.004 C 
HETATM   12  C   UNK N   1      25.305  14.729   7.157  0.00  0.00     0.014 C 
HETATM   13  C   UNK N   1      24.889  12.385   6.449  0.00  0.00    -0.026 C 
HETATM   14  C   UNK N   1      24.366  11.815   7.565  0.00  0.00    -0.030 C 
HETATM   15  C   UNK N   1      23.517  12.580   8.561  0.00  0.00     0.031 C 
HETATM   16  C   UNK N   1      22.175  11.907   8.881  0.00  0.00     0.038 C 
HETATM   17  C   UNK N   1      21.264  12.868   9.623  0.00  0.00    -0.078 C 
HETATM   18  C   UNK N   1      20.964  12.611  11.059  0.00  0.00     0.043 C 
HETATM   19  C   UNK N   1      20.755  13.975   9.048  0.00  0.00     0.084 C 
HETATM   20  C   UNK N   1      20.909  14.259   7.611  0.00  0.00     0.283 C 
HETATM   21  O   UNK N   1      21.001  13.328   6.827  0.00  0.00    -0.260 OA
HETATM   22  H   UNK N   1      20.247  15.605   2.469  0.00  0.00     0.213 HD
ENDROOT
BRANCH   1  23
HETATM   23  C   UNK N   1      20.676  18.649   3.411  0.00  0.00     0.157 C 
HETATM   24  N   UNK N   1      21.585  19.721   3.714  0.00  0.00    -0.341 N 
HETATM   25  C   UNK N   1      21.764  20.601   2.713  0.00  0.00     0.280 C 
HETATM   26  H   UNK N   1      22.038  19.804   4.583  0.00  0.00     0.163 HD
HETATM   27  O   UNK N   1      22.550  21.527   2.812  0.00  0.00    -0.260 OA
HETATM   28  S   UNK N   1      20.774  20.374   1.257  0.00  0.00    -0.067 SA
HETATM   29  C   UNK N   1      20.481  18.693   1.877  0.00  0.00     0.114 C 
ENDBRANCH   1  23
TORSDOF 1
ENDMDL
MODEL 6
REMARK VINA RESULT:      -7.6      3.589      9.506
REMARK  1 active torsions:
REMARK  status: ('A' for Active; 'I' for Inactive)
REMARK    1  A    between atoms: C_7  and  C_4 
ROOT
HETATM    1  C   UNK N   1      35.161  14.464  10.618  0.00  0.00     0.185 C 
HETATM    2  O   UNK N   1      33.970  14.112  11.272  0.00  0.00    -0.363 OA
HETATM    3  C   UNK N   1      35.314  13.602   9.329  0.00  0.00     0.103 C 
HETATM    4  C   UNK N   1      34.244  13.975   8.360  0.00  0.00     0.140 C 
HETATM    5  O   UNK N   1      34.259  13.235   7.196  0.00  0.00    -0.312 OA
HETATM    6  C   UNK N   1      34.534  15.406   8.063  0.00  0.00     0.065 C 
HETATM    7  C   UNK N   1      34.179  16.189   9.312  0.00  0.00     0.127 C 
HETATM    8  O   UNK N   1      35.154  15.888  10.326  0.00  0.00    -0.348 OA
HETATM    9  C   UNK N   1      34.060  17.663   8.875  0.00  0.00     0.033 C 
HETATM   10  C   UNK N   1      32.787  17.939   7.984  0.00  0.00     0.010 C 
HETATM   11  C   UNK N   1      32.652  17.097   6.684  0.00  0.00     0.004 C 
HETATM   12  C   UNK N   1      33.820  17.398   5.754  0.00  0.00     0.014 C 
HETATM   13  C   UNK N   1      31.349  17.231   5.942  0.00  0.00    -0.026 C 
HETATM   14  C   UNK N   1      31.019  16.405   4.916  0.00  0.00    -0.030 C 
HETATM   15  C   UNK N   1      31.926  15.292   4.429  0.00  0.00     0.031 C 
HETATM   16  C   UNK N   1      31.239  13.921   4.349  0.00  0.00     0.038 C 
HETATM   17  C   UNK N   1      32.270  12.823   4.164  0.00  0.00    -0.078 C 
HETATM   18  C   UNK N   1      32.337  12.111   2.857  0.00  0.00     0.043 C 
HETATM   19  C   UNK N   1      33.164  12.498   5.118  0.00  0.00     0.084 C 
HETATM   20  C   UNK N   1      33.112  13.070   6.474  0.00  0.00     0.283 C 
HETATM   21  O   UNK N   1      32.033  13.400   6.940  0.00  0.00    -0.260 OA
HETATM   22  H   UNK N   1      33.144  13.957  11.756  0.00  0.00     0.213 HD
ENDROOT
BRANCH   1  23
HETATM   23  C   UNK N   1      36.350  14.062  11.524  0.00  0.00     0.157 C 
HETATM   24  N   UNK N   1      36.344  14.758  12.782  0.00  0.00    -0.341 N 
HETATM   25  C   UNK N   1      36.571  13.978  13.853  0.00  0.00     0.280 C 
HETATM   26  H   UNK N   1      36.187  15.727  12.852  0.00  0.00     0.163 HD
HETATM   27  O   UNK N   1      36.538  14.426  14.986  0.00  0.00    -0.260 OA
HETATM   28  S   UNK N   1      36.961  12.275  13.538  0.00  0.00    -0.067 SA
HETATM   29  C   UNK N   1      36.273  12.559  11.882  0.00  0.00     0.114 C 
ENDBRANCH   1  23
TORSDOF 1
ENDMDL
MODEL 7
REMARK VINA RESULT:      -7.5     19.166     23.666
REMARK  1 active torsions:
REMARK  status: ('A' for Active; 'I' for Inactive)
REMARK    1  A    between atoms: C_7  and  C_4 
ROOT
HETATM    1  C   UNK N   1      31.275  23.304  -5.803  0.00  0.00     0.185 C 
HETATM    2  O   UNK N   1      31.622  23.940  -7.005  0.00  0.00    -0.363 OA
HETATM    3  C   UNK N   1      31.155  24.370  -4.673  0.00  0.00     0.103 C 
HETATM    4  C   UNK N   1      29.994  25.260  -4.961  0.00  0.00     0.140 C 
HETATM    5  O   UNK N   1      29.825  26.275  -4.041  0.00  0.00    -0.312 OA
HETATM    6  C   UNK N   1      28.831  24.331  -4.921  0.00  0.00     0.065 C 
HETATM    7  C   UNK N   1      28.930  23.457  -6.157  0.00  0.00     0.127 C 
HETATM    8  O   UNK N   1      30.040  22.559  -5.985  0.00  0.00    -0.348 OA
HETATM    9  C   UNK N   1      27.539  22.820  -6.344  0.00  0.00     0.033 C 
HETATM   10  C   UNK N   1      26.444  23.858  -6.807  0.00  0.00     0.010 C 
HETATM   11  C   UNK N   1      26.226  25.094  -5.890  0.00  0.00     0.004 C 
HETATM   12  C   UNK N   1      25.739  24.637  -4.520  0.00  0.00     0.014 C 
HETATM   13  C   UNK N   1      25.320  26.168  -6.431  0.00  0.00    -0.026 C 
HETATM   14  C   UNK N   1      25.208  27.381  -5.832  0.00  0.00    -0.030 C 
HETATM   15  C   UNK N   1      25.971  27.756  -4.576  0.00  0.00     0.031 C 
HETATM   16  C   UNK N   1      26.751  29.073  -4.692  0.00  0.00     0.038 C 
HETATM   17  C   UNK N   1      27.723  29.215  -3.535  0.00  0.00    -0.078 C 
HETATM   18  C   UNK N   1      27.458  30.249  -2.496  0.00  0.00     0.043 C 
HETATM   19  C   UNK N   1      28.791  28.409  -3.381  0.00  0.00     0.084 C 
HETATM   20  C   UNK N   1      29.194  27.430  -4.405  0.00  0.00     0.283 C 
HETATM   21  O   UNK N   1      28.951  27.662  -5.578  0.00  0.00    -0.260 OA
HETATM   22  H   UNK N   1      31.816  24.310  -7.880  0.00  0.00     0.213 HD
ENDROOT
BRANCH   1  23
HETATM   23  C   UNK N   1      32.449  22.389  -5.380  0.00  0.00     0.157 C 
HETATM   24  N   UNK N   1      32.717  22.452  -3.970  0.00  0.00    -0.341 N 
HETATM   25  C   UNK N   1      32.897  21.256  -3.381  0.00  0.00     0.280 C 
HETATM   26  H   UNK N   1      32.765  23.301  -3.475  0.00  0.00     0.163 HD
HETATM   27  O   UNK N   1      33.076  21.159  -2.179  0.00  0.00    -0.260 OA
HETATM   28  S   UNK N   1      32.904  19.832  -4.441  0.00  0.00    -0.067 SA
HETATM   29  C   UNK N   1      32.113  20.907  -5.672  0.00  0.00     0.114 C 
ENDBRANCH   1  23
TORSDOF 1
ENDMDL
MODEL 8
REMARK VINA RESULT:      -7.5      7.544     10.909
REMARK  1 active torsions:
REMARK  status: ('A' for Active; 'I' for Inactive)
REMARK    1  A    between atoms: C_7  and  C_4 
ROOT
HETATM    1  C   UNK N   1      27.729  17.144   5.358  0.00  0.00     0.185 C 
HETATM    2  O   UNK N   1      27.366  15.834   5.706  0.00  0.00    -0.363 OA
HETATM    3  C   UNK N   1      28.639  17.739   6.475  0.00  0.00     0.103 C 
HETATM    4  C   UNK N   1      29.933  16.997   6.498  0.00  0.00     0.140 C 
HETATM    5  O   UNK N   1      30.800  17.415   7.487  0.00  0.00    -0.312 OA
HETATM    6  C   UNK N   1      30.513  17.276   5.154  0.00  0.00     0.065 C 
HETATM    7  C   UNK N   1      29.675  16.507   4.152  0.00  0.00     0.127 C 
HETATM    8  O   UNK N   1      28.386  17.140   4.062  0.00  0.00    -0.348 OA
HETATM    9  C   UNK N   1      30.510  16.438   2.858  0.00  0.00     0.033 C 
HETATM   10  C   UNK N   1      31.762  15.486   2.984  0.00  0.00     0.010 C 
HETATM   11  C   UNK N   1      32.769  15.809   4.124  0.00  0.00     0.004 C 
HETATM   12  C   UNK N   1      33.379  17.185   3.895  0.00  0.00     0.014 C 
HETATM   13  C   UNK N   1      33.854  14.791   4.356  0.00  0.00    -0.026 C 
HETATM   14  C   UNK N   1      34.667  14.844   5.442  0.00  0.00    -0.030 C 
HETATM   15  C   UNK N   1      34.560  15.923   6.502  0.00  0.00     0.031 C 
HETATM   16  C   UNK N   1      34.455  15.380   7.934  0.00  0.00     0.038 C 
HETATM   17  C   UNK N   1      34.038  16.483   8.889  0.00  0.00    -0.078 C 
HETATM   18  C   UNK N   1      35.030  16.992   9.877  0.00  0.00     0.043 C 
HETATM   19  C   UNK N   1      32.821  17.059   8.847  0.00  0.00     0.084 C 
HETATM   20  C   UNK N   1      31.742  16.558   7.978  0.00  0.00     0.283 C 
HETATM   21  O   UNK N   1      31.705  15.369   7.701  0.00  0.00    -0.260 OA
HETATM   22  H   UNK N   1      27.109  14.911   5.854  0.00  0.00     0.213 HD
ENDROOT
BRANCH   1  23
HETATM   23  C   UNK N   1      26.453  18.020   5.361  0.00  0.00     0.157 C 
HETATM   24  N   UNK N   1      26.613  19.225   6.126  0.00  0.00    -0.341 N 
HETATM   25  C   UNK N   1      26.156  20.336   5.522  0.00  0.00     0.280 C 
HETATM   26  H   UNK N   1      27.024  19.237   7.020  0.00  0.00     0.163 HD
HETATM   27  O   UNK N   1      26.278  21.436   6.033  0.00  0.00    -0.260 OA
HETATM   28  S   UNK N   1      25.329  20.121   3.965  0.00  0.00    -0.067 SA
HETATM   29  C   UNK N   1      26.112  18.483   3.925  0.00  0.00     0.114 C 
ENDBRANCH   1  23
TORSDOF 1
ENDMDL
MODEL 9
REMARK VINA RESULT:      -7.2      2.206      2.468
REMARK  1 active torsions:
REMARK  status: ('A' for Active; 'I' for Inactive)
REMARK    1  A    between atoms: C_7  and  C_4 
ROOT
HETATM    1  C   UNK N   1      36.907  12.943   9.984  0.00  0.00     0.185 C 
HETATM    2  O   UNK N   1      35.585  12.615   9.645  0.00  0.00    -0.363 OA
HETATM    3  C   UNK N   1      36.909  13.785  11.295  0.00  0.00     0.103 C 
HETATM    4  C   UNK N   1      36.446  12.930  12.426  0.00  0.00     0.140 C 
HETATM    5  O   UNK N   1      36.366  13.593  13.633  0.00  0.00    -0.312 OA
HETATM    6  C   UNK N   1      37.483  11.862  12.495  0.00  0.00     0.065 C 
HETATM    7  C   UNK N   1      37.284  10.984  11.274  0.00  0.00     0.127 C 
HETATM    8  O   UNK N   1      37.693  11.728  10.113  0.00  0.00    -0.348 OA
HETATM    9  C   UNK N   1      38.038   9.671  11.564  0.00  0.00     0.033 C 
HETATM   10  C   UNK N   1      37.340   8.792  12.673  0.00  0.00     0.010 C 
HETATM   11  C   UNK N   1      37.116   9.467  14.055  0.00  0.00     0.004 C 
HETATM   12  C   UNK N   1      38.459   9.833  14.672  0.00  0.00     0.014 C 
HETATM   13  C   UNK N   1      36.285   8.692  15.043  0.00  0.00    -0.026 C 
HETATM   14  C   UNK N   1      35.840   9.248  16.199  0.00  0.00    -0.030 C 
HETATM   15  C   UNK N   1      36.145  10.679  16.598  0.00  0.00     0.031 C 
HETATM   16  C   UNK N   1      34.901  11.497  16.974  0.00  0.00     0.038 C 
HETATM   17  C   UNK N   1      35.243  12.974  17.050  0.00  0.00    -0.078 C 
HETATM   18  C   UNK N   1      35.253  13.642  18.381  0.00  0.00     0.043 C 
HETATM   19  C   UNK N   1      35.588  13.696  15.967  0.00  0.00     0.084 C 
HETATM   20  C   UNK N   1      35.507  13.153  14.600  0.00  0.00     0.283 C 
HETATM   21  O   UNK N   1      34.668  12.304  14.345  0.00  0.00    -0.260 OA
HETATM   22  H   UNK N   1      34.706  12.311   9.371  0.00  0.00     0.213 HD
ENDROOT
BRANCH   1  23
HETATM   23  C   UNK N   1      37.469  13.886   8.891  0.00  0.00     0.157 C 
HETATM   24  N   UNK N   1      38.888  13.740   8.715  0.00  0.00    -0.341 N 
HETATM   25  C   UNK N   1      39.287  13.666   7.433  0.00  0.00     0.280 C 
HETATM   26  H   UNK N   1      39.516  13.699   9.471  0.00  0.00     0.163 HD
HETATM   27  O   UNK N   1      40.456  13.487   7.139  0.00  0.00    -0.260 OA
HETATM   28  S   UNK N   1      38.038  13.885   6.190  0.00  0.00    -0.067 SA
HETATM   29  C   UNK N   1      36.844  13.552   7.516  0.00  0.00     0.114 C 
ENDBRANCH   1  23
TORSDOF 1
ENDMDL
