MODEL 1
REMARK VINA RESULT:      -5.6      0.000      0.000
REMARK  7 active torsions:
REMARK  status: ('A' for Active; 'I' for Inactive)
REMARK    1  A    between atoms: C_1  and  N_7 
REMARK       I    between atoms: N_7  and  C_8 
REMARK    2  A    between atoms: C_8  and  C_9 
REMARK    3  A    between atoms: C_9  and  C_10 
REMARK    4  A    between atoms: C_10  and  C_11 
REMARK    5  A    between atoms: C_11  and  C_12 
REMARK    6  A    between atoms: C_12  and  C_13 
REMARK    7  A    between atoms: C_13  and  C_14 
ROOT
HETATM    1  N   UNK N   1      20.639  15.598   8.355  0.00  0.00    -0.347 N 
HETATM    2  C   UNK N   1      19.980  14.869   9.297  0.00  0.00     0.225 C 
HETATM    3  O   UNK N   1      18.828  15.116   9.609  0.00  0.00    -0.273 OA
HETATM    4  H   UNK N   1      21.581  15.349   8.209  0.00  0.00     0.163 HD
ENDROOT
BRANCH   2   5
HETATM    5  C   UNK N   1      20.675  13.690   9.908  0.00  0.00     0.181 C 
BRANCH   5   6
HETATM    6  C   UNK N   1      21.577  12.991   8.921  0.00  0.00     0.135 C 
HETATM    7  O   UNK N   1      21.108  12.337   8.000  0.00  0.00    -0.297 OA
BRANCH   6   8
HETATM    8  C   UNK N   1      23.058  13.135   9.020  0.00  0.00     0.079 C 
BRANCH   8   9
HETATM    9  C   UNK N   1      23.720  11.792   9.271  0.00  0.00     0.007 C 
BRANCH   9  10
HETATM   10  C   UNK N   1      23.247  11.229  10.599  0.00  0.00     0.000 C 
BRANCH  10  11
HETATM   11  C   UNK N   1      23.961  11.929  11.742  0.00  0.00    -0.005 C 
HETATM   12  C   UNK N   1      23.098  11.893  12.985  0.00  0.00     0.005 C 
ENDBRANCH  10  11
ENDBRANCH   9  10
ENDBRANCH   8   9
ENDBRANCH   6   8
ENDBRANCH   5   6
ENDBRANCH   2   5
BRANCH   1  13
HETATM   13  C   UNK N   1      20.145  16.697   7.532  0.00  0.00     0.186 C 
HETATM   14  C   UNK N   1      20.296  18.078   8.047  0.00  0.00     0.281 C 
HETATM   15  O   UNK N   1      20.945  18.894   7.220  0.00  0.00    -0.320 OA
HETATM   16  O   UNK N   1      19.774  18.482   9.077  0.00  0.00    -0.263 OA
HETATM   17  C   UNK N   1      21.323  18.269   6.058  0.00  0.00     0.181 C 
HETATM   18  C   UNK N   1      20.950  16.786   6.235  0.00  0.00     0.062 C 
ENDBRANCH   1  13
TORSDOF 7
ENDMDL
MODEL 2
REMARK VINA RESULT:      -5.5     12.880     14.020
REMARK  7 active torsions:
REMARK  status: ('A' for Active; 'I' for Inactive)
REMARK    1  A    between atoms: C_1  and  N_7 
REMARK       I    between atoms: N_7  and  C_8 
REMARK    2  A    between atoms: C_8  and  C_9 
REMARK    3  A    between atoms: C_9  and  C_10 
REMARK    4  A    between atoms: C_10  and  C_11 
REMARK    5  A    between atoms: C_11  and  C_12 
REMARK    6  A    between atoms: C_12  and  C_13 
REMARK    7  A    between atoms: C_13  and  C_14 
ROOT
HETATM    1  N   UNK N   1      34.875  16.155   9.393  0.00  0.00    -0.347 N 
HETATM    2  C   UNK N   1      35.455  16.345  10.610  0.00  0.00     0.225 C 
HETATM    3  O   UNK N   1      35.312  17.383  11.234  0.00  0.00    -0.273 OA
HETATM    4  H   UNK N   1      35.089  15.302   8.950  0.00  0.00     0.163 HD
ENDROOT
BRANCH   2   5
HETATM    5  C   UNK N   1      36.229  15.216  11.220  0.00  0.00     0.181 C 
BRANCH   5   6
HETATM    6  C   UNK N   1      35.324  14.191  11.860  0.00  0.00     0.135 C 
HETATM    7  O   UNK N   1      34.113  14.236  11.696  0.00  0.00    -0.297 OA
BRANCH   6   8
HETATM    8  C   UNK N   1      35.901  13.071  12.658  0.00  0.00     0.079 C 
BRANCH   8   9
HETATM    9  C   UNK N   1      36.393  13.560  14.007  0.00  0.00     0.007 C 
BRANCH   9  10
HETATM   10  C   UNK N   1      35.394  13.180  15.085  0.00  0.00     0.000 C 
BRANCH  10  11
HETATM   11  C   UNK N   1      35.947  13.539  16.453  0.00  0.00    -0.005 C 
HETATM   12  C   UNK N   1      34.977  13.104  17.530  0.00  0.00     0.005 C 
ENDBRANCH  10  11
ENDBRANCH   9  10
ENDBRANCH   8   9
ENDBRANCH   6   8
ENDBRANCH   5   6
ENDBRANCH   2   5
BRANCH   1  13
HETATM   13  C   UNK N   1      33.978  17.038   8.655  0.00  0.00     0.186 C 
HETATM   14  C   UNK N   1      34.574  18.170   7.906  0.00  0.00     0.281 C 
HETATM   15  O   UNK N   1      34.255  18.188   6.614  0.00  0.00    -0.320 OA
HETATM   16  O   UNK N   1      35.201  19.079   8.430  0.00  0.00    -0.263 OA
HETATM   17  C   UNK N   1      33.427  17.151   6.264  0.00  0.00     0.181 C 
HETATM   18  C   UNK N   1      33.300  16.270   7.521  0.00  0.00     0.062 C 
ENDBRANCH   1  13
TORSDOF 7
ENDMDL
MODEL 3
REMARK VINA RESULT:      -5.4     16.923     19.148
REMARK  7 active torsions:
REMARK  status: ('A' for Active; 'I' for Inactive)
REMARK    1  A    between atoms: C_1  and  N_7 
REMARK       I    between atoms: N_7  and  C_8 
REMARK    2  A    between atoms: C_8  and  C_9 
REMARK    3  A    between atoms: C_9  and  C_10 
REMARK    4  A    between atoms: C_10  and  C_11 
REMARK    5  A    between atoms: C_11  and  C_12 
REMARK    6  A    between atoms: C_12  and  C_13 
REMARK    7  A    between atoms: C_13  and  C_14 
ROOT
HETATM    1  N   UNK N   1      28.470  23.972  -3.661  0.00  0.00    -0.347 N 
HETATM    2  C   UNK N   1      28.054  25.260  -3.801  0.00  0.00     0.225 C 
HETATM    3  O   UNK N   1      28.836  26.164  -4.047  0.00  0.00    -0.273 OA
HETATM    4  H   UNK N   1      27.770  23.324  -3.417  0.00  0.00     0.163 HD
ENDROOT
BRANCH   2   5
HETATM    5  C   UNK N   1      26.587  25.554  -3.719  0.00  0.00     0.181 C 
BRANCH   5   6
HETATM    6  C   UNK N   1      25.854  25.121  -4.964  0.00  0.00     0.135 C 
HETATM    7  O   UNK N   1      25.760  23.938  -5.256  0.00  0.00    -0.297 OA
BRANCH   6   8
HETATM    8  C   UNK N   1      25.180  26.131  -5.831  0.00  0.00     0.079 C 
BRANCH   8   9
HETATM    9  C   UNK N   1      25.886  27.472  -5.753  0.00  0.00     0.007 C 
BRANCH   9  10
HETATM   10  C   UNK N   1      27.001  27.524  -6.781  0.00  0.00     0.000 C 
BRANCH  10  11
HETATM   11  C   UNK N   1      27.813  28.795  -6.601  0.00  0.00    -0.005 C 
HETATM   12  C   UNK N   1      27.469  29.440  -5.276  0.00  0.00     0.005 C 
ENDBRANCH  10  11
ENDBRANCH   9  10
ENDBRANCH   8   9
ENDBRANCH   6   8
ENDBRANCH   5   6
ENDBRANCH   2   5
BRANCH   1  13
HETATM   13  C   UNK N   1      29.809  23.415  -3.824  0.00  0.00     0.186 C 
HETATM   14  C   UNK N   1      30.372  22.613  -2.712  0.00  0.00     0.281 C 
HETATM   15  O   UNK N   1      30.759  21.392  -3.072  0.00  0.00    -0.320 OA
HETATM   16  O   UNK N   1      30.582  23.054  -1.592  0.00  0.00    -0.263 OA
HETATM   17  C   UNK N   1      30.560  21.151  -4.408  0.00  0.00     0.181 C 
HETATM   18  C   UNK N   1      29.818  22.386  -4.953  0.00  0.00     0.062 C 
ENDBRANCH   1  13
TORSDOF 7
ENDMDL
MODEL 4
REMARK VINA RESULT:      -5.3     10.789     12.667
REMARK  7 active torsions:
REMARK  status: ('A' for Active; 'I' for Inactive)
REMARK    1  A    between atoms: C_1  and  N_7 
REMARK       I    between atoms: N_7  and  C_8 
REMARK    2  A    between atoms: C_8  and  C_9 
REMARK    3  A    between atoms: C_9  and  C_10 
REMARK    4  A    between atoms: C_10  and  C_11 
REMARK    5  A    between atoms: C_11  and  C_12 
REMARK    6  A    between atoms: C_12  and  C_13 
REMARK    7  A    between atoms: C_13  and  C_14 
ROOT
HETATM    1  N   UNK N   1      33.193  16.922   7.140  0.00  0.00    -0.347 N 
HETATM    2  C   UNK N   1      32.887  17.391   5.899  0.00  0.00     0.225 C 
HETATM    3  O   UNK N   1      33.728  17.907   5.183  0.00  0.00    -0.273 OA
HETATM    4  H   UNK N   1      32.434  16.567   7.658  0.00  0.00     0.163 HD
ENDROOT
BRANCH   2   5
HETATM    5  C   UNK N   1      31.493  17.200   5.383  0.00  0.00     0.181 C 
BRANCH   5   6
HETATM    6  C   UNK N   1      30.583  16.595   6.424  0.00  0.00     0.135 C 
HETATM    7  O   UNK N   1      30.729  15.436   6.785  0.00  0.00    -0.297 OA
BRANCH   6   8
HETATM    8  C   UNK N   1      29.525  17.423   7.071  0.00  0.00     0.079 C 
BRANCH   8   9
HETATM    9  C   UNK N   1      28.689  18.148   6.033  0.00  0.00     0.007 C 
BRANCH   9  10
HETATM   10  C   UNK N   1      27.899  19.261   6.697  0.00  0.00     0.000 C 
BRANCH  10  11
HETATM   11  C   UNK N   1      27.568  20.339   5.680  0.00  0.00    -0.005 C 
HETATM   12  C   UNK N   1      27.040  21.568   6.387  0.00  0.00     0.005 C 
ENDBRANCH  10  11
ENDBRANCH   9  10
ENDBRANCH   8   9
ENDBRANCH   6   8
ENDBRANCH   5   6
ENDBRANCH   2   5
BRANCH   1  13
HETATM   13  C   UNK N   1      34.488  16.872   7.810  0.00  0.00     0.186 C 
HETATM   14  C   UNK N   1      34.866  18.006   8.686  0.00  0.00     0.281 C 
HETATM   15  O   UNK N   1      35.180  17.645   9.929  0.00  0.00    -0.320 OA
HETATM   16  O   UNK N   1      35.000  19.156   8.293  0.00  0.00    -0.263 OA
HETATM   17  C   UNK N   1      35.094  16.288  10.118  0.00  0.00     0.181 C 
HETATM   18  C   UNK N   1      34.520  15.716   8.808  0.00  0.00     0.062 C 
ENDBRANCH   1  13
TORSDOF 7
ENDMDL
MODEL 5
REMARK VINA RESULT:      -5.2     14.484     15.853
REMARK  7 active torsions:
REMARK  status: ('A' for Active; 'I' for Inactive)
REMARK    1  A    between atoms: C_1  and  N_7 
REMARK       I    between atoms: N_7  and  C_8 
REMARK    2  A    between atoms: C_8  and  C_9 
REMARK    3  A    between atoms: C_9  and  C_10 
REMARK    4  A    between atoms: C_10  and  C_11 
REMARK    5  A    between atoms: C_11  and  C_12 
REMARK    6  A    between atoms: C_12  and  C_13 
REMARK    7  A    between atoms: C_13  and  C_14 
ROOT
HETATM    1  N   UNK N   1      37.050  13.619  12.762  0.00  0.00    -0.347 N 
HETATM    2  C   UNK N   1      36.032  13.739  13.658  0.00  0.00     0.225 C 
HETATM    3  O   UNK N   1      34.864  13.757  13.305  0.00  0.00    -0.273 OA
HETATM    4  H   UNK N   1      37.957  13.663  13.144  0.00  0.00     0.163 HD
ENDROOT
BRANCH   2   5
HETATM    5  C   UNK N   1      36.362  13.778  15.119  0.00  0.00     0.181 C 
BRANCH   5   6
HETATM    6  C   UNK N   1      35.522  12.809  15.915  0.00  0.00     0.135 C 
HETATM    7  O   UNK N   1      34.612  13.208  16.627  0.00  0.00    -0.297 OA
BRANCH   6   8
HETATM    8  C   UNK N   1      35.753  11.340  15.798  0.00  0.00     0.079 C 
BRANCH   8   9
HETATM    9  C   UNK N   1      34.442  10.577  15.843  0.00  0.00     0.007 C 
BRANCH   9  10
HETATM   10  C   UNK N   1      33.746  10.677  14.498  0.00  0.00     0.000 C 
BRANCH  10  11
HETATM   11  C   UNK N   1      34.550   9.938  13.443  0.00  0.00    -0.005 C 
HETATM   12  C   UNK N   1      34.265  10.522  12.076  0.00  0.00     0.005 C 
ENDBRANCH  10  11
ENDBRANCH   9  10
ENDBRANCH   8   9
ENDBRANCH   6   8
ENDBRANCH   5   6
ENDBRANCH   2   5
BRANCH   1  13
HETATM   13  C   UNK N   1      36.985  13.435  11.317  0.00  0.00     0.186 C 
HETATM   14  C   UNK N   1      37.294  14.596  10.450  0.00  0.00     0.281 C 
HETATM   15  O   UNK N   1      38.263  14.366   9.566  0.00  0.00    -0.320 OA
HETATM   16  O   UNK N   1      36.650  15.635  10.447  0.00  0.00    -0.263 OA
HETATM   17  C   UNK N   1      38.755  13.088   9.650  0.00  0.00     0.181 C 
HETATM   18  C   UNK N   1      38.058  12.446  10.864  0.00  0.00     0.062 C 
ENDBRANCH   1  13
TORSDOF 7
ENDMDL
MODEL 6
REMARK VINA RESULT:      -5.0     16.979     18.961
REMARK  7 active torsions:
REMARK  status: ('A' for Active; 'I' for Inactive)
REMARK    1  A    between atoms: C_1  and  N_7 
REMARK       I    between atoms: N_7  and  C_8 
REMARK    2  A    between atoms: C_8  and  C_9 
REMARK    3  A    between atoms: C_9  and  C_10 
REMARK    4  A    between atoms: C_10  and  C_11 
REMARK    5  A    between atoms: C_11  and  C_12 
REMARK    6  A    between atoms: C_12  and  C_13 
REMARK    7  A    between atoms: C_13  and  C_14 
ROOT
HETATM    1  N   UNK N   1      28.136  24.585  -4.316  0.00  0.00    -0.347 N 
HETATM    2  C   UNK N   1      26.879  24.403  -3.828  0.00  0.00     0.225 C 
HETATM    3  O   UNK N   1      26.662  24.312  -2.631  0.00  0.00    -0.273 OA
HETATM    4  H   UNK N   1      28.212  24.598  -5.298  0.00  0.00     0.163 HD
ENDROOT
BRANCH   2   5
HETATM    5  C   UNK N   1      25.730  24.386  -4.790  0.00  0.00     0.181 C 
BRANCH   5   6
HETATM    6  C   UNK N   1      26.160  24.754  -6.189  0.00  0.00     0.135 C 
HETATM    7  O   UNK N   1      26.913  24.030  -6.823  0.00  0.00    -0.297 OA
BRANCH   6   8
HETATM    8  C   UNK N   1      25.623  25.983  -6.842  0.00  0.00     0.079 C 
BRANCH   8   9
HETATM    9  C   UNK N   1      25.026  26.929  -5.816  0.00  0.00     0.007 C 
BRANCH   9  10
HETATM   10  C   UNK N   1      26.082  27.915  -5.353  0.00  0.00     0.000 C 
BRANCH  10  11
HETATM   11  C   UNK N   1      25.895  28.219  -3.876  0.00  0.00    -0.005 C 
HETATM   12  C   UNK N   1      26.373  29.622  -3.576  0.00  0.00     0.005 C 
ENDBRANCH  10  11
ENDBRANCH   9  10
ENDBRANCH   8   9
ENDBRANCH   6   8
ENDBRANCH   5   6
ENDBRANCH   2   5
BRANCH   1  13
HETATM   13  C   UNK N   1      29.388  24.764  -3.588  0.00  0.00     0.186 C 
HETATM   14  C   UNK N   1      30.062  23.558  -3.052  0.00  0.00     0.281 C 
HETATM   15  O   UNK N   1      31.322  23.420  -3.458  0.00  0.00    -0.320 OA
HETATM   16  O   UNK N   1      29.567  22.814  -2.218  0.00  0.00    -0.263 OA
HETATM   17  C   UNK N   1      31.722  24.443  -4.281  0.00  0.00     0.181 C 
HETATM   18  C   UNK N   1      30.469  25.304  -4.524  0.00  0.00     0.062 C 
ENDBRANCH   1  13
TORSDOF 7
ENDMDL
MODEL 7
REMARK VINA RESULT:      -5.0     10.309     12.240
REMARK  7 active torsions:
REMARK  status: ('A' for Active; 'I' for Inactive)
REMARK    1  A    between atoms: C_1  and  N_7 
REMARK       I    between atoms: N_7  and  C_8 
REMARK    2  A    between atoms: C_8  and  C_9 
REMARK    3  A    between atoms: C_9  and  C_10 
REMARK    4  A    between atoms: C_10  and  C_11 
REMARK    5  A    between atoms: C_11  and  C_12 
REMARK    6  A    between atoms: C_12  and  C_13 
REMARK    7  A    between atoms: C_13  and  C_14 
ROOT
HETATM    1  N   UNK N   1      32.390  17.116   8.957  0.00  0.00    -0.347 N 
HETATM    2  C   UNK N   1      31.344  16.606   8.249  0.00  0.00     0.225 C 
HETATM    3  O   UNK N   1      31.514  15.841   7.315  0.00  0.00    -0.273 OA
HETATM    4  H   UNK N   1      32.150  17.762   9.661  0.00  0.00     0.163 HD
ENDROOT
BRANCH   2   5
HETATM    5  C   UNK N   1      29.951  16.945   8.683  0.00  0.00     0.181 C 
BRANCH   5   6
HETATM    6  C   UNK N   1      29.672  18.425   8.584  0.00  0.00     0.135 C 
HETATM    7  O   UNK N   1      30.349  19.232   9.205  0.00  0.00    -0.297 OA
BRANCH   6   8
HETATM    8  C   UNK N   1      28.599  18.931   7.680  0.00  0.00     0.079 C 
BRANCH   8   9
HETATM    9  C   UNK N   1      28.178  17.865   6.686  0.00  0.00     0.007 C 
BRANCH   9  10
HETATM   10  C   UNK N   1      28.793  18.158   5.329  0.00  0.00     0.000 C 
BRANCH  10  11
HETATM   11  C   UNK N   1      27.698  18.414   4.309  0.00  0.00    -0.005 C 
HETATM   12  C   UNK N   1      27.499  19.904   4.131  0.00  0.00     0.005 C 
ENDBRANCH  10  11
ENDBRANCH   9  10
ENDBRANCH   8   9
ENDBRANCH   6   8
ENDBRANCH   5   6
ENDBRANCH   2   5
BRANCH   1  13
HETATM   13  C   UNK N   1      33.816  16.839   8.818  0.00  0.00     0.186 C 
HETATM   14  C   UNK N   1      34.767  17.955   9.030  0.00  0.00     0.281 C 
HETATM   15  O   UNK N   1      35.691  17.707   9.956  0.00  0.00    -0.320 OA
HETATM   16  O   UNK N   1      34.794  18.967   8.345  0.00  0.00    -0.263 OA
HETATM   17  C   UNK N   1      35.560  16.455  10.504  0.00  0.00     0.181 C 
HETATM   18  C   UNK N   1      34.271  15.865   9.904  0.00  0.00     0.062 C 
ENDBRANCH   1  13
TORSDOF 7
ENDMDL
MODEL 8
REMARK VINA RESULT:      -4.8     11.049     12.753
REMARK  7 active torsions:
REMARK  status: ('A' for Active; 'I' for Inactive)
REMARK    1  A    between atoms: C_1  and  N_7 
REMARK       I    between atoms: N_7  and  C_8 
REMARK    2  A    between atoms: C_8  and  C_9 
REMARK    3  A    between atoms: C_9  and  C_10 
REMARK    4  A    between atoms: C_10  and  C_11 
REMARK    5  A    between atoms: C_11  and  C_12 
REMARK    6  A    between atoms: C_12  and  C_13 
REMARK    7  A    between atoms: C_13  and  C_14 
ROOT
HETATM    1  N   UNK N   1      33.917  16.029   7.833  0.00  0.00    -0.347 N 
HETATM    2  C   UNK N   1      33.825  16.985   6.868  0.00  0.00     0.225 C 
HETATM    3  O   UNK N   1      34.703  17.815   6.702  0.00  0.00    -0.273 OA
HETATM    4  H   UNK N   1      33.135  15.435   7.917  0.00  0.00     0.163 HD
ENDROOT
BRANCH   2   5
HETATM    5  C   UNK N   1      32.644  16.963   5.946  0.00  0.00     0.181 C 
BRANCH   5   6
HETATM    6  C   UNK N   1      31.342  17.115   6.692  0.00  0.00     0.135 C 
HETATM    7  O   UNK N   1      31.326  17.510   7.849  0.00  0.00    -0.297 OA
BRANCH   6   8
HETATM    8  C   UNK N   1      30.045  16.840   6.008  0.00  0.00     0.079 C 
BRANCH   8   9
HETATM    9  C   UNK N   1      28.957  17.774   6.507  0.00  0.00     0.007 C 
BRANCH   9  10
HETATM   10  C   UNK N   1      27.851  16.967   7.162  0.00  0.00     0.000 C 
BRANCH  10  11
HETATM   11  C   UNK N   1      27.902  17.148   8.669  0.00  0.00    -0.005 C 
HETATM   12  C   UNK N   1      28.226  18.588   9.004  0.00  0.00     0.005 C 
ENDBRANCH  10  11
ENDBRANCH   9  10
ENDBRANCH   8   9
ENDBRANCH   6   8
ENDBRANCH   5   6
ENDBRANCH   2   5
BRANCH   1  13
HETATM   13  C   UNK N   1      35.011  15.760   8.759  0.00  0.00     0.186 C 
HETATM   14  C   UNK N   1      35.138  16.620   9.959  0.00  0.00     0.281 C 
HETATM   15  O   UNK N   1      35.150  15.947  11.107  0.00  0.00    -0.320 OA
HETATM   16  O   UNK N   1      35.338  17.826   9.915  0.00  0.00    -0.263 OA
HETATM   17  C   UNK N   1      35.052  14.590  10.918  0.00  0.00     0.181 C 
HETATM   18  C   UNK N   1      34.827  14.389   9.409  0.00  0.00     0.062 C 
ENDBRANCH   1  13
TORSDOF 7
ENDMDL
MODEL 9
REMARK VINA RESULT:      -4.8     13.263     15.536
REMARK  7 active torsions:
REMARK  status: ('A' for Active; 'I' for Inactive)
REMARK    1  A    between atoms: C_1  and  N_7 
REMARK       I    between atoms: N_7  and  C_8 
REMARK    2  A    between atoms: C_8  and  C_9 
REMARK    3  A    between atoms: C_9  and  C_10 
REMARK    4  A    between atoms: C_10  and  C_11 
REMARK    5  A    between atoms: C_11  and  C_12 
REMARK    6  A    between atoms: C_12  and  C_13 
REMARK    7  A    between atoms: C_13  and  C_14 
ROOT
HETATM    1  N   UNK N   1      35.543  14.393  12.795  0.00  0.00    -0.347 N 
HETATM    2  C   UNK N   1      35.650  14.699  11.473  0.00  0.00     0.225 C 
HETATM    3  O   UNK N   1      36.624  14.372  10.816  0.00  0.00    -0.273 OA
HETATM    4  H   UNK N   1      34.740  14.743  13.247  0.00  0.00     0.163 HD
ENDROOT
BRANCH   2   5
HETATM    5  C   UNK N   1      34.505  15.394  10.802  0.00  0.00     0.181 C 
BRANCH   5   6
HETATM    6  C   UNK N   1      34.969  16.537   9.932  0.00  0.00     0.135 C 
HETATM    7  O   UNK N   1      35.590  17.475  10.411  0.00  0.00    -0.297 OA
BRANCH   6   8
HETATM    8  C   UNK N   1      34.725  16.511   8.461  0.00  0.00     0.079 C 
BRANCH   8   9
HETATM    9  C   UNK N   1      34.308  17.879   7.954  0.00  0.00     0.007 C 
BRANCH   9  10
HETATM   10  C   UNK N   1      32.820  18.076   8.180  0.00  0.00     0.000 C 
BRANCH  10  11
HETATM   11  C   UNK N   1      32.031  17.292   7.145  0.00  0.00    -0.005 C 
HETATM   12  C   UNK N   1      30.664  16.948   7.695  0.00  0.00     0.005 C 
ENDBRANCH  10  11
ENDBRANCH   9  10
ENDBRANCH   8   9
ENDBRANCH   6   8
ENDBRANCH   5   6
ENDBRANCH   2   5
BRANCH   1  13
HETATM   13  C   UNK N   1      36.450  13.619  13.637  0.00  0.00     0.186 C 
HETATM   14  C   UNK N   1      36.685  14.085  15.023  0.00  0.00     0.281 C 
HETATM   15  O   UNK N   1      36.426  13.167  15.951  0.00  0.00    -0.320 OA
HETATM   16  O   UNK N   1      37.185  15.165  15.304  0.00  0.00    -0.263 OA
HETATM   17  C   UNK N   1      36.007  11.978  15.409  0.00  0.00     0.181 C 
HETATM   18  C   UNK N   1      35.870  12.229  13.896  0.00  0.00     0.062 C 
ENDBRANCH   1  13
TORSDOF 7
ENDMDL
