MODEL 1
REMARK VINA RESULT:      -5.4      0.000      0.000
REMARK  4 active torsions:
REMARK  status: ('A' for Active; 'I' for Inactive)
REMARK       I    between atoms: C_2  and  N_3 
REMARK    1  A    between atoms: C_2  and  C_7 
REMARK    2  A    between atoms: N_3  and  C_4 
REMARK    3  A    between atoms: C_4  and  C_5 
REMARK    4  A    between atoms: C_5  and  O_6 
ROOT
HETATM    1  O   UNK N   1      34.908  19.035   8.368  0.00  0.00    -0.268 OA
HETATM    2  C   UNK N   1      34.235  18.015   8.415  0.00  0.00     0.251 C 
HETATM    3  N   UNK N   1      34.387  17.132   9.433  0.00  0.00    -0.355 N 
HETATM    4  H   UNK N   1      33.825  16.324   9.432  0.00  0.00     0.162 HD
ENDROOT
BRANCH   2   5
HETATM    5  C   UNK N   1      33.241  17.717   7.364  0.00  0.00     0.032 A 
HETATM    6  C   UNK N   1      31.886  17.517   7.674  0.00  0.00     0.018 A 
HETATM    7  C   UNK N   1      30.970  17.237   6.653  0.00  0.00     0.025 A 
HETATM    8  C   UNK N   1      31.403  17.156   5.324  0.00  0.00     0.034 A 
HETATM    9 Cl   UNK N   1      30.265  16.807   4.042  0.00  0.00    -0.084 Cl
HETATM   10  C   UNK N   1      32.748  17.355   5.014  0.00  0.00     0.025 A 
HETATM   11  C   UNK N   1      33.661  17.634   6.029  0.00  0.00     0.018 A 
ENDBRANCH   2   5
BRANCH   3  12
HETATM   12  C   UNK N   1      35.319  17.308  10.512  0.00  0.00     0.148 C 
BRANCH  12  13
HETATM   13  C   UNK N   1      35.816  15.933  10.916  0.00  0.00     0.183 C 
BRANCH  13  14
HETATM   14  O   UNK N   1      37.199  15.862  10.766  0.00  0.00    -0.399 OA
HETATM   15  H   UNK N   1      37.612  15.040  10.459  0.00  0.00     0.209 HD
ENDBRANCH  13  14
ENDBRANCH  12  13
ENDBRANCH   3  12
TORSDOF 4
ENDMDL
MODEL 2
REMARK VINA RESULT:      -5.2      1.250      1.845
REMARK  4 active torsions:
REMARK  status: ('A' for Active; 'I' for Inactive)
REMARK       I    between atoms: C_2  and  N_3 
REMARK    1  A    between atoms: C_2  and  C_7 
REMARK    2  A    between atoms: N_3  and  C_4 
REMARK    3  A    between atoms: C_4  and  C_5 
REMARK    4  A    between atoms: C_5  and  O_6 
ROOT
HETATM    1  O   UNK N   1      35.193  18.352   9.022  0.00  0.00    -0.268 OA
HETATM    2  C   UNK N   1      34.382  17.439   8.951  0.00  0.00     0.251 C 
HETATM    3  N   UNK N   1      34.354  16.464   9.894  0.00  0.00    -0.355 N 
HETATM    4  H   UNK N   1      33.686  15.748   9.799  0.00  0.00     0.162 HD
ENDROOT
BRANCH   2   5
HETATM    5  C   UNK N   1      33.414  17.373   7.839  0.00  0.00     0.032 A 
HETATM    6  C   UNK N   1      33.831  17.444   6.500  0.00  0.00     0.018 A 
HETATM    7  C   UNK N   1      32.885  17.379   5.469  0.00  0.00     0.025 A 
HETATM    8  C   UNK N   1      31.525  17.243   5.772  0.00  0.00     0.034 A 
HETATM    9 Cl   UNK N   1      30.336  17.160   4.491  0.00  0.00    -0.084 Cl
HETATM   10  C   UNK N   1      31.109  17.172   7.101  0.00  0.00     0.025 A 
HETATM   11  C   UNK N   1      32.048  17.237   8.128  0.00  0.00     0.018 A 
ENDBRANCH   2   5
BRANCH   3  12
HETATM   12  C   UNK N   1      35.242  16.416  11.023  0.00  0.00     0.148 C 
BRANCH  12  13
HETATM   13  C   UNK N   1      35.094  15.050  11.663  0.00  0.00     0.183 C 
BRANCH  13  14
HETATM   14  O   UNK N   1      33.815  14.550  11.434  0.00  0.00    -0.399 OA
HETATM   15  H   UNK N   1      33.254  14.947  10.750  0.00  0.00     0.209 HD
ENDBRANCH  13  14
ENDBRANCH  12  13
ENDBRANCH   3  12
TORSDOF 4
ENDMDL
MODEL 3
REMARK VINA RESULT:      -5.2     10.290     12.498
REMARK  4 active torsions:
REMARK  status: ('A' for Active; 'I' for Inactive)
REMARK       I    between atoms: C_2  and  N_3 
REMARK    1  A    between atoms: C_2  and  C_7 
REMARK    2  A    between atoms: N_3  and  C_4 
REMARK    3  A    between atoms: C_4  and  C_5 
REMARK    4  A    between atoms: C_5  and  O_6 
ROOT
HETATM    1  O   UNK N   1      22.466  21.456   2.689  0.00  0.00    -0.268 OA
HETATM    2  C   UNK N   1      22.667  20.299   3.033  0.00  0.00     0.251 C 
HETATM    3  N   UNK N   1      21.647  19.407   3.087  0.00  0.00    -0.355 N 
HETATM    4  H   UNK N   1      21.853  18.486   3.369  0.00  0.00     0.162 HD
ENDROOT
BRANCH   2   5
HETATM    5  C   UNK N   1      24.024  19.845   3.399  0.00  0.00     0.032 A 
HETATM    6  C   UNK N   1      24.227  18.681   4.157  0.00  0.00     0.018 A 
HETATM    7  C   UNK N   1      25.528  18.279   4.485  0.00  0.00     0.025 A 
HETATM    8  C   UNK N   1      26.626  19.036   4.059  0.00  0.00     0.034 A 
HETATM    9 Cl   UNK N   1      28.254  18.542   4.464  0.00  0.00    -0.084 Cl
HETATM   10  C   UNK N   1      26.425  20.193   3.306  0.00  0.00     0.025 A 
HETATM   11  C   UNK N   1      25.133  20.594   2.978  0.00  0.00     0.018 A 
ENDBRANCH   2   5
BRANCH   3  12
HETATM   12  C   UNK N   1      20.286  19.726   2.757  0.00  0.00     0.148 C 
BRANCH  12  13
HETATM   13  C   UNK N   1      19.514  18.422   2.691  0.00  0.00     0.183 C 
BRANCH  13  14
HETATM   14  O   UNK N   1      18.189  18.668   2.338  0.00  0.00    -0.399 OA
HETATM   15  H   UNK N   1      17.741  19.464   2.662  0.00  0.00     0.209 HD
ENDBRANCH  13  14
ENDBRANCH  12  13
ENDBRANCH   3  12
TORSDOF 4
ENDMDL
MODEL 4
REMARK VINA RESULT:      -5.1     18.818     19.310
REMARK  4 active torsions:
REMARK  status: ('A' for Active; 'I' for Inactive)
REMARK       I    between atoms: C_2  and  N_3 
REMARK    1  A    between atoms: C_2  and  C_7 
REMARK    2  A    between atoms: N_3  and  C_4 
REMARK    3  A    between atoms: C_4  and  C_5 
REMARK    4  A    between atoms: C_5  and  O_6 
ROOT
HETATM    1  O   UNK N   1      26.344  26.099  -9.074  0.00  0.00    -0.268 OA
HETATM    2  C   UNK N   1      25.983  25.784  -7.949  0.00  0.00     0.251 C 
HETATM    3  N   UNK N   1      25.490  24.545  -7.702  0.00  0.00    -0.355 N 
HETATM    4  H   UNK N   1      25.211  24.333  -6.782  0.00  0.00     0.162 HD
ENDROOT
BRANCH   2   5
HETATM    5  C   UNK N   1      26.073  26.744  -6.831  0.00  0.00     0.032 A 
HETATM    6  C   UNK N   1      25.131  26.748  -5.790  0.00  0.00     0.018 A 
HETATM    7  C   UNK N   1      25.246  27.673  -4.745  0.00  0.00     0.025 A 
HETATM    8  C   UNK N   1      26.301  28.594  -4.736  0.00  0.00     0.034 A 
HETATM    9 Cl   UNK N   1      26.454  29.752  -3.435  0.00  0.00    -0.084 Cl
HETATM   10  C   UNK N   1      27.238  28.591  -5.769  0.00  0.00     0.025 A 
HETATM   11  C   UNK N   1      27.125  27.672  -6.809  0.00  0.00     0.018 A 
ENDBRANCH   2   5
BRANCH   3  12
HETATM   12  C   UNK N   1      25.352  23.524  -8.703  0.00  0.00     0.148 C 
BRANCH  12  13
HETATM   13  C   UNK N   1      24.966  22.239  -7.997  0.00  0.00     0.183 C 
BRANCH  13  14
HETATM   14  O   UNK N   1      23.590  22.045  -8.075  0.00  0.00    -0.399 OA
HETATM   15  H   UNK N   1      22.995  22.557  -7.506  0.00  0.00     0.209 HD
ENDBRANCH  13  14
ENDBRANCH  12  13
ENDBRANCH   3  12
TORSDOF 4
ENDMDL
MODEL 5
REMARK VINA RESULT:      -5.1     11.686     12.571
REMARK  4 active torsions:
REMARK  status: ('A' for Active; 'I' for Inactive)
REMARK       I    between atoms: C_2  and  N_3 
REMARK    1  A    between atoms: C_2  and  C_7 
REMARK    2  A    between atoms: N_3  and  C_4 
REMARK    3  A    between atoms: C_4  and  C_5 
REMARK    4  A    between atoms: C_5  and  O_6 
ROOT
HETATM    1  O   UNK N   1      19.897  13.310  10.130  0.00  0.00    -0.268 OA
HETATM    2  C   UNK N   1      20.974  13.754   9.758  0.00  0.00     0.251 C 
HETATM    3  N   UNK N   1      22.136  13.236  10.230  0.00  0.00    -0.355 N 
HETATM    4  H   UNK N   1      22.981  13.622   9.904  0.00  0.00     0.162 HD
ENDROOT
BRANCH   2   5
HETATM    5  C   UNK N   1      21.039  14.863   8.786  0.00  0.00     0.032 A 
HETATM    6  C   UNK N   1      20.179  15.969   8.880  0.00  0.00     0.018 A 
HETATM    7  C   UNK N   1      20.268  17.005   7.940  0.00  0.00     0.025 A 
HETATM    8  C   UNK N   1      21.212  16.937   6.908  0.00  0.00     0.034 A 
HETATM    9 Cl   UNK N   1      21.329  18.225   5.731  0.00  0.00    -0.084 Cl
HETATM   10  C   UNK N   1      22.066  15.839   6.814  0.00  0.00     0.025 A 
HETATM   11  C   UNK N   1      21.979  14.809   7.747  0.00  0.00     0.018 A 
ENDBRANCH   2   5
BRANCH   3  12
HETATM   12  C   UNK N   1      22.205  12.157  11.176  0.00  0.00     0.148 C 
BRANCH  12  13
HETATM   13  C   UNK N   1      23.667  11.948  11.525  0.00  0.00     0.183 C 
BRANCH  13  14
HETATM   14  O   UNK N   1      23.896  12.295  12.854  0.00  0.00    -0.399 OA
HETATM   15  H   UNK N   1      23.856  13.224  13.127  0.00  0.00     0.209 HD
ENDBRANCH  13  14
ENDBRANCH  12  13
ENDBRANCH   3  12
TORSDOF 4
ENDMDL
MODEL 6
REMARK VINA RESULT:      -5.0      8.204     10.856
REMARK  4 active torsions:
REMARK  status: ('A' for Active; 'I' for Inactive)
REMARK       I    between atoms: C_2  and  N_3 
REMARK    1  A    between atoms: C_2  and  C_7 
REMARK    2  A    between atoms: N_3  and  C_4 
REMARK    3  A    between atoms: C_4  and  C_5 
REMARK    4  A    between atoms: C_5  and  O_6 
ROOT
HETATM    1  O   UNK N   1      36.837  14.375  14.856  0.00  0.00    -0.268 OA
HETATM    2  C   UNK N   1      35.974  13.520  15.001  0.00  0.00     0.251 C 
HETATM    3  N   UNK N   1      35.213  13.120  13.952  0.00  0.00    -0.355 N 
HETATM    4  H   UNK N   1      34.529  12.430  14.113  0.00  0.00     0.162 HD
ENDROOT
BRANCH   2   5
HETATM    5  C   UNK N   1      35.737  12.904  16.322  0.00  0.00     0.032 A 
HETATM    6  C   UNK N   1      35.346  13.672  17.430  0.00  0.00     0.018 A 
HETATM    7  C   UNK N   1      35.131  13.055  18.668  0.00  0.00     0.025 A 
HETATM    8  C   UNK N   1      35.304  11.671  18.802  0.00  0.00     0.034 A 
HETATM    9 Cl   UNK N   1      35.037  10.891  20.345  0.00  0.00    -0.084 Cl
HETATM   10  C   UNK N   1      35.692  10.907  17.702  0.00  0.00     0.025 A 
HETATM   11  C   UNK N   1      35.907  11.519  16.470  0.00  0.00     0.018 A 
ENDBRANCH   2   5
BRANCH   3  12
HETATM   12  C   UNK N   1      35.346  13.643  12.621  0.00  0.00     0.148 C 
BRANCH  12  13
HETATM   13  C   UNK N   1      36.356  12.780  11.889  0.00  0.00     0.183 C 
BRANCH  13  14
HETATM   14  O   UNK N   1      37.621  13.357  11.962  0.00  0.00    -0.399 OA
HETATM   15  H   UNK N   1      38.377  12.830  12.263  0.00  0.00     0.209 HD
ENDBRANCH  13  14
ENDBRANCH  12  13
ENDBRANCH   3  12
TORSDOF 4
ENDMDL
MODEL 7
REMARK VINA RESULT:      -5.0      5.900      9.041
REMARK  4 active torsions:
REMARK  status: ('A' for Active; 'I' for Inactive)
REMARK       I    between atoms: C_2  and  N_3 
REMARK    1  A    between atoms: C_2  and  C_7 
REMARK    2  A    between atoms: N_3  and  C_4 
REMARK    3  A    between atoms: C_4  and  C_5 
REMARK    4  A    between atoms: C_5  and  O_6 
ROOT
HETATM    1  O   UNK N   1      37.105  13.252  12.100  0.00  0.00    -0.268 OA
HETATM    2  C   UNK N   1      36.466  14.084  12.729  0.00  0.00     0.251 C 
HETATM    3  N   UNK N   1      36.019  15.213  12.126  0.00  0.00    -0.355 N 
HETATM    4  H   UNK N   1      35.507  15.856  12.669  0.00  0.00     0.162 HD
ENDROOT
BRANCH   2   5
HETATM    5  C   UNK N   1      36.164  13.880  14.160  0.00  0.00     0.032 A 
HETATM    6  C   UNK N   1      36.935  14.485  15.164  0.00  0.00     0.018 A 
HETATM    7  C   UNK N   1      36.621  14.271  16.513  0.00  0.00     0.025 A 
HETATM    8  C   UNK N   1      35.538  13.453  16.859  0.00  0.00     0.034 A 
HETATM    9 Cl   UNK N   1      35.138  13.179  18.540  0.00  0.00    -0.084 Cl
HETATM   10  C   UNK N   1      34.771  12.851  15.862  0.00  0.00     0.025 A 
HETATM   11  C   UNK N   1      35.082  13.064  14.521  0.00  0.00     0.018 A 
ENDBRANCH   2   5
BRANCH   3  12
HETATM   12  C   UNK N   1      36.247  15.526  10.742  0.00  0.00     0.148 C 
BRANCH  12  13
HETATM   13  C   UNK N   1      35.139  16.461  10.296  0.00  0.00     0.183 C 
BRANCH  13  14
HETATM   14  O   UNK N   1      35.615  17.768  10.228  0.00  0.00    -0.399 OA
HETATM   15  H   UNK N   1      35.426  18.390  10.948  0.00  0.00     0.209 HD
ENDBRANCH  13  14
ENDBRANCH  12  13
ENDBRANCH   3  12
TORSDOF 4
ENDMDL
MODEL 8
REMARK VINA RESULT:      -4.9      7.488     10.441
REMARK  4 active torsions:
REMARK  status: ('A' for Active; 'I' for Inactive)
REMARK       I    between atoms: C_2  and  N_3 
REMARK    1  A    between atoms: C_2  and  C_7 
REMARK    2  A    between atoms: N_3  and  C_4 
REMARK    3  A    between atoms: C_4  and  C_5 
REMARK    4  A    between atoms: C_5  and  O_6 
ROOT
HETATM    1  O   UNK N   1      34.240  11.110  13.210  0.00  0.00    -0.268 OA
HETATM    2  C   UNK N   1      34.740  12.052  13.808  0.00  0.00     0.251 C 
HETATM    3  N   UNK N   1      35.146  13.159  13.138  0.00  0.00    -0.355 N 
HETATM    4  H   UNK N   1      35.544  13.895  13.658  0.00  0.00     0.162 HD
ENDROOT
BRANCH   2   5
HETATM    5  C   UNK N   1      34.914  12.010  15.273  0.00  0.00     0.032 A 
HETATM    6  C   UNK N   1      34.832  13.174  16.055  0.00  0.00     0.018 A 
HETATM    7  C   UNK N   1      35.002  13.097  17.443  0.00  0.00     0.025 A 
HETATM    8  C   UNK N   1      35.255  11.862  18.052  0.00  0.00     0.034 A 
HETATM    9 Cl   UNK N   1      35.469  11.757  19.785  0.00  0.00    -0.084 Cl
HETATM   10  C   UNK N   1      35.337  10.705  17.277  0.00  0.00     0.025 A 
HETATM   11  C   UNK N   1      35.168  10.779  15.897  0.00  0.00     0.018 A 
ENDBRANCH   2   5
BRANCH   3  12
HETATM   12  C   UNK N   1      35.031  13.321  11.715  0.00  0.00     0.148 C 
BRANCH  12  13
HETATM   13  C   UNK N   1      34.671  14.770  11.447  0.00  0.00     0.183 C 
BRANCH  13  14
HETATM   14  O   UNK N   1      33.307  14.884  11.192  0.00  0.00    -0.399 OA
HETATM   15  H   UNK N   1      32.807  14.116  10.876  0.00  0.00     0.209 HD
ENDBRANCH  13  14
ENDBRANCH  12  13
ENDBRANCH   3  12
TORSDOF 4
ENDMDL
MODEL 9
REMARK VINA RESULT:      -4.9     12.711     14.308
REMARK  4 active torsions:
REMARK  status: ('A' for Active; 'I' for Inactive)
REMARK       I    between atoms: C_2  and  N_3 
REMARK    1  A    between atoms: C_2  and  C_7 
REMARK    2  A    between atoms: N_3  and  C_4 
REMARK    3  A    between atoms: C_4  and  C_5 
REMARK    4  A    between atoms: C_5  and  O_6 
ROOT
HETATM    1  O   UNK N   1      20.042  17.950   8.470  0.00  0.00    -0.268 OA
HETATM    2  C   UNK N   1      19.621  16.847   8.790  0.00  0.00     0.251 C 
HETATM    3  N   UNK N   1      18.355  16.698   9.253  0.00  0.00    -0.355 N 
HETATM    4  H   UNK N   1      18.056  15.793   9.500  0.00  0.00     0.162 HD
ENDROOT
BRANCH   2   5
HETATM    5  C   UNK N   1      20.478  15.650   8.681  0.00  0.00     0.032 A 
HETATM    6  C   UNK N   1      21.481  15.555   7.703  0.00  0.00     0.018 A 
HETATM    7  C   UNK N   1      22.277  14.405   7.627  0.00  0.00     0.025 A 
HETATM    8  C   UNK N   1      22.074  13.350   8.527  0.00  0.00     0.034 A 
HETATM    9 Cl   UNK N   1      23.063  11.910   8.440  0.00  0.00    -0.084 Cl
HETATM   10  C   UNK N   1      21.079  13.444   9.499  0.00  0.00     0.025 A 
HETATM   11  C   UNK N   1      20.286  14.587   9.575  0.00  0.00     0.018 A 
ENDBRANCH   2   5
BRANCH   3  12
HETATM   12  C   UNK N   1      17.425  17.782   9.405  0.00  0.00     0.148 C 
BRANCH  12  13
HETATM   13  C   UNK N   1      17.667  18.406  10.766  0.00  0.00     0.183 C 
BRANCH  13  14
HETATM   14  O   UNK N   1      18.464  19.540  10.638  0.00  0.00    -0.399 OA
HETATM   15  H   UNK N   1      19.153  19.574   9.957  0.00  0.00     0.209 HD
ENDBRANCH  13  14
ENDBRANCH  12  13
ENDBRANCH   3  12
TORSDOF 4
ENDMDL
