REMARK  3 active torsions:
REMARK  status: ('A' for Active; 'I' for Inactive)
REMARK    1  A    between atoms: C_6  and  C_7 
REMARK    2  A    between atoms: C_12  and  S_13 
REMARK    3  A    between atoms: S_13  and  N_16 
ROOT
HETATM    1  C   UNK N   1      -1.909   0.473  -0.091  0.00  0.00     0.134 A 
HETATM    2  N   UNK N   1      -1.092   1.555  -0.054  0.00  0.00    -0.339 N 
HETATM    3  C   UNK N   1       0.142   1.028  -0.160  0.00  0.00     0.060 A 
HETATM    4  C   UNK N   1       1.365   1.682  -0.123  0.00  0.00     0.033 A 
HETATM    5  C   UNK N   1       2.526   0.880  -0.135  0.00  0.00     0.027 A 
HETATM    6  C   UNK N   1       2.426  -0.532  -0.216  0.00  0.00     0.081 A 
HETATM    7  C   UNK N   1       1.166  -1.149  -0.279  0.00  0.00     0.057 A 
HETATM    8  C   UNK N   1       0.046  -0.325  -0.256  0.00  0.00     0.062 A 
HETATM    9  N   UNK N   1      -1.233  -0.700  -0.223  0.00  0.00    -0.339 N 
ATOM     10  HN  UNK N   1      -1.614  -1.644  -0.282  1.00  0.00     0.167 HD
HETATM   11  H   UNK N   1      -1.343   2.503   0.032  0.00  0.00     0.167 HD
ENDROOT
BRANCH   1  12
HETATM   12  C   UNK N   1      -3.364   0.523   0.081  0.00  0.00     0.083 A 
HETATM   13  C   UNK N   1      -4.160  -0.631   0.035  0.00  0.00     0.084 A 
HETATM   14  S   UNK N   1      -5.692  -0.089   0.331  0.00  0.00    -0.094 SA
HETATM   15  C   UNK N   1      -5.367   1.521   0.517  0.00  0.00     0.138 A 
HETATM   16  N   UNK N   1      -4.032   1.700   0.349  0.00  0.00    -0.357 N 
ATOM     17  HN  UNK N   1      -3.572   2.608   0.414  1.00  0.00     0.166 HD
ENDBRANCH   1  12
BRANCH   6  18
HETATM   18  S   UNK N   1       3.846  -1.514   0.228  0.00  0.00     0.256 S 
HETATM   19  O   UNK N   1       5.190  -1.298  -0.487  0.00  0.00    -0.201 OA
HETATM   20  O   UNK N   1       3.651  -3.039   0.281  0.00  0.00    -0.201 OA
BRANCH  18  21
HETATM   21  N   UNK N   1       4.207  -1.127   1.903  0.00  0.00    -0.324 N 
HETATM   22  H   UNK N   1       4.507  -1.196   2.875  0.00  0.00     0.169 HD
HETATM   23  H   UNK N   1       3.909  -0.152   1.903  0.00  0.00     0.169 HD
ENDBRANCH  18  21
ENDBRANCH   6  18
TORSDOF 3
