MODEL 1
REMARK VINA RESULT:      -6.6      0.000      0.000
REMARK  3 active torsions:
REMARK  status: ('A' for Active; 'I' for Inactive)
REMARK    1  A    between atoms: C_6  and  C_7 
REMARK    2  A    between atoms: C_12  and  S_13 
REMARK    3  A    between atoms: S_13  and  N_16 
ROOT
HETATM    1  C   UNK N   1      35.372  14.125  12.500  0.00  0.00     0.134 A 
HETATM    2  N   UNK N   1      34.537  13.498  11.634  0.00  0.00    -0.339 N 
HETATM    3  C   UNK N   1      34.481  14.335  10.582  0.00  0.00     0.060 A 
HETATM    4  C   UNK N   1      33.726  14.215   9.424  0.00  0.00     0.033 A 
HETATM    5  C   UNK N   1      33.754  15.298   8.520  0.00  0.00     0.027 A 
HETATM    6  C   UNK N   1      34.554  16.438   8.786  0.00  0.00     0.081 A 
HETATM    7  C   UNK N   1      35.324  16.504   9.958  0.00  0.00     0.057 A 
HETATM    8  C   UNK N   1      35.262  15.420  10.828  0.00  0.00     0.062 A 
HETATM    9  N   UNK N   1      35.841  15.310  12.024  0.00  0.00    -0.339 N 
ATOM     10  HN  UNK N   1      36.482  15.961  12.476  1.00  0.00     0.167 HD
HETATM   11  H   UNK N   1      34.079  12.635  11.750  0.00  0.00     0.167 HD
ENDROOT
BRANCH   1  12
HETATM   12  C   UNK N   1      35.685  13.644  13.849  0.00  0.00     0.083 A 
HETATM   13  C   UNK N   1      34.995  12.574  14.438  0.00  0.00     0.084 A 
HETATM   14  S   UNK N   1      35.725  12.369  15.906  0.00  0.00    -0.094 SA
HETATM   15  C   UNK N   1      36.861  13.564  15.801  0.00  0.00     0.138 A 
HETATM   16  N   UNK N   1      36.710  14.181  14.601  0.00  0.00    -0.357 N 
ATOM     17  HN  UNK N   1      37.292  14.958  14.289  1.00  0.00     0.166 HD
ENDBRANCH   1  12
BRANCH   6  18
HETATM   18  S   UNK N   1      34.221  17.941   7.887  0.00  0.00     0.256 S 
HETATM   19  O   UNK N   1      34.298  17.958   6.352  0.00  0.00    -0.201 OA
HETATM   20  O   UNK N   1      34.962  19.208   8.348  0.00  0.00    -0.201 OA
BRANCH  18  21
HETATM   21  N   UNK N   1      32.545  18.350   8.217  0.00  0.00    -0.324 N 
HETATM   22  H   UNK N   1      31.706  18.836   8.531  0.00  0.00     0.169 HD
HETATM   23  H   UNK N   1      32.103  17.528   7.807  0.00  0.00     0.169 HD
ENDBRANCH  18  21
ENDBRANCH   6  18
TORSDOF 3
ENDMDL
MODEL 2
REMARK VINA RESULT:      -6.0      9.831     12.462
REMARK  3 active torsions:
REMARK  status: ('A' for Active; 'I' for Inactive)
REMARK    1  A    between atoms: C_6  and  C_7 
REMARK    2  A    between atoms: C_12  and  S_13 
REMARK    3  A    between atoms: S_13  and  N_16 
ROOT
HETATM    1  C   UNK N   1      27.659  18.674   4.801  0.00  0.00     0.134 A 
HETATM    2  N   UNK N   1      27.603  19.586   3.798  0.00  0.00    -0.339 N 
HETATM    3  C   UNK N   1      26.285  19.815   3.647  0.00  0.00     0.060 A 
HETATM    4  C   UNK N   1      25.652  20.628   2.717  0.00  0.00     0.033 A 
HETATM    5  C   UNK N   1      24.242  20.601   2.691  0.00  0.00     0.027 A 
HETATM    6  C   UNK N   1      23.519  19.796   3.608  0.00  0.00     0.081 A 
HETATM    7  C   UNK N   1      24.202  19.009   4.550  0.00  0.00     0.057 A 
HETATM    8  C   UNK N   1      25.592  19.056   4.538  0.00  0.00     0.062 A 
HETATM    9  N   UNK N   1      26.432  18.335   5.281  0.00  0.00    -0.339 N 
ATOM     10  HN  UNK N   1      26.207  17.683   6.032  1.00  0.00     0.167 HD
HETATM   11  H   UNK N   1      28.351  19.985   3.297  0.00  0.00     0.167 HD
ENDROOT
BRANCH   1  12
HETATM   12  C   UNK N   1      28.890  18.036   5.277  0.00  0.00     0.083 A 
HETATM   13  C   UNK N   1      29.000  17.503   6.570  0.00  0.00     0.084 A 
HETATM   14  S   UNK N   1      30.519  16.856   6.622  0.00  0.00    -0.094 SA
HETATM   15  C   UNK N   1      31.011  17.222   5.087  0.00  0.00     0.138 A 
HETATM   16  N   UNK N   1      29.995  17.876   4.467  0.00  0.00    -0.357 N 
ATOM     17  HN  UNK N   1      30.044  18.212   3.506  1.00  0.00     0.166 HD
ENDBRANCH   1  12
BRANCH   6  18
HETATM   18  S   UNK N   1      21.809  19.432   3.259  0.00  0.00     0.256 S 
HETATM   19  O   UNK N   1      21.221  19.737   1.871  0.00  0.00    -0.201 OA
HETATM   20  O   UNK N   1      20.767  19.945   4.267  0.00  0.00    -0.201 OA
BRANCH  18  21
HETATM   21  N   UNK N   1      21.638  17.689   3.401  0.00  0.00    -0.324 N 
HETATM   22  H   UNK N   1      21.840  16.700   3.539  0.00  0.00     0.169 HD
HETATM   23  H   UNK N   1      20.637  17.618   3.223  0.00  0.00     0.169 HD
ENDBRANCH  18  21
ENDBRANCH   6  18
TORSDOF 3
ENDMDL
MODEL 3
REMARK VINA RESULT:      -5.9      2.457      3.273
REMARK  3 active torsions:
REMARK  status: ('A' for Active; 'I' for Inactive)
REMARK    1  A    between atoms: C_6  and  C_7 
REMARK    2  A    between atoms: C_12  and  S_13 
REMARK    3  A    between atoms: S_13  and  N_16 
ROOT
HETATM    1  C   UNK N   1      34.465  15.182  10.927  0.00  0.00     0.134 A 
HETATM    2  N   UNK N   1      35.104  16.248  10.383  0.00  0.00    -0.339 N 
HETATM    3  C   UNK N   1      34.251  16.684   9.438  0.00  0.00     0.060 A 
HETATM    4  C   UNK N   1      34.423  17.724   8.535  0.00  0.00     0.033 A 
HETATM    5  C   UNK N   1      33.420  17.903   7.558  0.00  0.00     0.027 A 
HETATM    6  C   UNK N   1      32.276  17.066   7.539  0.00  0.00     0.081 A 
HETATM    7  C   UNK N   1      32.131  16.043   8.490  0.00  0.00     0.057 A 
HETATM    8  C   UNK N   1      33.145  15.893   9.430  0.00  0.00     0.062 A 
HETATM    9  N   UNK N   1      33.250  14.945  10.362  0.00  0.00    -0.339 N 
ATOM     10  HN  UNK N   1      32.578  14.215  10.595  1.00  0.00     0.167 HD
HETATM   11  H   UNK N   1      35.985  16.615  10.624  0.00  0.00     0.167 HD
ENDROOT
BRANCH   1  12
HETATM   12  C   UNK N   1      35.035  14.304  11.953  0.00  0.00     0.083 A 
HETATM   13  C   UNK N   1      36.063  14.728  12.809  0.00  0.00     0.084 A 
HETATM   14  S   UNK N   1      36.328  13.439  13.807  0.00  0.00    -0.094 SA
HETATM   15  C   UNK N   1      35.197  12.400  13.196  0.00  0.00     0.138 A 
HETATM   16  N   UNK N   1      34.562  13.027  12.172  0.00  0.00    -0.357 N 
ATOM     17  HN  UNK N   1      33.816  12.599  11.625  1.00  0.00     0.166 HD
ENDBRANCH   1  12
BRANCH   6  18
HETATM   18  S   UNK N   1      31.284  17.013   6.058  0.00  0.00     0.256 S 
HETATM   19  O   UNK N   1      31.840  17.563   4.735  0.00  0.00    -0.201 OA
HETATM   20  O   UNK N   1      29.850  17.562   6.159  0.00  0.00    -0.201 OA
BRANCH  18  21
HETATM   21  N   UNK N   1      31.007  15.314   5.712  0.00  0.00    -0.324 N 
HETATM   22  H   UNK N   1      31.020  14.397   5.267  0.00  0.00     0.169 HD
HETATM   23  H   UNK N   1      30.436  15.082   6.524  0.00  0.00     0.169 HD
ENDBRANCH  18  21
ENDBRANCH   6  18
TORSDOF 3
ENDMDL
MODEL 4
REMARK VINA RESULT:      -5.9      6.568     10.397
REMARK  3 active torsions:
REMARK  status: ('A' for Active; 'I' for Inactive)
REMARK    1  A    between atoms: C_6  and  C_7 
REMARK    2  A    between atoms: C_12  and  S_13 
REMARK    3  A    between atoms: S_13  and  N_16 
ROOT
HETATM    1  C   UNK N   1      27.485  18.814   5.992  0.00  0.00     0.134 A 
HETATM    2  N   UNK N   1      27.446  19.046   7.328  0.00  0.00    -0.339 N 
HETATM    3  C   UNK N   1      28.578  18.478   7.784  0.00  0.00     0.060 A 
HETATM    4  C   UNK N   1      29.022  18.370   9.094  0.00  0.00     0.033 A 
HETATM    5  C   UNK N   1      30.193  17.616   9.319  0.00  0.00     0.027 A 
HETATM    6  C   UNK N   1      30.892  17.029   8.234  0.00  0.00     0.081 A 
HETATM    7  C   UNK N   1      30.420  17.188   6.921  0.00  0.00     0.057 A 
HETATM    8  C   UNK N   1      29.258  17.930   6.741  0.00  0.00     0.062 A 
HETATM    9  N   UNK N   1      28.597  18.135   5.602  0.00  0.00    -0.339 N 
ATOM     10  HN  UNK N   1      28.862  17.847   4.660  1.00  0.00     0.167 HD
HETATM   11  H   UNK N   1      26.752  19.517   7.843  0.00  0.00     0.167 HD
ENDROOT
BRANCH   1  12
HETATM   12  C   UNK N   1      26.415  19.169   5.055  0.00  0.00     0.083 A 
HETATM   13  C   UNK N   1      26.646  19.971   3.928  0.00  0.00     0.084 A 
HETATM   14  S   UNK N   1      25.183  20.044   3.165  0.00  0.00    -0.094 SA
HETATM   15  C   UNK N   1      24.303  19.103   4.200  0.00  0.00     0.138 A 
HETATM   16  N   UNK N   1      25.128  18.693   5.197  0.00  0.00    -0.357 N 
ATOM     17  HN  UNK N   1      24.828  18.096   5.968  1.00  0.00     0.166 HD
ENDBRANCH   1  12
BRANCH   6  18
HETATM   18  S   UNK N   1      32.067  15.734   8.578  0.00  0.00     0.256 S 
HETATM   19  O   UNK N   1      33.575  16.033   8.562  0.00  0.00    -0.201 OA
HETATM   20  O   UNK N   1      31.903  14.418   7.799  0.00  0.00    -0.201 OA
BRANCH  18  21
HETATM   21  N   UNK N   1      31.769  15.226  10.233  0.00  0.00    -0.324 N 
HETATM   22  H   UNK N   1      31.611  14.654  11.062  0.00  0.00     0.169 HD
HETATM   23  H   UNK N   1      31.721  16.146  10.669  0.00  0.00     0.169 HD
ENDBRANCH  18  21
ENDBRANCH   6  18
TORSDOF 3
ENDMDL
MODEL 5
REMARK VINA RESULT:      -5.9      5.006      6.752
REMARK  3 active torsions:
REMARK  status: ('A' for Active; 'I' for Inactive)
REMARK    1  A    between atoms: C_6  and  C_7 
REMARK    2  A    between atoms: C_12  and  S_13 
REMARK    3  A    between atoms: S_13  and  N_16 
ROOT
HETATM    1  C   UNK N   1      31.568  16.388   8.627  0.00  0.00     0.134 A 
HETATM    2  N   UNK N   1      30.812  17.122   9.482  0.00  0.00    -0.339 N 
HETATM    3  C   UNK N   1      29.831  17.611   8.702  0.00  0.00     0.060 A 
HETATM    4  C   UNK N   1      28.804  18.476   9.050  0.00  0.00     0.033 A 
HETATM    5  C   UNK N   1      27.969  18.938   8.010  0.00  0.00     0.027 A 
HETATM    6  C   UNK N   1      28.167  18.497   6.677  0.00  0.00     0.081 A 
HETATM    7  C   UNK N   1      29.204  17.599   6.376  0.00  0.00     0.057 A 
HETATM    8  C   UNK N   1      30.011  17.175   7.427  0.00  0.00     0.062 A 
HETATM    9  N   UNK N   1      31.091  16.397   7.353  0.00  0.00    -0.339 N 
ATOM     10  HN  UNK N   1      31.471  15.922   6.535  1.00  0.00     0.167 HD
HETATM   11  H   UNK N   1      30.951  17.264  10.446  0.00  0.00     0.167 HD
ENDROOT
BRANCH   1  12
HETATM   12  C   UNK N   1      32.821  15.719   8.989  0.00  0.00     0.083 A 
HETATM   13  C   UNK N   1      33.953  15.758   8.163  0.00  0.00     0.084 A 
HETATM   14  S   UNK N   1      35.108  14.927   9.002  0.00  0.00    -0.094 SA
HETATM   15  C   UNK N   1      34.226  14.542  10.346  0.00  0.00     0.138 A 
HETATM   16  N   UNK N   1      32.978  15.052  10.187  0.00  0.00    -0.357 N 
ATOM     17  HN  UNK N   1      32.236  14.954  10.880  1.00  0.00     0.166 HD
ENDBRANCH   1  12
BRANCH   6  18
HETATM   18  S   UNK N   1      27.419  19.426   5.352  0.00  0.00     0.256 S 
HETATM   19  O   UNK N   1      27.557  18.946   3.897  0.00  0.00    -0.201 OA
HETATM   20  O   UNK N   1      27.702  20.937   5.312  0.00  0.00    -0.201 OA
BRANCH  18  21
HETATM   21  N   UNK N   1      25.687  19.379   5.636  0.00  0.00    -0.324 N 
HETATM   22  H   UNK N   1      24.736  19.639   5.896  0.00  0.00     0.169 HD
HETATM   23  H   UNK N   1      25.504  18.428   5.318  0.00  0.00     0.169 HD
ENDBRANCH  18  21
ENDBRANCH   6  18
TORSDOF 3
ENDMDL
MODEL 6
REMARK VINA RESULT:      -5.9      5.304      9.394
REMARK  3 active torsions:
REMARK  status: ('A' for Active; 'I' for Inactive)
REMARK    1  A    between atoms: C_6  and  C_7 
REMARK    2  A    between atoms: C_12  and  S_13 
REMARK    3  A    between atoms: S_13  and  N_16 
ROOT
HETATM    1  C   UNK N   1      29.619  17.792   4.896  0.00  0.00     0.134 A 
HETATM    2  N   UNK N   1      30.787  17.916   4.218  0.00  0.00    -0.339 N 
HETATM    3  C   UNK N   1      31.705  17.421   5.069  0.00  0.00     0.060 A 
HETATM    4  C   UNK N   1      33.082  17.353   4.908  0.00  0.00     0.033 A 
HETATM    5  C   UNK N   1      33.838  16.895   6.008  0.00  0.00     0.027 A 
HETATM    6  C   UNK N   1      33.196  16.494   7.207  0.00  0.00     0.081 A 
HETATM    7  C   UNK N   1      31.797  16.555   7.315  0.00  0.00     0.057 A 
HETATM    8  C   UNK N   1      31.088  17.020   6.212  0.00  0.00     0.062 A 
HETATM    9  N   UNK N   1      29.775  17.234   6.127  0.00  0.00    -0.339 N 
ATOM     10  HN  UNK N   1      29.058  17.030   6.822  1.00  0.00     0.167 HD
HETATM   11  H   UNK N   1      30.930  18.283   3.316  0.00  0.00     0.167 HD
ENDROOT
BRANCH   1  12
HETATM   12  C   UNK N   1      28.323  18.280   4.417  0.00  0.00     0.083 A 
HETATM   13  C   UNK N   1      27.205  17.440   4.306  0.00  0.00     0.084 A 
HETATM   14  S   UNK N   1      25.991  18.434   3.788  0.00  0.00    -0.094 SA
HETATM   15  C   UNK N   1      26.832  19.855   3.714  0.00  0.00     0.138 A 
HETATM   16  N   UNK N   1      28.111  19.604   4.093  0.00  0.00    -0.357 N 
ATOM     17  HN  UNK N   1      28.837  20.319   4.135  1.00  0.00     0.166 HD
ENDBRANCH   1  12
BRANCH   6  18
HETATM   18  S   UNK N   1      34.171  16.368   8.695  0.00  0.00     0.256 S 
HETATM   19  O   UNK N   1      34.709  17.636   9.377  0.00  0.00    -0.201 OA
HETATM   20  O   UNK N   1      35.351  15.382   8.674  0.00  0.00    -0.201 OA
BRANCH  18  21
HETATM   21  N   UNK N   1      33.119  15.663   9.913  0.00  0.00    -0.324 N 
HETATM   22  H   UNK N   1      32.662  15.452  10.799  0.00  0.00     0.169 HD
HETATM   23  H   UNK N   1      32.612  15.009   9.318  0.00  0.00     0.169 HD
ENDBRANCH  18  21
ENDBRANCH   6  18
TORSDOF 3
ENDMDL
MODEL 7
REMARK VINA RESULT:      -5.8      3.734      7.108
REMARK  3 active torsions:
REMARK  status: ('A' for Active; 'I' for Inactive)
REMARK    1  A    between atoms: C_6  and  C_7 
REMARK    2  A    between atoms: C_12  and  S_13 
REMARK    3  A    between atoms: S_13  and  N_16 
ROOT
HETATM    1  C   UNK N   1      32.332  16.477   8.822  0.00  0.00     0.134 A 
HETATM    2  N   UNK N   1      33.432  17.253   8.992  0.00  0.00    -0.339 N 
HETATM    3  C   UNK N   1      34.231  16.507   9.777  0.00  0.00     0.060 A 
HETATM    4  C   UNK N   1      35.470  16.837  10.308  0.00  0.00     0.033 A 
HETATM    5  C   UNK N   1      36.053  15.917  11.205  0.00  0.00     0.027 A 
HETATM    6  C   UNK N   1      35.400  14.696  11.512  0.00  0.00     0.081 A 
HETATM    7  C   UNK N   1      34.159  14.392  10.928  0.00  0.00     0.057 A 
HETATM    8  C   UNK N   1      33.614  15.328  10.056  0.00  0.00     0.062 A 
HETATM    9  N   UNK N   1      32.421  15.280   9.462  0.00  0.00    -0.339 N 
ATOM     10  HN  UNK N   1      31.737  14.524   9.483  1.00  0.00     0.167 HD
HETATM   11  H   UNK N   1      33.603  18.151   8.629  0.00  0.00     0.167 HD
ENDROOT
BRANCH   1  12
HETATM   12  C   UNK N   1      31.123  16.894   8.106  0.00  0.00     0.083 A 
HETATM   13  C   UNK N   1      30.745  16.317   6.884  0.00  0.00     0.084 A 
HETATM   14  S   UNK N   1      29.318  17.057   6.502  0.00  0.00    -0.094 SA
HETATM   15  C   UNK N   1      29.179  18.049   7.816  0.00  0.00     0.138 A 
HETATM   16  N   UNK N   1      30.258  17.841   8.613  0.00  0.00    -0.357 N 
ATOM     17  HN  UNK N   1      30.412  18.333   9.493  1.00  0.00     0.166 HD
ENDBRANCH   1  12
BRANCH   6  18
HETATM   18  S   UNK N   1      35.917  13.793  12.959  0.00  0.00     0.256 S 
HETATM   19  O   UNK N   1      36.916  12.631  12.830  0.00  0.00    -0.201 OA
HETATM   20  O   UNK N   1      34.809  13.278  13.893  0.00  0.00    -0.201 OA
BRANCH  18  21
HETATM   21  N   UNK N   1      36.760  14.945  13.982  0.00  0.00    -0.324 N 
HETATM   22  H   UNK N   1      36.973  15.747  14.574  0.00  0.00     0.169 HD
HETATM   23  H   UNK N   1      37.678  14.500  13.991  0.00  0.00     0.169 HD
ENDBRANCH  18  21
ENDBRANCH   6  18
TORSDOF 3
ENDMDL
MODEL 8
REMARK VINA RESULT:      -5.7      4.296      7.534
REMARK  3 active torsions:
REMARK  status: ('A' for Active; 'I' for Inactive)
REMARK    1  A    between atoms: C_6  and  C_7 
REMARK    2  A    between atoms: C_12  and  S_13 
REMARK    3  A    between atoms: S_13  and  N_16 
ROOT
HETATM    1  C   UNK N   1      35.125  14.848  11.531  0.00  0.00     0.134 A 
HETATM    2  N   UNK N   1      35.980  15.392  12.433  0.00  0.00    -0.339 N 
HETATM    3  C   UNK N   1      36.107  14.435  13.371  0.00  0.00     0.060 A 
HETATM    4  C   UNK N   1      36.826  14.481  14.557  0.00  0.00     0.033 A 
HETATM    5  C   UNK N   1      36.698  13.381  15.431  0.00  0.00     0.027 A 
HETATM    6  C   UNK N   1      35.890  12.270  15.080  0.00  0.00     0.081 A 
HETATM    7  C   UNK N   1      35.201  12.257  13.856  0.00  0.00     0.057 A 
HETATM    8  C   UNK N   1      35.346  13.363  13.025  0.00  0.00     0.062 A 
HETATM    9  N   UNK N   1      34.724  13.592  11.869  0.00  0.00    -0.339 N 
ATOM     10  HN  UNK N   1      34.096  12.973  11.358  1.00  0.00     0.167 HD
HETATM   11  H   UNK N   1      36.405  16.279  12.407  0.00  0.00     0.167 HD
ENDROOT
BRANCH   1  12
HETATM   12  C   UNK N   1      34.600  15.548  10.355  0.00  0.00     0.083 A 
HETATM   13  C   UNK N   1      33.841  14.891   9.375  0.00  0.00     0.084 A 
HETATM   14  S   UNK N   1      33.437  16.079   8.300  0.00  0.00    -0.094 SA
HETATM   15  C   UNK N   1      34.175  17.361   9.040  0.00  0.00     0.138 A 
HETATM   16  N   UNK N   1      34.777  16.903  10.167  0.00  0.00    -0.357 N 
ATOM     17  HN  UNK N   1      35.304  17.497  10.807  1.00  0.00     0.166 HD
ENDBRANCH   1  12
BRANCH   6  18
HETATM   18  S   UNK N   1      35.389  11.139  16.363  0.00  0.00     0.256 S 
HETATM   19  O   UNK N   1      34.263  10.125  16.105  0.00  0.00    -0.201 OA
HETATM   20  O   UNK N   1      35.087  11.743  17.746  0.00  0.00    -0.201 OA
BRANCH  18  21
HETATM   21  N   UNK N   1      36.784  10.126  16.697  0.00  0.00    -0.324 N 
HETATM   22  H   UNK N   1      37.741   9.800  16.829  0.00  0.00     0.169 HD
HETATM   23  H   UNK N   1      36.295   9.256  16.906  0.00  0.00     0.169 HD
ENDBRANCH  18  21
ENDBRANCH   6  18
TORSDOF 3
ENDMDL
MODEL 9
REMARK VINA RESULT:      -5.7      2.359      3.241
REMARK  3 active torsions:
REMARK  status: ('A' for Active; 'I' for Inactive)
REMARK    1  A    between atoms: C_6  and  C_7 
REMARK    2  A    between atoms: C_12  and  S_13 
REMARK    3  A    between atoms: S_13  and  N_16 
ROOT
HETATM    1  C   UNK N   1      34.749  12.541  11.046  0.00  0.00     0.134 A 
HETATM    2  N   UNK N   1      35.544  13.418  11.708  0.00  0.00    -0.339 N 
HETATM    3  C   UNK N   1      35.264  14.601  11.130  0.00  0.00     0.060 A 
HETATM    4  C   UNK N   1      35.835  15.840  11.384  0.00  0.00     0.033 A 
HETATM    5  C   UNK N   1      35.448  16.911  10.550  0.00  0.00     0.027 A 
HETATM    6  C   UNK N   1      34.489  16.716   9.524  0.00  0.00     0.081 A 
HETATM    7  C   UNK N   1      33.918  15.449   9.322  0.00  0.00     0.057 A 
HETATM    8  C   UNK N   1      34.332  14.418  10.158  0.00  0.00     0.062 A 
HETATM    9  N   UNK N   1      33.984  13.132  10.089  0.00  0.00    -0.339 N 
ATOM     10  HN  UNK N   1      33.306  12.696   9.465  1.00  0.00     0.167 HD
HETATM   11  H   UNK N   1      36.177  13.232  12.438  0.00  0.00     0.167 HD
ENDROOT
BRANCH   1  12
HETATM   12  C   UNK N   1      34.756  11.090  11.256  0.00  0.00     0.083 A 
HETATM   13  C   UNK N   1      35.924  10.392  11.597  0.00  0.00     0.084 A 
HETATM   14  S   UNK N   1      35.432   8.826  11.778  0.00  0.00    -0.094 SA
HETATM   15  C   UNK N   1      33.824   9.019  11.452  0.00  0.00     0.138 A 
HETATM   16  N   UNK N   1      33.606  10.331  11.181  0.00  0.00    -0.357 N 
ATOM     17  HN  UNK N   1      32.691  10.715  10.947  1.00  0.00     0.166 HD
ENDBRANCH   1  12
BRANCH   6  18
HETATM   18  S   UNK N   1      34.369  17.933   8.227  0.00  0.00     0.256 S 
HETATM   19  O   UNK N   1      34.650  17.539   6.767  0.00  0.00    -0.201 OA
HETATM   20  O   UNK N   1      35.116  19.260   8.443  0.00  0.00    -0.201 OA
BRANCH  18  21
HETATM   21  N   UNK N   1      32.691  18.453   8.194  0.00  0.00    -0.324 N 
HETATM   22  H   UNK N   1      31.672  18.450   8.177  0.00  0.00     0.169 HD
HETATM   23  H   UNK N   1      32.842  19.461   8.191  0.00  0.00     0.169 HD
ENDBRANCH  18  21
ENDBRANCH   6  18
TORSDOF 3
ENDMDL
