MODEL 1
REMARK VINA RESULT:      -6.8      0.000      0.000
REMARK  8 active torsions:
REMARK  status: ('A' for Active; 'I' for Inactive)
REMARK    1  A    between atoms: C_3  and  O_12 
REMARK    2  A    between atoms: C_6  and  C_9 
REMARK    3  A    between atoms: C_9  and  N_14 
REMARK    4  A    between atoms: C_10  and  N_14 
REMARK    5  A    between atoms: C_10  and  C_16 
REMARK    6  A    between atoms: O_12  and  C_15 
REMARK    7  A    between atoms: C_15  and  C_22 
REMARK    8  A    between atoms: C_22  and  O_23 
ROOT
HETATM    1  C   UNK N   1      27.627  20.006   6.605  0.00  0.00     0.080 A 
HETATM    2  C   UNK N   1      27.288  19.497   3.893  0.00  0.00     0.020 A 
HETATM    3  C   UNK N   1      28.099  18.795   6.079  0.00  0.00     0.085 A 
HETATM    4  C   UNK N   1      26.993  20.946   5.792  0.00  0.00     0.119 A 
HETATM    5  C   UNK N   1      26.813  20.685   4.439  0.00  0.00     0.043 A 
HETATM    6  C   UNK N   1      27.951  18.535   4.678  0.00  0.00     0.035 A 
HETATM    7  F   UNK N   1      26.542  22.110   6.318  0.00  0.00    -0.206 F 
ENDROOT
BRANCH   6   8
HETATM    8  C   UNK N   1      28.480  17.340   3.938  0.00  0.00     0.110 C 
HETATM    9  S   UNK N   1      27.677  16.166   3.690  0.00  0.00    -0.060 SA
BRANCH   8  10
HETATM   10  N   UNK N   1      29.879  17.307   3.671  0.00  0.00    -0.376 N 
HETATM   11  H   UNK N   1      30.281  18.111   3.269  0.00  0.00     0.160 HD
BRANCH  10  12
HETATM   12  C   UNK N   1      30.756  16.193   3.939  0.00  0.00     0.162 C 
BRANCH  12  13
HETATM   13  C   UNK N   1      31.627  16.439   5.143  0.00  0.00    -0.002 A 
HETATM   14  C   UNK N   1      31.325  15.729   6.311  0.00  0.00     0.013 A 
HETATM   15  C   UNK N   1      32.087  15.908   7.469  0.00  0.00     0.020 A 
HETATM   16  C   UNK N   1      33.158  16.802   7.469  0.00  0.00     0.013 A 
HETATM   17 Br   UNK N   1      34.199  17.050   9.044  0.00  0.00    -0.051 Br
HETATM   18  C   UNK N   1      33.469  17.520   6.316  0.00  0.00     0.062 A 
HETATM   19  C   UNK N   1      32.716  17.349   5.153  0.00  0.00     0.125 A 
HETATM   20  F   UNK N   1      33.054  18.077   4.060  0.00  0.00    -0.205 F 
ENDBRANCH  12  13
ENDBRANCH  10  12
ENDBRANCH   8  10
ENDBRANCH   6   8
BRANCH   3  21
HETATM   21  O   UNK N   1      28.667  17.919   6.938  0.00  0.00    -0.340 OA
BRANCH  21  22
HETATM   22  C   UNK N   1      29.334  18.345   8.067  0.00  0.00     0.285 C 
BRANCH  22  23
HETATM   23  C   UNK N   1      28.681  17.783   9.287  0.00  0.00     0.164 C 
HETATM   24  O   UNK N   1      29.343  17.145  10.090  0.00  0.00    -0.648 OA
BRANCH  23  25
HETATM   25  O   UNK N   1      27.369  17.979   9.505  0.00  0.00    -0.775 OA
HETATM   26  H   UNK N   1      26.923  17.856  10.321  0.00  0.00     0.167 HD
ENDBRANCH  23  25
ENDBRANCH  22  23
ENDBRANCH  21  22
ENDBRANCH   3  21
TORSDOF 8
ENDMDL
MODEL 2
REMARK VINA RESULT:      -6.5     12.571     15.124
REMARK  8 active torsions:
REMARK  status: ('A' for Active; 'I' for Inactive)
REMARK    1  A    between atoms: C_3  and  O_12 
REMARK    2  A    between atoms: C_6  and  C_9 
REMARK    3  A    between atoms: C_9  and  N_14 
REMARK    4  A    between atoms: C_10  and  N_14 
REMARK    5  A    between atoms: C_10  and  C_16 
REMARK    6  A    between atoms: O_12  and  C_15 
REMARK    7  A    between atoms: C_15  and  C_22 
REMARK    8  A    between atoms: C_22  and  O_23 
ROOT
HETATM    1  C   UNK N   1      29.580  22.373  -6.037  0.00  0.00     0.080 A 
HETATM    2  C   UNK N   1      27.802  21.235  -7.846  0.00  0.00     0.020 A 
HETATM    3  C   UNK N   1      28.318  22.960  -6.208  0.00  0.00     0.085 A 
HETATM    4  C   UNK N   1      29.949  21.238  -6.761  0.00  0.00     0.119 A 
HETATM    5  C   UNK N   1      29.065  20.678  -7.674  0.00  0.00     0.043 A 
HETATM    6  C   UNK N   1      27.386  22.365  -7.120  0.00  0.00     0.035 A 
HETATM    7  F   UNK N   1      31.174  20.686  -6.583  0.00  0.00    -0.206 F 
ENDROOT
BRANCH   6   8
HETATM    8  C   UNK N   1      25.969  22.806  -7.351  0.00  0.00     0.110 C 
HETATM    9  S   UNK N   1      25.028  22.019  -8.111  0.00  0.00    -0.060 SA
BRANCH   8  10
HETATM   10  N   UNK N   1      25.633  24.138  -6.976  0.00  0.00    -0.376 N 
HETATM   11  H   UNK N   1      25.347  24.288  -6.046  0.00  0.00     0.160 HD
BRANCH  10  12
HETATM   12  C   UNK N   1      25.676  25.288  -7.847  0.00  0.00     0.162 C 
BRANCH  12  13
HETATM   13  C   UNK N   1      26.224  26.504  -7.147  0.00  0.00    -0.002 A 
HETATM   14  C   UNK N   1      27.395  27.071  -7.663  0.00  0.00     0.013 A 
HETATM   15  C   UNK N   1      27.964  28.198  -7.065  0.00  0.00     0.020 A 
HETATM   16  C   UNK N   1      27.366  28.769  -5.940  0.00  0.00     0.013 A 
HETATM   17 Br   UNK N   1      28.138  30.304  -5.120  0.00  0.00    -0.051 Br
HETATM   18  C   UNK N   1      26.202  28.215  -5.411  0.00  0.00     0.062 A 
HETATM   19  C   UNK N   1      25.624  27.090  -6.001  0.00  0.00     0.125 A 
HETATM   20  F   UNK N   1      24.497  26.583  -5.444  0.00  0.00    -0.205 F 
ENDBRANCH  12  13
ENDBRANCH  10  12
ENDBRANCH   8  10
ENDBRANCH   6   8
BRANCH   3  21
HETATM   21  O   UNK N   1      28.048  24.080  -5.500  0.00  0.00    -0.340 OA
BRANCH  21  22
HETATM   22  C   UNK N   1      28.361  24.180  -4.162  0.00  0.00     0.285 C 
BRANCH  22  23
HETATM   23  C   UNK N   1      27.121  24.068  -3.338  0.00  0.00     0.164 C 
HETATM   24  O   UNK N   1      27.203  23.793  -2.152  0.00  0.00    -0.648 OA
BRANCH  23  25
HETATM   25  O   UNK N   1      25.915  24.273  -3.896  0.00  0.00    -0.775 OA
HETATM   26  H   UNK N   1      25.330  23.605  -4.200  0.00  0.00     0.167 HD
ENDBRANCH  23  25
ENDBRANCH  22  23
ENDBRANCH  21  22
ENDBRANCH   3  21
TORSDOF 8
ENDMDL
MODEL 3
REMARK VINA RESULT:      -6.5      3.101      5.940
REMARK  8 active torsions:
REMARK  status: ('A' for Active; 'I' for Inactive)
REMARK    1  A    between atoms: C_3  and  O_12 
REMARK    2  A    between atoms: C_6  and  C_9 
REMARK    3  A    between atoms: C_9  and  N_14 
REMARK    4  A    between atoms: C_10  and  N_14 
REMARK    5  A    between atoms: C_10  and  C_16 
REMARK    6  A    between atoms: O_12  and  C_15 
REMARK    7  A    between atoms: C_15  and  C_22 
REMARK    8  A    between atoms: C_22  and  O_23 
ROOT
HETATM    1  C   UNK N   1      32.706  17.802   8.364  0.00  0.00     0.080 A 
HETATM    2  C   UNK N   1      32.666  17.002   5.702  0.00  0.00     0.020 A 
HETATM    3  C   UNK N   1      31.553  17.183   7.860  0.00  0.00     0.085 A 
HETATM    4  C   UNK N   1      33.819  18.022   7.552  0.00  0.00     0.119 A 
HETATM    5  C   UNK N   1      33.793  17.633   6.218  0.00  0.00     0.043 A 
HETATM    6  C   UNK N   1      31.533  16.745   6.495  0.00  0.00     0.035 A 
HETATM    7  F   UNK N   1      34.923  18.623   8.056  0.00  0.00    -0.206 F 
ENDROOT
BRANCH   6   8
HETATM    8  C   UNK N   1      30.424  15.985   5.826  0.00  0.00     0.110 C 
HETATM    9  S   UNK N   1      30.547  14.591   5.470  0.00  0.00    -0.060 SA
BRANCH   8  10
HETATM   10  N   UNK N   1      29.312  16.738   5.354  0.00  0.00    -0.376 N 
HETATM   11  H   UNK N   1      29.400  17.170   4.474  0.00  0.00     0.160 HD
BRANCH  10  12
HETATM   12  C   UNK N   1      28.066  16.923   6.058  0.00  0.00     0.162 C 
BRANCH  12  13
HETATM   13  C   UNK N   1      27.143  17.866   5.332  0.00  0.00    -0.002 A 
HETATM   14  C   UNK N   1      26.354  17.332   4.306  0.00  0.00     0.013 A 
HETATM   15  C   UNK N   1      25.477  18.147   3.586  0.00  0.00     0.020 A 
HETATM   16  C   UNK N   1      25.382  19.506   3.885  0.00  0.00     0.013 A 
HETATM   17 Br   UNK N   1      24.188  20.621   2.906  0.00  0.00    -0.051 Br
HETATM   18  C   UNK N   1      26.163  20.055   4.900  0.00  0.00     0.062 A 
HETATM   19  C   UNK N   1      27.042  19.250   5.627  0.00  0.00     0.125 A 
HETATM   20  F   UNK N   1      27.786  19.833   6.599  0.00  0.00    -0.205 F 
ENDBRANCH  12  13
ENDBRANCH  10  12
ENDBRANCH   8  10
ENDBRANCH   6   8
BRANCH   3  21
HETATM   21  O   UNK N   1      30.502  17.041   8.698  0.00  0.00    -0.340 OA
BRANCH  21  22
HETATM   22  C   UNK N   1      29.793  18.130   9.157  0.00  0.00     0.285 C 
BRANCH  22  23
HETATM   23  C   UNK N   1      28.443  17.699   9.627  0.00  0.00     0.164 C 
HETATM   24  O   UNK N   1      28.334  16.717  10.342  0.00  0.00    -0.648 OA
BRANCH  23  25
HETATM   25  O   UNK N   1      27.347  18.391   9.267  0.00  0.00    -0.775 OA
HETATM   26  H   UNK N   1      27.306  19.047   8.598  0.00  0.00     0.167 HD
ENDBRANCH  23  25
ENDBRANCH  22  23
ENDBRANCH  21  22
ENDBRANCH   3  21
TORSDOF 8
ENDMDL
MODEL 4
REMARK VINA RESULT:      -6.4      9.308     11.703
REMARK  8 active torsions:
REMARK  status: ('A' for Active; 'I' for Inactive)
REMARK    1  A    between atoms: C_3  and  O_12 
REMARK    2  A    between atoms: C_6  and  C_9 
REMARK    3  A    between atoms: C_9  and  N_14 
REMARK    4  A    between atoms: C_10  and  N_14 
REMARK    5  A    between atoms: C_10  and  C_16 
REMARK    6  A    between atoms: O_12  and  C_15 
REMARK    7  A    between atoms: C_15  and  C_22 
REMARK    8  A    between atoms: C_22  and  O_23 
ROOT
HETATM    1  C   UNK N   1      35.962  14.351  13.871  0.00  0.00     0.080 A 
HETATM    2  C   UNK N   1      37.049  11.901  13.132  0.00  0.00     0.020 A 
HETATM    3  C   UNK N   1      35.520  13.743  12.688  0.00  0.00     0.085 A 
HETATM    4  C   UNK N   1      36.934  13.747  14.671  0.00  0.00     0.119 A 
HETATM    5  C   UNK N   1      37.486  12.530  14.293  0.00  0.00     0.043 A 
HETATM    6  C   UNK N   1      36.057  12.468  12.312  0.00  0.00     0.035 A 
HETATM    7  F   UNK N   1      37.350  14.351  15.810  0.00  0.00    -0.206 F 
ENDROOT
BRANCH   6   8
HETATM    8  C   UNK N   1      35.627  11.639  11.135  0.00  0.00     0.110 C 
HETATM    9  S   UNK N   1      36.488  11.403  10.001  0.00  0.00    -0.060 SA
BRANCH   8  10
HETATM   10  N   UNK N   1      34.255  11.263  11.070  0.00  0.00    -0.376 N 
HETATM   11  H   UNK N   1      33.651  11.847  10.557  0.00  0.00     0.160 HD
BRANCH  10  12
HETATM   12  C   UNK N   1      33.676  10.099  11.695  0.00  0.00     0.162 C 
BRANCH  12  13
HETATM   13  C   UNK N   1      34.211   9.882  13.086  0.00  0.00    -0.002 A 
HETATM   14  C   UNK N   1      33.694  10.687  14.107  0.00  0.00     0.013 A 
HETATM   15  C   UNK N   1      34.144  10.545  15.422  0.00  0.00     0.020 A 
HETATM   16  C   UNK N   1      35.120   9.595  15.728  0.00  0.00     0.013 A 
HETATM   17 Br   UNK N   1      35.738   9.398  17.518  0.00  0.00    -0.051 Br
HETATM   18  C   UNK N   1      35.648   8.788  14.722  0.00  0.00     0.062 A 
HETATM   19  C   UNK N   1      35.205   8.920  13.405  0.00  0.00     0.125 A 
HETATM   20  F   UNK N   1      35.756   8.117  12.462  0.00  0.00    -0.205 F 
ENDBRANCH  12  13
ENDBRANCH  10  12
ENDBRANCH   8  10
ENDBRANCH   6   8
BRANCH   3  21
HETATM   21  O   UNK N   1      34.604  14.407  11.948  0.00  0.00    -0.340 OA
BRANCH  21  22
HETATM   22  C   UNK N   1      34.905  14.889  10.692  0.00  0.00     0.285 C 
BRANCH  22  23
HETATM   23  C   UNK N   1      35.735  16.125  10.805  0.00  0.00     0.164 C 
HETATM   24  O   UNK N   1      35.194  17.218  10.855  0.00  0.00    -0.648 OA
BRANCH  23  25
HETATM   25  O   UNK N   1      37.076  16.039  10.856  0.00  0.00    -0.775 OA
HETATM   26  H   UNK N   1      37.573  15.249  10.948  0.00  0.00     0.167 HD
ENDBRANCH  23  25
ENDBRANCH  22  23
ENDBRANCH  21  22
ENDBRANCH   3  21
TORSDOF 8
ENDMDL
MODEL 5
REMARK VINA RESULT:      -6.4      8.497     10.534
REMARK  8 active torsions:
REMARK  status: ('A' for Active; 'I' for Inactive)
REMARK    1  A    between atoms: C_3  and  O_12 
REMARK    2  A    between atoms: C_6  and  C_9 
REMARK    3  A    between atoms: C_9  and  N_14 
REMARK    4  A    between atoms: C_10  and  N_14 
REMARK    5  A    between atoms: C_10  and  C_16 
REMARK    6  A    between atoms: O_12  and  C_15 
REMARK    7  A    between atoms: C_15  and  C_22 
REMARK    8  A    between atoms: C_22  and  O_23 
ROOT
HETATM    1  C   UNK N   1      20.302  13.571  10.093  0.00  0.00     0.080 A 
HETATM    2  C   UNK N   1      22.897  13.078   9.226  0.00  0.00     0.020 A 
HETATM    3  C   UNK N   1      20.782  14.254   8.967  0.00  0.00     0.085 A 
HETATM    4  C   UNK N   1      21.107  12.659  10.778  0.00  0.00     0.119 A 
HETATM    5  C   UNK N   1      22.407  12.423  10.351  0.00  0.00     0.043 A 
HETATM    6  C   UNK N   1      22.110  13.987   8.498  0.00  0.00     0.035 A 
HETATM    7  F   UNK N   1      20.627  12.009  11.866  0.00  0.00    -0.206 F 
ENDROOT
BRANCH   6   8
HETATM    8  C   UNK N   1      22.742  14.556   7.260  0.00  0.00     0.110 C 
HETATM    9  S   UNK N   1      23.963  14.026   6.702  0.00  0.00    -0.060 SA
BRANCH   8  10
HETATM   10  N   UNK N   1      22.216  15.783   6.765  0.00  0.00    -0.376 N 
HETATM   11  H   UNK N   1      21.345  16.076   7.119  0.00  0.00     0.160 HD
BRANCH  10  12
HETATM   12  C   UNK N   1      22.851  16.634   5.788  0.00  0.00     0.162 C 
BRANCH  12  13
HETATM   13  C   UNK N   1      22.070  16.695   4.502  0.00  0.00    -0.002 A 
HETATM   14  C   UNK N   1      22.179  15.605   3.630  0.00  0.00     0.013 A 
HETATM   15  C   UNK N   1      21.486  15.593   2.417  0.00  0.00     0.020 A 
HETATM   16  C   UNK N   1      20.678  16.674   2.062  0.00  0.00     0.013 A 
HETATM   17 Br   UNK N   1      19.733  16.662   0.410  0.00  0.00    -0.051 Br
HETATM   18  C   UNK N   1      20.562  17.769   2.917  0.00  0.00     0.062 A 
HETATM   19  C   UNK N   1      21.248  17.792   4.132  0.00  0.00     0.125 A 
HETATM   20  F   UNK N   1      21.109  18.883   4.924  0.00  0.00    -0.205 F 
ENDBRANCH  12  13
ENDBRANCH  10  12
ENDBRANCH   8  10
ENDBRANCH   6   8
BRANCH   3  21
HETATM   21  O   UNK N   1      19.957  15.150   8.381  0.00  0.00    -0.340 OA
BRANCH  21  22
HETATM   22  C   UNK N   1      19.162  15.994   9.126  0.00  0.00     0.285 C 
BRANCH  22  23
HETATM   23  C   UNK N   1      19.530  17.415   8.854  0.00  0.00     0.164 C 
HETATM   24  O   UNK N   1      20.469  17.668   8.116  0.00  0.00    -0.648 OA
BRANCH  23  25
HETATM   25  O   UNK N   1      18.831  18.417   9.416  0.00  0.00    -0.775 OA
HETATM   26  H   UNK N   1      19.119  19.305   9.507  0.00  0.00     0.167 HD
ENDBRANCH  23  25
ENDBRANCH  22  23
ENDBRANCH  21  22
ENDBRANCH   3  21
TORSDOF 8
ENDMDL
MODEL 6
REMARK VINA RESULT:      -6.4      9.441     10.612
REMARK  8 active torsions:
REMARK  status: ('A' for Active; 'I' for Inactive)
REMARK    1  A    between atoms: C_3  and  O_12 
REMARK    2  A    between atoms: C_6  and  C_9 
REMARK    3  A    between atoms: C_9  and  N_14 
REMARK    4  A    between atoms: C_10  and  N_14 
REMARK    5  A    between atoms: C_10  and  C_16 
REMARK    6  A    between atoms: O_12  and  C_15 
REMARK    7  A    between atoms: C_15  and  C_22 
REMARK    8  A    between atoms: C_22  and  O_23 
ROOT
HETATM    1  C   UNK N   1      19.952  17.294   1.026  0.00  0.00     0.080 A 
HETATM    2  C   UNK N   1      20.402  14.875   2.319  0.00  0.00     0.020 A 
HETATM    3  C   UNK N   1      20.620  17.299   2.258  0.00  0.00     0.085 A 
HETATM    4  C   UNK N   1      19.513  16.102   0.450  0.00  0.00     0.119 A 
HETATM    5  C   UNK N   1      19.727  14.895   1.104  0.00  0.00     0.043 A 
HETATM    6  C   UNK N   1      20.879  16.054   2.920  0.00  0.00     0.035 A 
HETATM    7  F   UNK N   1      18.868  16.117  -0.741  0.00  0.00    -0.206 F 
ENDROOT
BRANCH   6   8
HETATM    8  C   UNK N   1      21.660  15.872   4.190  0.00  0.00     0.110 C 
HETATM    9  S   UNK N   1      23.000  15.337   4.204  0.00  0.00    -0.060 SA
BRANCH   8  10
HETATM   10  N   UNK N   1      20.957  16.045   5.417  0.00  0.00    -0.376 N 
HETATM   11  H   UNK N   1      21.118  16.877   5.917  0.00  0.00     0.160 HD
BRANCH  10  12
HETATM   12  C   UNK N   1      20.028  15.101   5.989  0.00  0.00     0.162 C 
BRANCH  12  13
HETATM   13  C   UNK N   1      20.584  14.443   7.225  0.00  0.00    -0.002 A 
HETATM   14  C   UNK N   1      21.085  13.143   7.092  0.00  0.00     0.013 A 
HETATM   15  C   UNK N   1      21.613  12.468   8.195  0.00  0.00     0.020 A 
HETATM   16  C   UNK N   1      21.642  13.087   9.445  0.00  0.00     0.013 A 
HETATM   17 Br   UNK N   1      22.360  12.171  10.952  0.00  0.00    -0.051 Br
HETATM   18  C   UNK N   1      21.143  14.380   9.596  0.00  0.00     0.062 A 
HETATM   19  C   UNK N   1      20.615  15.064   8.500  0.00  0.00     0.125 A 
HETATM   20  F   UNK N   1      20.135  16.317   8.700  0.00  0.00    -0.205 F 
ENDBRANCH  12  13
ENDBRANCH  10  12
ENDBRANCH   8  10
ENDBRANCH   6   8
BRANCH   3  21
HETATM   21  O   UNK N   1      20.981  18.497   2.770  0.00  0.00    -0.340 OA
BRANCH  21  22
HETATM   22  C   UNK N   1      20.263  19.642   2.500  0.00  0.00     0.285 C 
BRANCH  22  23
HETATM   23  C   UNK N   1      21.151  20.666   1.874  0.00  0.00     0.164 C 
HETATM   24  O   UNK N   1      21.357  20.638   0.672  0.00  0.00    -0.648 OA
BRANCH  23  25
HETATM   25  O   UNK N   1      21.724  21.620   2.629  0.00  0.00    -0.775 OA
HETATM   26  H   UNK N   1      21.342  22.027   3.383  0.00  0.00     0.167 HD
ENDBRANCH  23  25
ENDBRANCH  22  23
ENDBRANCH  21  22
ENDBRANCH   3  21
TORSDOF 8
ENDMDL
MODEL 7
REMARK VINA RESULT:      -6.3      3.708      5.636
REMARK  8 active torsions:
REMARK  status: ('A' for Active; 'I' for Inactive)
REMARK    1  A    between atoms: C_3  and  O_12 
REMARK    2  A    between atoms: C_6  and  C_9 
REMARK    3  A    between atoms: C_9  and  N_14 
REMARK    4  A    between atoms: C_10  and  N_14 
REMARK    5  A    between atoms: C_10  and  C_16 
REMARK    6  A    between atoms: O_12  and  C_15 
REMARK    7  A    between atoms: C_15  and  C_22 
REMARK    8  A    between atoms: C_22  and  O_23 
ROOT
HETATM    1  C   UNK N   1      31.183  18.054   8.852  0.00  0.00     0.080 A 
HETATM    2  C   UNK N   1      28.977  17.266   7.355  0.00  0.00     0.020 A 
HETATM    3  C   UNK N   1      31.387  17.277   7.703  0.00  0.00     0.085 A 
HETATM    4  C   UNK N   1      29.899  18.429   9.249  0.00  0.00     0.119 A 
HETATM    5  C   UNK N   1      28.797  18.024   8.508  0.00  0.00     0.043 A 
HETATM    6  C   UNK N   1      30.257  16.887   6.912  0.00  0.00     0.035 A 
HETATM    7  F   UNK N   1      29.722  19.179  10.364  0.00  0.00    -0.206 F 
ENDROOT
BRANCH   6   8
HETATM    8  C   UNK N   1      30.304  16.141   5.609  0.00  0.00     0.110 C 
HETATM    9  S   UNK N   1      30.521  14.715   5.542  0.00  0.00    -0.060 SA
BRANCH   8  10
HETATM   10  N   UNK N   1      30.343  16.917   4.416  0.00  0.00    -0.376 N 
HETATM   11  H   UNK N   1      31.032  17.617   4.354  0.00  0.00     0.160 HD
BRANCH  10  12
HETATM   12  C   UNK N   1      29.454  16.764   3.289  0.00  0.00     0.162 C 
BRANCH  12  13
HETATM   13  C   UNK N   1      28.046  17.183   3.622  0.00  0.00    -0.002 A 
HETATM   14  C   UNK N   1      27.020  16.273   3.341  0.00  0.00     0.013 A 
HETATM   15  C   UNK N   1      25.689  16.593   3.619  0.00  0.00     0.020 A 
HETATM   16  C   UNK N   1      25.370  17.831   4.180  0.00  0.00     0.013 A 
HETATM   17 Br   UNK N   1      23.558  18.272   4.560  0.00  0.00    -0.051 Br
HETATM   18  C   UNK N   1      26.379  18.750   4.461  0.00  0.00     0.062 A 
HETATM   19  C   UNK N   1      27.713  18.440   4.189  0.00  0.00     0.125 A 
HETATM   20  F   UNK N   1      28.656  19.372   4.473  0.00  0.00    -0.205 F 
ENDBRANCH  12  13
ENDBRANCH  10  12
ENDBRANCH   8  10
ENDBRANCH   6   8
BRANCH   3  21
HETATM   21  O   UNK N   1      32.657  16.922   7.405  0.00  0.00    -0.340 OA
BRANCH  21  22
HETATM   22  C   UNK N   1      33.607  17.860   7.062  0.00  0.00     0.285 C 
BRANCH  22  23
HETATM   23  C   UNK N   1      34.532  18.091   8.210  0.00  0.00     0.164 C 
HETATM   24  O   UNK N   1      35.064  19.180   8.352  0.00  0.00    -0.648 OA
BRANCH  23  25
HETATM   25  O   UNK N   1      34.781  17.105   9.091  0.00  0.00    -0.775 OA
HETATM   26  H   UNK N   1      34.298  16.306   9.171  0.00  0.00     0.167 HD
ENDBRANCH  23  25
ENDBRANCH  22  23
ENDBRANCH  21  22
ENDBRANCH   3  21
TORSDOF 8
ENDMDL
MODEL 8
REMARK VINA RESULT:      -6.3      3.956      6.355
REMARK  8 active torsions:
REMARK  status: ('A' for Active; 'I' for Inactive)
REMARK    1  A    between atoms: C_3  and  O_12 
REMARK    2  A    between atoms: C_6  and  C_9 
REMARK    3  A    between atoms: C_9  and  N_14 
REMARK    4  A    between atoms: C_10  and  N_14 
REMARK    5  A    between atoms: C_10  and  C_16 
REMARK    6  A    between atoms: O_12  and  C_15 
REMARK    7  A    between atoms: C_15  and  C_22 
REMARK    8  A    between atoms: C_22  and  O_23 
ROOT
HETATM    1  C   UNK N   1      30.581  17.952   8.489  0.00  0.00     0.080 A 
HETATM    2  C   UNK N   1      27.964  17.409   7.726  0.00  0.00     0.020 A 
HETATM    3  C   UNK N   1      30.351  17.310   7.264  0.00  0.00     0.085 A 
HETATM    4  C   UNK N   1      29.522  18.315   9.321  0.00  0.00     0.119 A 
HETATM    5  C   UNK N   1      28.215  18.031   8.945  0.00  0.00     0.043 A 
HETATM    6  C   UNK N   1      29.004  17.049   6.852  0.00  0.00     0.035 A 
HETATM    7  F   UNK N   1      29.763  18.933  10.502  0.00  0.00    -0.206 F 
ENDROOT
BRANCH   6   8
HETATM    8  C   UNK N   1      28.579  16.459   5.537  0.00  0.00     0.110 C 
HETATM    9  S   UNK N   1      28.627  15.041   5.274  0.00  0.00    -0.060 SA
BRANCH   8  10
HETATM   10  N   UNK N   1      28.325  17.366   4.469  0.00  0.00    -0.376 N 
HETATM   11  H   UNK N   1      28.422  17.023   3.551  0.00  0.00     0.160 HD
BRANCH  10  12
HETATM   12  C   UNK N   1      27.940  18.749   4.619  0.00  0.00     0.162 C 
BRANCH  12  13
HETATM   13  C   UNK N   1      26.487  18.967   4.287  0.00  0.00    -0.002 A 
HETATM   14  C   UNK N   1      25.559  18.078   4.841  0.00  0.00     0.013 A 
HETATM   15  C   UNK N   1      24.195  18.216   4.576  0.00  0.00     0.020 A 
HETATM   16  C   UNK N   1      23.744  19.246   3.750  0.00  0.00     0.013 A 
HETATM   17 Br   UNK N   1      21.886  19.438   3.384  0.00  0.00    -0.051 Br
HETATM   18  C   UNK N   1      24.655  20.138   3.186  0.00  0.00     0.062 A 
HETATM   19  C   UNK N   1      26.021  20.011   3.446  0.00  0.00     0.125 A 
HETATM   20  F   UNK N   1      26.867  20.899   2.867  0.00  0.00    -0.205 F 
ENDBRANCH  12  13
ENDBRANCH  10  12
ENDBRANCH   8  10
ENDBRANCH   6   8
BRANCH   3  21
HETATM   21  O   UNK N   1      31.431  16.956   6.531  0.00  0.00    -0.340 OA
BRANCH  21  22
HETATM   22  C   UNK N   1      32.664  16.755   7.113  0.00  0.00     0.285 C 
BRANCH  22  23
HETATM   23  C   UNK N   1      33.693  17.595   6.431  0.00  0.00     0.164 C 
HETATM   24  O   UNK N   1      34.629  18.048   7.070  0.00  0.00    -0.648 OA
BRANCH  23  25
HETATM   25  O   UNK N   1      33.595  17.851   5.114  0.00  0.00    -0.775 OA
HETATM   26  H   UNK N   1      33.257  17.265   4.464  0.00  0.00     0.167 HD
ENDBRANCH  23  25
ENDBRANCH  22  23
ENDBRANCH  21  22
ENDBRANCH   3  21
TORSDOF 8
ENDMDL
MODEL 9
REMARK VINA RESULT:      -6.3      8.314     10.628
REMARK  8 active torsions:
REMARK  status: ('A' for Active; 'I' for Inactive)
REMARK    1  A    between atoms: C_3  and  O_12 
REMARK    2  A    between atoms: C_6  and  C_9 
REMARK    3  A    between atoms: C_9  and  N_14 
REMARK    4  A    between atoms: C_10  and  N_14 
REMARK    5  A    between atoms: C_10  and  C_16 
REMARK    6  A    between atoms: O_12  and  C_15 
REMARK    7  A    between atoms: C_15  and  C_22 
REMARK    8  A    between atoms: C_22  and  O_23 
ROOT
HETATM    1  C   UNK N   1      24.047  20.587   3.027  0.00  0.00     0.080 A 
HETATM    2  C   UNK N   1      24.734  18.024   3.856  0.00  0.00     0.020 A 
HETATM    3  C   UNK N   1      23.032  19.715   3.446  0.00  0.00     0.085 A 
HETATM    4  C   UNK N   1      25.383  20.185   3.019  0.00  0.00     0.119 A 
HETATM    5  C   UNK N   1      25.724  18.900   3.421  0.00  0.00     0.043 A 
HETATM    6  C   UNK N   1      23.380  18.400   3.898  0.00  0.00     0.035 A 
HETATM    7  F   UNK N   1      26.350  21.041   2.610  0.00  0.00    -0.206 F 
ENDROOT
BRANCH   6   8
HETATM    8  C   UNK N   1      22.435  17.380   4.466  0.00  0.00     0.110 C 
HETATM    9  S   UNK N   1      22.763  16.582   5.623  0.00  0.00    -0.060 SA
BRANCH   8  10
HETATM   10  N   UNK N   1      21.278  17.067   3.697  0.00  0.00    -0.376 N 
HETATM   11  H   UNK N   1      21.256  17.381   2.765  0.00  0.00     0.160 HD
BRANCH  10  12
HETATM   12  C   UNK N   1      20.133  16.327   4.172  0.00  0.00     0.162 C 
BRANCH  12  13
HETATM   13  C   UNK N   1      19.780  15.186   3.254  0.00  0.00    -0.002 A 
HETATM   14  C   UNK N   1      19.993  15.372   1.884  0.00  0.00     0.013 A 
HETATM   15  C   UNK N   1      19.686  14.359   0.972  0.00  0.00     0.020 A 
HETATM   16  C   UNK N   1      19.160  13.148   1.424  0.00  0.00     0.013 A 
HETATM   17 Br   UNK N   1      18.739  11.765   0.185  0.00  0.00    -0.051 Br
HETATM   18  C   UNK N   1      18.938  12.948   2.785  0.00  0.00     0.062 A 
HETATM   19  C   UNK N   1      19.242  13.952   3.705  0.00  0.00     0.125 A 
HETATM   20  F   UNK N   1      19.000  13.711   5.017  0.00  0.00    -0.205 F 
ENDBRANCH  12  13
ENDBRANCH  10  12
ENDBRANCH   8  10
ENDBRANCH   6   8
BRANCH   3  21
HETATM   21  O   UNK N   1      21.758  20.164   3.388  0.00  0.00    -0.340 OA
BRANCH  21  22
HETATM   22  C   UNK N   1      21.333  21.001   2.379  0.00  0.00     0.285 C 
BRANCH  22  23
HETATM   23  C   UNK N   1      20.911  20.197   1.194  0.00  0.00     0.164 C 
HETATM   24  O   UNK N   1      21.098  20.630   0.068  0.00  0.00    -0.648 OA
BRANCH  23  25
HETATM   25  O   UNK N   1      20.327  18.997   1.361  0.00  0.00    -0.775 OA
HETATM   26  H   UNK N   1      20.598  18.334   1.967  0.00  0.00     0.167 HD
ENDBRANCH  23  25
ENDBRANCH  22  23
ENDBRANCH  21  22
ENDBRANCH   3  21
TORSDOF 8
ENDMDL
