MODEL 1
REMARK VINA RESULT:      -5.8      0.000      0.000
REMARK  7 active torsions:
REMARK  status: ('A' for Active; 'I' for Inactive)
REMARK    1  A    between atoms: C_2  and  C_3 
REMARK    2  A    between atoms: C_3  and  C_4 
REMARK    3  A    between atoms: C_4  and  C_5 
REMARK    4  A    between atoms: C_5  and  C_6 
REMARK    5  A    between atoms: C_6  and  C_7 
REMARK    6  A    between atoms: C_12  and  C_13 
REMARK    7  A    between atoms: C_13  and  C_15 
ROOT
HETATM    1  C   UNK N   1      26.916  24.206  -4.614  0.00  0.00    -0.058 A 
HETATM    2  C   UNK N   1      28.022  23.808  -5.374  0.00  0.00     0.008 A 
HETATM    3  C   UNK N   1      29.203  23.397  -4.735  0.00  0.00     0.016 A 
HETATM    4  C   UNK N   1      27.009  24.188  -3.214  0.00  0.00     0.008 A 
HETATM    5  C   UNK N   1      28.179  23.781  -2.582  0.00  0.00     0.016 A 
HETATM    6  C   UNK N   1      29.290  23.380  -3.332  0.00  0.00     0.014 A 
ENDROOT
BRANCH   1   7
HETATM    7  C   UNK N   1      25.647  24.648  -5.299  0.00  0.00     0.038 C 
BRANCH   7   8
HETATM    8  C   UNK N   1      25.941  25.099  -6.725  0.00  0.00     0.005 C 
BRANCH   8   9
HETATM    9  C   UNK N   1      25.636  26.548  -7.010  0.00  0.00     0.000 C 
BRANCH   9  10
HETATM   10  C   UNK N   1      25.138  27.112  -5.695  0.00  0.00    -0.000 C 
BRANCH  10  11
HETATM   11  C   UNK N   1      26.132  28.061  -5.074  0.00  0.00    -0.005 C 
HETATM   12  C   UNK N   1      25.796  28.206  -3.603  0.00  0.00     0.005 C 
ENDBRANCH  10  11
ENDBRANCH   9  10
ENDBRANCH   8   9
ENDBRANCH   7   8
ENDBRANCH   1   7
BRANCH   6  13
HETATM   13  C   UNK N   1      30.521  22.952  -2.603  0.00  0.00     0.181 C 
HETATM   14  O   UNK N   1      30.514  22.969  -1.383  0.00  0.00    -0.288 OA
BRANCH  13  15
HETATM   15  C   UNK N   1      31.768  22.502  -3.269  0.00  0.00     0.045 C 
HETATM   16  C   UNK N   1      32.471  21.433  -2.904  0.00  0.00     0.015 C 
ENDBRANCH  13  15
ENDBRANCH   6  13
TORSDOF 7
ENDMDL
MODEL 2
REMARK VINA RESULT:      -5.6     23.681     27.377
REMARK  7 active torsions:
REMARK  status: ('A' for Active; 'I' for Inactive)
REMARK    1  A    between atoms: C_2  and  C_3 
REMARK    2  A    between atoms: C_3  and  C_4 
REMARK    3  A    between atoms: C_4  and  C_5 
REMARK    4  A    between atoms: C_5  and  C_6 
REMARK    5  A    between atoms: C_6  and  C_7 
REMARK    6  A    between atoms: C_12  and  C_13 
REMARK    7  A    between atoms: C_13  and  C_15 
ROOT
HETATM    1  C   UNK N   1      35.585  11.227  19.179  0.00  0.00    -0.058 A 
HETATM    2  C   UNK N   1      35.982  10.533  18.030  0.00  0.00     0.008 A 
HETATM    3  C   UNK N   1      35.954  11.170  16.779  0.00  0.00     0.016 A 
HETATM    4  C   UNK N   1      35.162  12.560  19.058  0.00  0.00     0.008 A 
HETATM    5  C   UNK N   1      35.135  13.190  17.819  0.00  0.00     0.016 A 
HETATM    6  C   UNK N   1      35.529  12.506  16.664  0.00  0.00     0.014 A 
ENDROOT
BRANCH   1   7
HETATM    7  C   UNK N   1      35.615  10.545  20.523  0.00  0.00     0.038 C 
BRANCH   7   8
HETATM    8  C   UNK N   1      34.260   9.919  20.833  0.00  0.00     0.005 C 
BRANCH   8   9
HETATM    9  C   UNK N   1      34.119   8.474  20.429  0.00  0.00     0.000 C 
BRANCH   9  10
HETATM   10  C   UNK N   1      32.854   8.419  19.597  0.00  0.00    -0.000 C 
BRANCH  10  11
HETATM   11  C   UNK N   1      31.627   8.747  20.410  0.00  0.00    -0.005 C 
HETATM   12  C   UNK N   1      30.509   7.818  19.979  0.00  0.00     0.005 C 
ENDBRANCH  10  11
ENDBRANCH   9  10
ENDBRANCH   8   9
ENDBRANCH   7   8
ENDBRANCH   1   7
BRANCH   6  13
HETATM   13  C   UNK N   1      35.480  13.230  15.358  0.00  0.00     0.181 C 
HETATM   14  O   UNK N   1      34.468  13.145  14.681  0.00  0.00    -0.288 OA
BRANCH  13  15
HETATM   15  C   UNK N   1      36.590  14.054  14.822  0.00  0.00     0.045 C 
HETATM   16  C   UNK N   1      37.179  15.046  15.487  0.00  0.00     0.015 C 
ENDBRANCH  13  15
ENDBRANCH   6  13
TORSDOF 7
ENDMDL
MODEL 3
REMARK VINA RESULT:      -5.4     23.877     27.582
REMARK  7 active torsions:
REMARK  status: ('A' for Active; 'I' for Inactive)
REMARK    1  A    between atoms: C_2  and  C_3 
REMARK    2  A    between atoms: C_3  and  C_4 
REMARK    3  A    between atoms: C_4  and  C_5 
REMARK    4  A    between atoms: C_5  and  C_6 
REMARK    5  A    between atoms: C_6  and  C_7 
REMARK    6  A    between atoms: C_12  and  C_13 
REMARK    7  A    between atoms: C_13  and  C_15 
ROOT
HETATM    1  C   UNK N   1      35.674  11.117  19.350  0.00  0.00    -0.058 A 
HETATM    2  C   UNK N   1      35.234  12.445  19.316  0.00  0.00     0.008 A 
HETATM    3  C   UNK N   1      35.142  13.124  18.090  0.00  0.00     0.016 A 
HETATM    4  C   UNK N   1      36.019  10.482  18.147  0.00  0.00     0.008 A 
HETATM    5  C   UNK N   1      35.928  11.155  16.934  0.00  0.00     0.016 A 
HETATM    6  C   UNK N   1      35.489  12.482  16.887  0.00  0.00     0.014 A 
ENDROOT
BRANCH   1   7
HETATM    7  C   UNK N   1      35.773  10.387  20.666  0.00  0.00     0.038 C 
BRANCH   7   8
HETATM    8  C   UNK N   1      34.871   9.158  20.662  0.00  0.00     0.005 C 
BRANCH   8   9
HETATM    9  C   UNK N   1      33.400   9.448  20.814  0.00  0.00     0.000 C 
BRANCH   9  10
HETATM   10  C   UNK N   1      32.736   8.731  19.654  0.00  0.00    -0.000 C 
BRANCH  10  11
HETATM   11  C   UNK N   1      31.299   8.385  19.952  0.00  0.00    -0.005 C 
HETATM   12  C   UNK N   1      31.264   7.549  21.216  0.00  0.00     0.005 C 
ENDBRANCH  10  11
ENDBRANCH   9  10
ENDBRANCH   8   9
ENDBRANCH   7   8
ENDBRANCH   1   7
BRANCH   6  13
HETATM   13  C   UNK N   1      35.410  13.158  15.558  0.00  0.00     0.181 C 
HETATM   14  O   UNK N   1      34.379  13.059  14.913  0.00  0.00    -0.288 OA
BRANCH  13  15
HETATM   15  C   UNK N   1      36.513  13.950  14.961  0.00  0.00     0.045 C 
HETATM   16  C   UNK N   1      37.194  14.895  15.604  0.00  0.00     0.015 C 
ENDBRANCH  13  15
ENDBRANCH   6  13
TORSDOF 7
ENDMDL
MODEL 4
REMARK VINA RESULT:      -5.4     10.785     13.352
REMARK  7 active torsions:
REMARK  status: ('A' for Active; 'I' for Inactive)
REMARK    1  A    between atoms: C_2  and  C_3 
REMARK    2  A    between atoms: C_3  and  C_4 
REMARK    3  A    between atoms: C_4  and  C_5 
REMARK    4  A    between atoms: C_5  and  C_6 
REMARK    5  A    between atoms: C_6  and  C_7 
REMARK    6  A    between atoms: C_12  and  C_13 
REMARK    7  A    between atoms: C_13  and  C_15 
ROOT
HETATM    1  C   UNK N   1      30.592  17.215   6.385  0.00  0.00    -0.058 A 
HETATM    2  C   UNK N   1      30.598  17.533   7.748  0.00  0.00     0.008 A 
HETATM    3  C   UNK N   1      31.814  17.767   8.410  0.00  0.00     0.016 A 
HETATM    4  C   UNK N   1      31.814  17.136   5.699  0.00  0.00     0.008 A 
HETATM    5  C   UNK N   1      33.017  17.368   6.355  0.00  0.00     0.016 A 
HETATM    6  C   UNK N   1      33.035  17.687   7.717  0.00  0.00     0.014 A 
ENDROOT
BRANCH   1   7
HETATM    7  C   UNK N   1      29.287  16.963   5.673  0.00  0.00     0.038 C 
BRANCH   7   8
HETATM    8  C   UNK N   1      28.398  18.200   5.736  0.00  0.00     0.005 C 
BRANCH   8   9
HETATM    9  C   UNK N   1      28.175  18.892   4.416  0.00  0.00     0.000 C 
BRANCH   9  10
HETATM   10  C   UNK N   1      27.552  20.227   4.772  0.00  0.00    -0.000 C 
BRANCH  10  11
HETATM   11  C   UNK N   1      27.624  20.509   6.252  0.00  0.00    -0.005 C 
HETATM   12  C   UNK N   1      26.625  21.601   6.577  0.00  0.00     0.005 C 
ENDBRANCH  10  11
ENDBRANCH   9  10
ENDBRANCH   8   9
ENDBRANCH   7   8
ENDBRANCH   1   7
BRANCH   6  13
HETATM   13  C   UNK N   1      34.355  17.926   8.373  0.00  0.00     0.181 C 
HETATM   14  O   UNK N   1      35.045  18.851   7.976  0.00  0.00    -0.288 OA
BRANCH  13  15
HETATM   15  C   UNK N   1      34.891  17.107   9.487  0.00  0.00     0.045 C 
HETATM   16  C   UNK N   1      34.894  15.776   9.508  0.00  0.00     0.015 C 
ENDBRANCH  13  15
ENDBRANCH   6  13
TORSDOF 7
ENDMDL
MODEL 5
REMARK VINA RESULT:      -5.2     13.543     15.629
REMARK  7 active torsions:
REMARK  status: ('A' for Active; 'I' for Inactive)
REMARK    1  A    between atoms: C_2  and  C_3 
REMARK    2  A    between atoms: C_3  and  C_4 
REMARK    3  A    between atoms: C_4  and  C_5 
REMARK    4  A    between atoms: C_5  and  C_6 
REMARK    5  A    between atoms: C_6  and  C_7 
REMARK    6  A    between atoms: C_12  and  C_13 
REMARK    7  A    between atoms: C_13  and  C_15 
ROOT
HETATM    1  C   UNK N   1      32.082  17.011   7.164  0.00  0.00    -0.058 A 
HETATM    2  C   UNK N   1      33.163  17.897   7.218  0.00  0.00     0.008 A 
HETATM    3  C   UNK N   1      34.139  17.755   8.218  0.00  0.00     0.016 A 
HETATM    4  C   UNK N   1      31.991  15.987   8.120  0.00  0.00     0.008 A 
HETATM    5  C   UNK N   1      32.958  15.847   9.110  0.00  0.00     0.016 A 
HETATM    6  C   UNK N   1      34.044  16.727   9.173  0.00  0.00     0.014 A 
ENDROOT
BRANCH   1   7
HETATM    7  C   UNK N   1      31.033  17.161   6.091  0.00  0.00     0.038 C 
BRANCH   7   8
HETATM    8  C   UNK N   1      29.815  16.304   6.413  0.00  0.00     0.005 C 
BRANCH   8   9
HETATM    9  C   UNK N   1      28.514  17.058   6.516  0.00  0.00     0.000 C 
BRANCH   9  10
HETATM   10  C   UNK N   1      28.831  18.275   7.362  0.00  0.00    -0.000 C 
BRANCH  10  11
HETATM   11  C   UNK N   1      28.547  18.037   8.824  0.00  0.00    -0.005 C 
HETATM   12  C   UNK N   1      29.714  18.575   9.628  0.00  0.00     0.005 C 
ENDBRANCH  10  11
ENDBRANCH   9  10
ENDBRANCH   8   9
ENDBRANCH   7   8
ENDBRANCH   1   7
BRANCH   6  13
HETATM   13  C   UNK N   1      35.053  16.533  10.256  0.00  0.00     0.181 C 
HETATM   14  O   UNK N   1      35.875  17.413  10.454  0.00  0.00    -0.288 OA
BRANCH  13  15
HETATM   15  C   UNK N   1      35.126  15.328  11.119  0.00  0.00     0.045 C 
HETATM   16  C   UNK N   1      35.914  15.213  12.184  0.00  0.00     0.015 C 
ENDBRANCH  13  15
ENDBRANCH   6  13
TORSDOF 7
ENDMDL
MODEL 6
REMARK VINA RESULT:      -5.1      1.578      2.544
REMARK  7 active torsions:
REMARK  status: ('A' for Active; 'I' for Inactive)
REMARK    1  A    between atoms: C_2  and  C_3 
REMARK    2  A    between atoms: C_3  and  C_4 
REMARK    3  A    between atoms: C_4  and  C_5 
REMARK    4  A    between atoms: C_5  and  C_6 
REMARK    5  A    between atoms: C_6  and  C_7 
REMARK    6  A    between atoms: C_12  and  C_13 
REMARK    7  A    between atoms: C_13  and  C_15 
ROOT
HETATM    1  C   UNK N   1      26.995  26.288  -3.615  0.00  0.00    -0.058 A 
HETATM    2  C   UNK N   1      28.251  26.687  -4.084  0.00  0.00     0.008 A 
HETATM    3  C   UNK N   1      29.304  25.759  -4.153  0.00  0.00     0.016 A 
HETATM    4  C   UNK N   1      26.808  24.955  -3.217  0.00  0.00     0.008 A 
HETATM    5  C   UNK N   1      27.850  24.037  -3.285  0.00  0.00     0.016 A 
HETATM    6  C   UNK N   1      29.111  24.425  -3.753  0.00  0.00     0.014 A 
ENDROOT
BRANCH   1   7
HETATM    7  C   UNK N   1      25.864  27.283  -3.541  0.00  0.00     0.038 C 
BRANCH   7   8
HETATM    8  C   UNK N   1      25.444  27.716  -4.941  0.00  0.00     0.005 C 
BRANCH   8   9
HETATM    9  C   UNK N   1      24.929  26.607  -5.823  0.00  0.00     0.000 C 
BRANCH   9  10
HETATM   10  C   UNK N   1      25.771  26.682  -7.081  0.00  0.00    -0.000 C 
BRANCH  10  11
HETATM   11  C   UNK N   1      26.664  25.476  -7.237  0.00  0.00    -0.005 C 
HETATM   12  C   UNK N   1      25.953  24.278  -6.639  0.00  0.00     0.005 C 
ENDBRANCH  10  11
ENDBRANCH   9  10
ENDBRANCH   8   9
ENDBRANCH   7   8
ENDBRANCH   1   7
BRANCH   6  13
HETATM   13  C   UNK N   1      30.195  23.400  -3.805  0.00  0.00     0.181 C 
HETATM   14  O   UNK N   1      31.271  23.712  -4.289  0.00  0.00    -0.288 OA
BRANCH  13  15
HETATM   15  C   UNK N   1      30.051  22.011  -3.304  0.00  0.00     0.045 C 
HETATM   16  C   UNK N   1      30.715  20.964  -3.789  0.00  0.00     0.015 C 
ENDBRANCH  13  15
ENDBRANCH   6  13
TORSDOF 7
ENDMDL
MODEL 7
REMARK VINA RESULT:      -5.0     23.084     26.810
REMARK  7 active torsions:
REMARK  status: ('A' for Active; 'I' for Inactive)
REMARK    1  A    between atoms: C_2  and  C_3 
REMARK    2  A    between atoms: C_3  and  C_4 
REMARK    3  A    between atoms: C_4  and  C_5 
REMARK    4  A    between atoms: C_5  and  C_6 
REMARK    5  A    between atoms: C_6  and  C_7 
REMARK    6  A    between atoms: C_12  and  C_13 
REMARK    7  A    between atoms: C_13  and  C_15 
ROOT
HETATM    1  C   UNK N   1      35.465  11.136  18.021  0.00  0.00    -0.058 A 
HETATM    2  C   UNK N   1      36.123  10.683  16.872  0.00  0.00     0.008 A 
HETATM    3  C   UNK N   1      36.422  11.579  15.833  0.00  0.00     0.016 A 
HETATM    4  C   UNK N   1      35.112  12.491  18.114  0.00  0.00     0.008 A 
HETATM    5  C   UNK N   1      35.408  13.378  17.085  0.00  0.00     0.016 A 
HETATM    6  C   UNK N   1      36.066  12.936  15.932  0.00  0.00     0.014 A 
ENDROOT
BRANCH   1   7
HETATM    7  C   UNK N   1      35.143  10.174  19.137  0.00  0.00     0.038 C 
BRANCH   7   8
HETATM    8  C   UNK N   1      34.075   9.182  18.694  0.00  0.00     0.005 C 
BRANCH   8   9
HETATM    9  C   UNK N   1      33.611   8.226  19.764  0.00  0.00     0.000 C 
BRANCH   9  10
HETATM   10  C   UNK N   1      32.288   8.788  20.246  0.00  0.00    -0.000 C 
BRANCH  10  11
HETATM   11  C   UNK N   1      32.264   8.972  21.743  0.00  0.00    -0.005 C 
HETATM   12  C   UNK N   1      32.640  10.407  22.051  0.00  0.00     0.005 C 
ENDBRANCH  10  11
ENDBRANCH   9  10
ENDBRANCH   8   9
ENDBRANCH   7   8
ENDBRANCH   1   7
BRANCH   6  13
HETATM   13  C   UNK N   1      36.359  13.930  14.857  0.00  0.00     0.181 C 
HETATM   14  O   UNK N   1      37.072  14.884  15.122  0.00  0.00    -0.288 OA
BRANCH  13  15
HETATM   15  C   UNK N   1      35.837  13.835  13.472  0.00  0.00     0.045 C 
HETATM   16  C   UNK N   1      36.595  13.652  12.393  0.00  0.00     0.015 C 
ENDBRANCH  13  15
ENDBRANCH   6  13
TORSDOF 7
ENDMDL
MODEL 8
REMARK VINA RESULT:      -4.9      9.819     13.457
REMARK  7 active torsions:
REMARK  status: ('A' for Active; 'I' for Inactive)
REMARK    1  A    between atoms: C_2  and  C_3 
REMARK    2  A    between atoms: C_3  and  C_4 
REMARK    3  A    between atoms: C_4  and  C_5 
REMARK    4  A    between atoms: C_5  and  C_6 
REMARK    5  A    between atoms: C_6  and  C_7 
REMARK    6  A    between atoms: C_12  and  C_13 
REMARK    7  A    between atoms: C_13  and  C_15 
ROOT
HETATM    1  C   UNK N   1      29.596  17.413   6.677  0.00  0.00    -0.058 A 
HETATM    2  C   UNK N   1      29.534  17.586   5.290  0.00  0.00     0.008 A 
HETATM    3  C   UNK N   1      28.691  18.566   4.741  0.00  0.00     0.016 A 
HETATM    4  C   UNK N   1      28.808  18.230   7.502  0.00  0.00     0.008 A 
HETATM    5  C   UNK N   1      27.973  19.199   6.958  0.00  0.00     0.016 A 
HETATM    6  C   UNK N   1      27.903  19.382   5.572  0.00  0.00     0.014 A 
ENDROOT
BRANCH   1   7
HETATM    7  C   UNK N   1      30.501  16.361   7.268  0.00  0.00     0.038 C 
BRANCH   7   8
HETATM    8  C   UNK N   1      31.457  16.987   8.277  0.00  0.00     0.005 C 
BRANCH   8   9
HETATM    9  C   UNK N   1      32.492  17.910   7.686  0.00  0.00     0.000 C 
BRANCH   9  10
HETATM   10  C   UNK N   1      33.385  17.016   6.848  0.00  0.00    -0.000 C 
BRANCH  10  11
HETATM   11  C   UNK N   1      33.514  17.515   5.430  0.00  0.00    -0.005 C 
HETATM   12  C   UNK N   1      33.001  16.435   4.498  0.00  0.00     0.005 C 
ENDBRANCH  10  11
ENDBRANCH   9  10
ENDBRANCH   8   9
ENDBRANCH   7   8
ENDBRANCH   1   7
BRANCH   6  13
HETATM   13  C   UNK N   1      26.991  20.437   5.041  0.00  0.00     0.181 C 
HETATM   14  O   UNK N   1      26.629  21.329   5.791  0.00  0.00    -0.288 OA
BRANCH  13  15
HETATM   15  C   UNK N   1      26.488  20.476   3.645  0.00  0.00     0.045 C 
HETATM   16  C   UNK N   1      25.323  19.967   3.252  0.00  0.00     0.015 C 
ENDBRANCH  13  15
ENDBRANCH   6  13
TORSDOF 7
ENDMDL
MODEL 9
REMARK VINA RESULT:      -4.8     20.303     24.473
REMARK  7 active torsions:
REMARK  status: ('A' for Active; 'I' for Inactive)
REMARK    1  A    between atoms: C_2  and  C_3 
REMARK    2  A    between atoms: C_3  and  C_4 
REMARK    3  A    between atoms: C_4  and  C_5 
REMARK    4  A    between atoms: C_5  and  C_6 
REMARK    5  A    between atoms: C_6  and  C_7 
REMARK    6  A    between atoms: C_12  and  C_13 
REMARK    7  A    between atoms: C_13  and  C_15 
ROOT
HETATM    1  C   UNK N   1      35.426  12.996  16.386  0.00  0.00    -0.058 A 
HETATM    2  C   UNK N   1      36.471  13.872  16.075  0.00  0.00     0.008 A 
HETATM    3  C   UNK N   1      36.694  14.256  14.743  0.00  0.00     0.016 A 
HETATM    4  C   UNK N   1      34.612  12.512  15.350  0.00  0.00     0.008 A 
HETATM    5  C   UNK N   1      34.833  12.892  14.032  0.00  0.00     0.016 A 
HETATM    6  C   UNK N   1      35.875  13.768  13.709  0.00  0.00     0.014 A 
ENDROOT
BRANCH   1   7
HETATM    7  C   UNK N   1      35.185  12.583  17.816  0.00  0.00     0.038 C 
BRANCH   7   8
HETATM    8  C   UNK N   1      35.148  11.064  17.932  0.00  0.00     0.005 C 
BRANCH   8   9
HETATM    9  C   UNK N   1      36.366  10.354  17.398  0.00  0.00     0.000 C 
BRANCH   9  10
HETATM   10  C   UNK N   1      35.822   9.267  16.492  0.00  0.00    -0.000 C 
BRANCH  10  11
HETATM   11  C   UNK N   1      36.630   9.132  15.225  0.00  0.00    -0.005 C 
HETATM   12  C   UNK N   1      37.587  10.305  15.144  0.00  0.00     0.005 C 
ENDBRANCH  10  11
ENDBRANCH   9  10
ENDBRANCH   8   9
ENDBRANCH   7   8
ENDBRANCH   1   7
BRANCH   6  13
HETATM   13  C   UNK N   1      36.069  14.144  12.277  0.00  0.00     0.181 C 
HETATM   14  O   UNK N   1      36.389  13.275  11.483  0.00  0.00    -0.288 OA
BRANCH  13  15
HETATM   15  C   UNK N   1      35.897  15.519  11.748  0.00  0.00     0.045 C 
HETATM   16  C   UNK N   1      35.008  15.861  10.818  0.00  0.00     0.015 C 
ENDBRANCH  13  15
ENDBRANCH   6  13
TORSDOF 7
ENDMDL
