MODEL 1
REMARK VINA RESULT:      -6.1      0.000      0.000
REMARK  17 active torsions:
REMARK  status: ('A' for Active; 'I' for Inactive)
REMARK       I    between atoms: C_2  and  N_3 
REMARK    1  A    between atoms: C_2  and  C_12 
REMARK    2  A    between atoms: C_4  and  N_3 
REMARK    3  A    between atoms: C_4  and  C_9 
REMARK    4  A    between atoms: C_5  and  C_4 
REMARK    5  A    between atoms: C_6  and  C_5 
REMARK    6  A    between atoms: C_9  and  O_10 
REMARK    7  A    between atoms: C_12  and  C_13 
REMARK    8  A    between atoms: C_14  and  C_13 
REMARK    9  A    between atoms: C_15  and  C_14 
REMARK   10  A    between atoms: C_15  and  C_16 
REMARK   11  A    between atoms: C_17  and  C_16 
REMARK   12  A    between atoms: C_17  and  C_18 
REMARK   13  A    between atoms: C_18  and  C_19 
REMARK   14  A    between atoms: C_19  and  C_20 
REMARK   15  A    between atoms: C_20  and  C_21 
REMARK   16  A    between atoms: C_21  and  C_22 
REMARK   17  A    between atoms: C_22  and  N_23 
ROOT
HETATM    1  C   UNK N   1      25.562  20.540   3.887  0.00  0.00     0.009 C 
ENDROOT
BRANCH   1   2
HETATM    2  C   UNK N   1      24.463  19.582   3.442  0.00  0.00     0.103 C 
BRANCH   2   3
HETATM    3  C   UNK N   1      23.220  20.314   3.043  0.00  0.00     0.218 C 
HETATM    4  O   UNK N   1      23.254  21.527   2.906  0.00  0.00    -0.274 OA
HETATM    5  N   UNK N   1      22.082  19.608   2.798  0.00  0.00    -0.347 N 
HETATM    6  H   UNK N   1      22.150  18.629   2.868  0.00  0.00     0.163 HD
BRANCH   5   7
HETATM    7  C   UNK N   1      20.769  20.144   2.442  0.00  0.00     0.182 C 
BRANCH   7   8
HETATM    8  C   UNK N   1      20.725  20.848   1.102  0.00  0.00     0.163 C 
HETATM    9  O   UNK N   1      20.819  20.199   0.073  0.00  0.00    -0.648 OA
BRANCH   8  10
HETATM   10  O   UNK N   1      20.609  22.190   1.031  0.00  0.00    -0.775 OA
HETATM   11  H   UNK N   1      20.515  22.928   0.461  0.00  0.00     0.167 HD
ENDBRANCH   8  10
ENDBRANCH   7   8
BRANCH   7  12
HETATM   12  C   UNK N   1      19.731  19.020   2.504  0.00  0.00     0.040 C 
BRANCH  12  13
HETATM   13  C   UNK N   1      20.367  17.638   2.540  0.00  0.00    -0.020 C 
HETATM   14  C   UNK N   1      20.068  16.916   1.244  0.00  0.00     0.009 C 
HETATM   15  C   UNK N   1      19.777  16.842   3.688  0.00  0.00     0.009 C 
ENDBRANCH  12  13
ENDBRANCH   7  12
ENDBRANCH   5   7
ENDBRANCH   2   3
ENDBRANCH   1   2
BRANCH   1  16
HETATM   16  C   UNK N   1      25.946  20.324   5.343  0.00  0.00     0.000 C 
BRANCH  16  17
HETATM   17  C   UNK N   1      27.440  20.518   5.536  0.00  0.00     0.000 C 
BRANCH  17  18
HETATM   18  C   UNK N   1      28.107  19.227   5.973  0.00  0.00     0.000 C 
BRANCH  18  19
HETATM   19  C   UNK N   1      28.491  18.384   4.768  0.00  0.00     0.000 C 
BRANCH  19  20
HETATM   20  C   UNK N   1      29.643  17.466   5.116  0.00  0.00     0.000 C 
BRANCH  20  21
HETATM   21  C   UNK N   1      29.533  16.985   6.553  0.00  0.00     0.000 C 
BRANCH  21  22
HETATM   22  C   UNK N   1      30.917  16.774   7.159  0.00  0.00     0.002 C 
BRANCH  22  23
HETATM   23  C   UNK N   1      32.028  17.231   6.221  0.00  0.00     0.020 C 
BRANCH  23  24
HETATM   24  C   UNK N   1      33.271  16.375   6.410  0.00  0.00     0.129 C 
BRANCH  24  25
HETATM   25  N   UNK N   1      33.879  16.641   7.706  0.00  0.00    -0.352 N 
HETATM   26  C   UNK N   1      34.366  17.815   8.139  0.00  0.00     0.182 A 
HETATM   27  N   UNK N   1      34.869  17.693   9.384  0.00  0.00    -0.361 N 
HETATM   28  C   UNK N   1      34.690  16.401   9.729  0.00  0.00     0.106 A 
ATOM     29  HN  UNK N   1      35.295  18.427   9.949  1.00  0.00     0.166 HD
HETATM   30  C   UNK N   1      34.075  15.744   8.681  0.00  0.00     0.108 A 
ENDBRANCH  24  25
ENDBRANCH  23  24
ENDBRANCH  22  23
ENDBRANCH  21  22
ENDBRANCH  20  21
ENDBRANCH  19  20
ENDBRANCH  18  19
ENDBRANCH  17  18
ENDBRANCH  16  17
ENDBRANCH   1  16
TORSDOF 17
ENDMDL
MODEL 2
REMARK VINA RESULT:      -6.0     10.998     13.574
REMARK  17 active torsions:
REMARK  status: ('A' for Active; 'I' for Inactive)
REMARK       I    between atoms: C_2  and  N_3 
REMARK    1  A    between atoms: C_2  and  C_12 
REMARK    2  A    between atoms: C_4  and  N_3 
REMARK    3  A    between atoms: C_4  and  C_9 
REMARK    4  A    between atoms: C_5  and  C_4 
REMARK    5  A    between atoms: C_6  and  C_5 
REMARK    6  A    between atoms: C_9  and  O_10 
REMARK    7  A    between atoms: C_12  and  C_13 
REMARK    8  A    between atoms: C_14  and  C_13 
REMARK    9  A    between atoms: C_15  and  C_14 
REMARK   10  A    between atoms: C_15  and  C_16 
REMARK   11  A    between atoms: C_17  and  C_16 
REMARK   12  A    between atoms: C_17  and  C_18 
REMARK   13  A    between atoms: C_18  and  C_19 
REMARK   14  A    between atoms: C_19  and  C_20 
REMARK   15  A    between atoms: C_20  and  C_21 
REMARK   16  A    between atoms: C_21  and  C_22 
REMARK   17  A    between atoms: C_22  and  N_23 
ROOT
HETATM    1  C   UNK N   1      29.100  23.961  -4.595  0.00  0.00     0.009 C 
ENDROOT
BRANCH   1   2
HETATM    2  C   UNK N   1      28.183  24.004  -3.377  0.00  0.00     0.103 C 
BRANCH   2   3
HETATM    3  C   UNK N   1      26.991  24.877  -3.614  0.00  0.00     0.218 C 
HETATM    4  O   UNK N   1      25.876  24.380  -3.640  0.00  0.00    -0.274 OA
HETATM    5  N   UNK N   1      27.168  26.220  -3.755  0.00  0.00    -0.347 N 
HETATM    6  H   UNK N   1      28.089  26.553  -3.658  0.00  0.00     0.163 HD
BRANCH   5   7
HETATM    7  C   UNK N   1      26.141  27.223  -4.032  0.00  0.00     0.182 C 
BRANCH   7   8
HETATM    8  C   UNK N   1      26.361  28.550  -3.339  0.00  0.00     0.163 C 
HETATM    9  O   UNK N   1      26.996  28.593  -2.298  0.00  0.00    -0.648 OA
BRANCH   8  10
HETATM   10  O   UNK N   1      25.840  29.687  -3.845  0.00  0.00    -0.775 OA
HETATM   11  H   UNK N   1      25.717  30.204  -4.618  0.00  0.00     0.167 HD
ENDBRANCH   8  10
ENDBRANCH   7   8
BRANCH   7  12
HETATM   12  C   UNK N   1      26.013  27.409  -5.547  0.00  0.00     0.040 C 
BRANCH  12  13
HETATM   13  C   UNK N   1      27.353  27.311  -6.262  0.00  0.00    -0.020 C 
HETATM   14  C   UNK N   1      27.770  28.686  -6.735  0.00  0.00     0.009 C 
HETATM   15  C   UNK N   1      27.213  26.403  -7.470  0.00  0.00     0.009 C 
ENDBRANCH  12  13
ENDBRANCH   7  12
ENDBRANCH   5   7
ENDBRANCH   2   3
ENDBRANCH   1   2
BRANCH   1  16
HETATM   16  C   UNK N   1      30.566  23.890  -4.197  0.00  0.00     0.000 C 
BRANCH  16  17
HETATM   17  C   UNK N   1      30.721  23.212  -2.847  0.00  0.00     0.000 C 
BRANCH  17  18
HETATM   18  C   UNK N   1      31.495  21.914  -2.972  0.00  0.00     0.000 C 
BRANCH  18  19
HETATM   19  C   UNK N   1      30.701  20.887  -3.764  0.00  0.00     0.000 C 
BRANCH  19  20
HETATM   20  C   UNK N   1      31.567  20.273  -4.843  0.00  0.00     0.000 C 
BRANCH  20  21
HETATM   21  C   UNK N   1      31.142  20.760  -6.219  0.00  0.00     0.000 C 
BRANCH  21  22
HETATM   22  C   UNK N   1      29.623  20.740  -6.352  0.00  0.00     0.002 C 
BRANCH  22  23
HETATM   23  C   UNK N   1      29.172  20.909  -7.797  0.00  0.00     0.020 C 
BRANCH  23  24
HETATM   24  C   UNK N   1      28.451  22.236  -7.978  0.00  0.00     0.129 C 
BRANCH  24  25
HETATM   25  N   UNK N   1      27.037  22.094  -7.661  0.00  0.00    -0.352 N 
HETATM   26  C   UNK N   1      26.336  22.816  -6.773  0.00  0.00     0.182 A 
HETATM   27  N   UNK N   1      25.054  22.401  -6.726  0.00  0.00    -0.361 N 
HETATM   28  C   UNK N   1      24.962  21.387  -7.611  0.00  0.00     0.106 A 
ATOM     29  HN  UNK N   1      24.307  22.778  -6.142  1.00  0.00     0.166 HD
HETATM   30  C   UNK N   1      26.200  21.194  -8.193  0.00  0.00     0.108 A 
ENDBRANCH  24  25
ENDBRANCH  23  24
ENDBRANCH  22  23
ENDBRANCH  21  22
ENDBRANCH  20  21
ENDBRANCH  19  20
ENDBRANCH  18  19
ENDBRANCH  17  18
ENDBRANCH  16  17
ENDBRANCH   1  16
TORSDOF 17
ENDMDL
MODEL 3
REMARK VINA RESULT:      -5.8     10.630     12.054
REMARK  17 active torsions:
REMARK  status: ('A' for Active; 'I' for Inactive)
REMARK       I    between atoms: C_2  and  N_3 
REMARK    1  A    between atoms: C_2  and  C_12 
REMARK    2  A    between atoms: C_4  and  N_3 
REMARK    3  A    between atoms: C_4  and  C_9 
REMARK    4  A    between atoms: C_5  and  C_4 
REMARK    5  A    between atoms: C_6  and  C_5 
REMARK    6  A    between atoms: C_9  and  O_10 
REMARK    7  A    between atoms: C_12  and  C_13 
REMARK    8  A    between atoms: C_14  and  C_13 
REMARK    9  A    between atoms: C_15  and  C_14 
REMARK   10  A    between atoms: C_15  and  C_16 
REMARK   11  A    between atoms: C_17  and  C_16 
REMARK   12  A    between atoms: C_17  and  C_18 
REMARK   13  A    between atoms: C_18  and  C_19 
REMARK   14  A    between atoms: C_19  and  C_20 
REMARK   15  A    between atoms: C_20  and  C_21 
REMARK   16  A    between atoms: C_21  and  C_22 
REMARK   17  A    between atoms: C_22  and  N_23 
ROOT
HETATM    1  C   UNK N   1      29.414  24.489  -4.938  0.00  0.00     0.009 C 
ENDROOT
BRANCH   1   2
HETATM    2  C   UNK N   1      28.458  23.813  -3.961  0.00  0.00     0.103 C 
BRANCH   2   3
HETATM    3  C   UNK N   1      27.173  24.569  -3.834  0.00  0.00     0.218 C 
HETATM    4  O   UNK N   1      26.287  24.134  -3.115  0.00  0.00    -0.274 OA
HETATM    5  N   UNK N   1      27.030  25.753  -4.491  0.00  0.00    -0.347 N 
HETATM    6  H   UNK N   1      27.811  26.068  -5.000  0.00  0.00     0.163 HD
BRANCH   5   7
HETATM    7  C   UNK N   1      25.845  26.608  -4.524  0.00  0.00     0.182 C 
BRANCH   7   8
HETATM    8  C   UNK N   1      25.865  27.742  -3.522  0.00  0.00     0.163 C 
HETATM    9  O   UNK N   1      26.035  27.502  -2.337  0.00  0.00    -0.648 OA
BRANCH   8  10
HETATM   10  O   UNK N   1      25.672  29.017  -3.919  0.00  0.00    -0.775 OA
HETATM   11  H   UNK N   1      25.061  29.629  -4.280  0.00  0.00     0.167 HD
ENDBRANCH   8  10
ENDBRANCH   7   8
BRANCH   7  12
HETATM   12  C   UNK N   1      25.643  27.137  -5.947  0.00  0.00     0.040 C 
BRANCH  12  13
HETATM   13  C   UNK N   1      26.846  26.880  -6.842  0.00  0.00    -0.020 C 
HETATM   14  C   UNK N   1      27.610  28.171  -7.039  0.00  0.00     0.009 C 
HETATM   15  C   UNK N   1      26.370  26.385  -8.195  0.00  0.00     0.009 C 
ENDBRANCH  12  13
ENDBRANCH   7  12
ENDBRANCH   5   7
ENDBRANCH   2   3
ENDBRANCH   1   2
BRANCH   1  16
HETATM   16  C   UNK N   1      29.258  23.944  -6.350  0.00  0.00     0.000 C 
BRANCH  16  17
HETATM   17  C   UNK N   1      28.678  22.541  -6.321  0.00  0.00     0.000 C 
BRANCH  17  18
HETATM   18  C   UNK N   1      29.402  21.630  -7.293  0.00  0.00     0.000 C 
BRANCH  18  19
HETATM   19  C   UNK N   1      29.921  20.389  -6.584  0.00  0.00     0.000 C 
BRANCH  19  20
HETATM   20  C   UNK N   1      31.031  20.760  -5.623  0.00  0.00     0.000 C 
BRANCH  20  21
HETATM   21  C   UNK N   1      30.637  20.432  -4.192  0.00  0.00     0.000 C 
BRANCH  21  22
HETATM   22  C   UNK N   1      31.171  21.488  -3.230  0.00  0.00     0.002 C 
BRANCH  22  23
HETATM   23  C   UNK N   1      32.605  21.886  -3.556  0.00  0.00     0.020 C 
BRANCH  23  24
HETATM   24  C   UNK N   1      33.588  20.979  -2.832  0.00  0.00     0.129 C 
BRANCH  24  25
HETATM   25  N   UNK N   1      34.324  20.162  -3.787  0.00  0.00    -0.352 N 
HETATM   26  C   UNK N   1      35.417  20.523  -4.478  0.00  0.00     0.182 A 
HETATM   27  N   UNK N   1      35.824  19.521  -5.283  0.00  0.00    -0.361 N 
HETATM   28  C   UNK N   1      34.952  18.511  -5.085  0.00  0.00     0.106 A 
ATOM     29  HN  UNK N   1      36.627  19.526  -5.911  1.00  0.00     0.166 HD
HETATM   30  C   UNK N   1      34.014  18.912  -4.153  0.00  0.00     0.108 A 
ENDBRANCH  24  25
ENDBRANCH  23  24
ENDBRANCH  22  23
ENDBRANCH  21  22
ENDBRANCH  20  21
ENDBRANCH  19  20
ENDBRANCH  18  19
ENDBRANCH  17  18
ENDBRANCH  16  17
ENDBRANCH   1  16
TORSDOF 17
ENDMDL
MODEL 4
REMARK VINA RESULT:      -5.7      1.552      2.432
REMARK  17 active torsions:
REMARK  status: ('A' for Active; 'I' for Inactive)
REMARK       I    between atoms: C_2  and  N_3 
REMARK    1  A    between atoms: C_2  and  C_12 
REMARK    2  A    between atoms: C_4  and  N_3 
REMARK    3  A    between atoms: C_4  and  C_9 
REMARK    4  A    between atoms: C_5  and  C_4 
REMARK    5  A    between atoms: C_6  and  C_5 
REMARK    6  A    between atoms: C_9  and  O_10 
REMARK    7  A    between atoms: C_12  and  C_13 
REMARK    8  A    between atoms: C_14  and  C_13 
REMARK    9  A    between atoms: C_15  and  C_14 
REMARK   10  A    between atoms: C_15  and  C_16 
REMARK   11  A    between atoms: C_17  and  C_16 
REMARK   12  A    between atoms: C_17  and  C_18 
REMARK   13  A    between atoms: C_18  and  C_19 
REMARK   14  A    between atoms: C_19  and  C_20 
REMARK   15  A    between atoms: C_20  and  C_21 
REMARK   16  A    between atoms: C_21  and  C_22 
REMARK   17  A    between atoms: C_22  and  N_23 
ROOT
HETATM    1  C   UNK N   1      25.539  20.613   4.039  0.00  0.00     0.009 C 
ENDROOT
BRANCH   1   2
HETATM    2  C   UNK N   1      24.486  19.660   3.481  0.00  0.00     0.103 C 
BRANCH   2   3
HETATM    3  C   UNK N   1      23.256  20.393   3.045  0.00  0.00     0.218 C 
HETATM    4  O   UNK N   1      23.307  21.598   2.856  0.00  0.00    -0.274 OA
HETATM    5  N   UNK N   1      22.108  19.692   2.825  0.00  0.00    -0.347 N 
HETATM    6  H   UNK N   1      22.163  18.716   2.938  0.00  0.00     0.163 HD
BRANCH   5   7
HETATM    7  C   UNK N   1      20.805  20.231   2.440  0.00  0.00     0.182 C 
BRANCH   7   8
HETATM    8  C   UNK N   1      20.780  20.892   1.079  0.00  0.00     0.163 C 
HETATM    9  O   UNK N   1      20.917  20.215   0.073  0.00  0.00    -0.648 OA
BRANCH   8  10
HETATM   10  O   UNK N   1      20.635  22.228   0.964  0.00  0.00    -0.775 OA
HETATM   11  H   UNK N   1      20.190  22.921   0.516  0.00  0.00     0.167 HD
ENDBRANCH   8  10
ENDBRANCH   7   8
BRANCH   7  12
HETATM   12  C   UNK N   1      19.754  19.120   2.529  0.00  0.00     0.040 C 
BRANCH  12  13
HETATM   13  C   UNK N   1      20.375  17.735   2.630  0.00  0.00    -0.020 C 
HETATM   14  C   UNK N   1      20.119  16.976   1.347  0.00  0.00     0.009 C 
HETATM   15  C   UNK N   1      19.733  16.979   3.779  0.00  0.00     0.009 C 
ENDBRANCH  12  13
ENDBRANCH   7  12
ENDBRANCH   5   7
ENDBRANCH   2   3
ENDBRANCH   1   2
BRANCH   1  16
HETATM   16  C   UNK N   1      25.863  20.308   5.493  0.00  0.00     0.000 C 
BRANCH  16  17
HETATM   17  C   UNK N   1      27.338  20.537   5.771  0.00  0.00     0.000 C 
BRANCH  17  18
HETATM   18  C   UNK N   1      28.057  19.224   6.019  0.00  0.00     0.000 C 
BRANCH  18  19
HETATM   19  C   UNK N   1      28.570  18.636   4.714  0.00  0.00     0.000 C 
BRANCH  19  20
HETATM   20  C   UNK N   1      29.595  17.557   4.992  0.00  0.00     0.000 C 
BRANCH  20  21
HETATM   21  C   UNK N   1      29.158  16.686   6.158  0.00  0.00     0.000 C 
BRANCH  21  22
HETATM   22  C   UNK N   1      30.330  16.410   7.094  0.00  0.00     0.002 C 
BRANCH  22  23
HETATM   23  C   UNK N   1      31.555  17.242   6.738  0.00  0.00     0.020 C 
BRANCH  23  24
HETATM   24  C   UNK N   1      32.755  16.343   6.483  0.00  0.00     0.129 C 
BRANCH  24  25
HETATM   25  N   UNK N   1      32.811  15.955   5.080  0.00  0.00    -0.352 N 
HETATM   26  C   UNK N   1      32.548  14.741   4.571  0.00  0.00     0.182 A 
HETATM   27  N   UNK N   1      32.715  14.739   3.233  0.00  0.00    -0.361 N 
HETATM   28  C   UNK N   1      33.096  15.990   2.907  0.00  0.00     0.106 A 
ATOM     29  HN  UNK N   1      32.579  13.952   2.599  1.00  0.00     0.166 HD
HETATM   30  C   UNK N   1      33.159  16.749   4.060  0.00  0.00     0.108 A 
ENDBRANCH  24  25
ENDBRANCH  23  24
ENDBRANCH  22  23
ENDBRANCH  21  22
ENDBRANCH  20  21
ENDBRANCH  19  20
ENDBRANCH  18  19
ENDBRANCH  17  18
ENDBRANCH  16  17
ENDBRANCH   1  16
TORSDOF 17
ENDMDL
MODEL 5
REMARK VINA RESULT:      -5.6     10.830     12.557
REMARK  17 active torsions:
REMARK  status: ('A' for Active; 'I' for Inactive)
REMARK       I    between atoms: C_2  and  N_3 
REMARK    1  A    between atoms: C_2  and  C_12 
REMARK    2  A    between atoms: C_4  and  N_3 
REMARK    3  A    between atoms: C_4  and  C_9 
REMARK    4  A    between atoms: C_5  and  C_4 
REMARK    5  A    between atoms: C_6  and  C_5 
REMARK    6  A    between atoms: C_9  and  O_10 
REMARK    7  A    between atoms: C_12  and  C_13 
REMARK    8  A    between atoms: C_14  and  C_13 
REMARK    9  A    between atoms: C_15  and  C_14 
REMARK   10  A    between atoms: C_15  and  C_16 
REMARK   11  A    between atoms: C_17  and  C_16 
REMARK   12  A    between atoms: C_17  and  C_18 
REMARK   13  A    between atoms: C_18  and  C_19 
REMARK   14  A    between atoms: C_19  and  C_20 
REMARK   15  A    between atoms: C_20  and  C_21 
REMARK   16  A    between atoms: C_21  and  C_22 
REMARK   17  A    between atoms: C_22  and  N_23 
ROOT
HETATM    1  C   UNK N   1      26.106  27.395  -5.182  0.00  0.00     0.009 C 
ENDROOT
BRANCH   1   2
HETATM    2  C   UNK N   1      25.023  26.418  -5.626  0.00  0.00     0.103 C 
BRANCH   2   3
HETATM    3  C   UNK N   1      25.485  24.998  -5.524  0.00  0.00     0.218 C 
HETATM    4  O   UNK N   1      25.940  24.587  -4.467  0.00  0.00    -0.274 OA
HETATM    5  N   UNK N   1      25.350  24.176  -6.601  0.00  0.00    -0.347 N 
HETATM    6  H   UNK N   1      24.917  24.562  -7.395  0.00  0.00     0.163 HD
BRANCH   5   7
HETATM    7  C   UNK N   1      25.778  22.782  -6.708  0.00  0.00     0.182 C 
BRANCH   7   8
HETATM    8  C   UNK N   1      24.778  21.872  -7.388  0.00  0.00     0.163 C 
HETATM    9  O   UNK N   1      24.875  21.653  -8.586  0.00  0.00    -0.648 OA
BRANCH   8  10
HETATM   10  O   UNK N   1      23.763  21.320  -6.693  0.00  0.00    -0.775 OA
HETATM   11  H   UNK N   1      22.840  21.334  -6.532  0.00  0.00     0.167 HD
ENDBRANCH   8  10
ENDBRANCH   7   8
BRANCH   7  12
HETATM   12  C   UNK N   1      27.139  22.723  -7.409  0.00  0.00     0.040 C 
BRANCH  12  13
HETATM   13  C   UNK N   1      28.302  22.722  -6.428  0.00  0.00    -0.020 C 
HETATM   14  C   UNK N   1      29.047  24.035  -6.532  0.00  0.00     0.009 C 
HETATM   15  C   UNK N   1      29.254  21.593  -6.779  0.00  0.00     0.009 C 
ENDBRANCH  12  13
ENDBRANCH   7  12
ENDBRANCH   5   7
ENDBRANCH   2   3
ENDBRANCH   1   2
BRANCH   1  16
HETATM   16  C   UNK N   1      25.825  27.961  -3.799  0.00  0.00     0.000 C 
BRANCH  16  17
HETATM   17  C   UNK N   1      26.579  29.263  -3.590  0.00  0.00     0.000 C 
BRANCH  17  18
HETATM   18  C   UNK N   1      27.835  29.042  -2.770  0.00  0.00     0.000 C 
BRANCH  18  19
HETATM   19  C   UNK N   1      29.057  29.577  -3.501  0.00  0.00     0.000 C 
BRANCH  19  20
HETATM   20  C   UNK N   1      29.570  28.549  -4.486  0.00  0.00     0.000 C 
BRANCH  20  21
HETATM   21  C   UNK N   1      30.469  27.539  -3.792  0.00  0.00     0.000 C 
BRANCH  21  22
HETATM   22  C   UNK N   1      29.808  26.165  -3.753  0.00  0.00     0.002 C 
BRANCH  22  23
HETATM   23  C   UNK N   1      30.802  25.060  -3.417  0.00  0.00     0.020 C 
BRANCH  23  24
HETATM   24  C   UNK N   1      30.070  23.792  -3.005  0.00  0.00     0.129 C 
BRANCH  24  25
HETATM   25  N   UNK N   1      30.797  22.615  -3.461  0.00  0.00    -0.352 N 
HETATM   26  C   UNK N   1      30.410  21.335  -3.339  0.00  0.00     0.182 A 
HETATM   27  N   UNK N   1      31.337  20.506  -3.860  0.00  0.00    -0.361 N 
HETATM   28  C   UNK N   1      32.328  21.299  -4.315  0.00  0.00     0.106 A 
ATOM     29  HN  UNK N   1      31.295  19.488  -3.902  1.00  0.00     0.166 HD
HETATM   30  C   UNK N   1      31.992  22.615  -4.064  0.00  0.00     0.108 A 
ENDBRANCH  24  25
ENDBRANCH  23  24
ENDBRANCH  22  23
ENDBRANCH  21  22
ENDBRANCH  20  21
ENDBRANCH  19  20
ENDBRANCH  18  19
ENDBRANCH  17  18
ENDBRANCH  16  17
ENDBRANCH   1  16
TORSDOF 17
ENDMDL
MODEL 6
REMARK VINA RESULT:      -5.6      8.085     13.043
REMARK  17 active torsions:
REMARK  status: ('A' for Active; 'I' for Inactive)
REMARK       I    between atoms: C_2  and  N_3 
REMARK    1  A    between atoms: C_2  and  C_12 
REMARK    2  A    between atoms: C_4  and  N_3 
REMARK    3  A    between atoms: C_4  and  C_9 
REMARK    4  A    between atoms: C_5  and  C_4 
REMARK    5  A    between atoms: C_6  and  C_5 
REMARK    6  A    between atoms: C_9  and  O_10 
REMARK    7  A    between atoms: C_12  and  C_13 
REMARK    8  A    between atoms: C_14  and  C_13 
REMARK    9  A    between atoms: C_15  and  C_14 
REMARK   10  A    between atoms: C_15  and  C_16 
REMARK   11  A    between atoms: C_17  and  C_16 
REMARK   12  A    between atoms: C_17  and  C_18 
REMARK   13  A    between atoms: C_18  and  C_19 
REMARK   14  A    between atoms: C_19  and  C_20 
REMARK   15  A    between atoms: C_20  and  C_21 
REMARK   16  A    between atoms: C_21  and  C_22 
REMARK   17  A    between atoms: C_22  and  N_23 
ROOT
HETATM    1  C   UNK N   1      36.133  14.304  10.552  0.00  0.00     0.009 C 
ENDROOT
BRANCH   1   2
HETATM    2  C   UNK N   1      35.570  15.505  11.304  0.00  0.00     0.103 C 
BRANCH   2   3
HETATM    3  C   UNK N   1      35.043  16.545  10.365  0.00  0.00     0.218 C 
HETATM    4  O   UNK N   1      35.656  17.592  10.221  0.00  0.00    -0.274 OA
HETATM    5  N   UNK N   1      33.910  16.288   9.656  0.00  0.00    -0.347 N 
HETATM    6  H   UNK N   1      33.508  15.398   9.779  0.00  0.00     0.163 HD
BRANCH   5   7
HETATM    7  C   UNK N   1      33.223  17.188   8.730  0.00  0.00     0.182 C 
BRANCH   7   8
HETATM    8  C   UNK N   1      33.857  17.274   7.358  0.00  0.00     0.163 C 
HETATM    9  O   UNK N   1      34.601  18.205   7.092  0.00  0.00    -0.648 OA
BRANCH   8  10
HETATM   10  O   UNK N   1      33.590  16.348   6.415  0.00  0.00    -0.775 OA
HETATM   11  H   UNK N   1      33.037  15.632   6.171  0.00  0.00     0.167 HD
ENDBRANCH   8  10
ENDBRANCH   7   8
BRANCH   7  12
HETATM   12  C   UNK N   1      31.750  16.780   8.628  0.00  0.00     0.040 C 
BRANCH  12  13
HETATM   13  C   UNK N   1      30.861  17.919   8.152  0.00  0.00    -0.020 C 
HETATM   14  C   UNK N   1      30.061  18.453   9.320  0.00  0.00     0.009 C 
HETATM   15  C   UNK N   1      29.898  17.399   7.101  0.00  0.00     0.009 C 
ENDBRANCH  12  13
ENDBRANCH   7  12
ENDBRANCH   5   7
ENDBRANCH   2   3
ENDBRANCH   1   2
BRANCH   1  16
HETATM   16  C   UNK N   1      36.190  13.063  11.430  0.00  0.00     0.000 C 
BRANCH  16  17
HETATM   17  C   UNK N   1      35.040  12.126  11.107  0.00  0.00     0.000 C 
BRANCH  17  18
HETATM   18  C   UNK N   1      35.215  10.786  11.797  0.00  0.00     0.000 C 
BRANCH  18  19
HETATM   19  C   UNK N   1      34.034  10.489  12.707  0.00  0.00     0.000 C 
BRANCH  19  20
HETATM   20  C   UNK N   1      34.479  10.465  14.153  0.00  0.00     0.000 C 
BRANCH  20  21
HETATM   21  C   UNK N   1      35.351   9.251  14.429  0.00  0.00     0.000 C 
BRANCH  21  22
HETATM   22  C   UNK N   1      35.639   9.121  15.921  0.00  0.00     0.002 C 
BRANCH  22  23
HETATM   23  C   UNK N   1      34.594   9.834  16.770  0.00  0.00     0.020 C 
BRANCH  23  24
HETATM   24  C   UNK N   1      35.172  10.203  18.128  0.00  0.00     0.129 C 
BRANCH  24  25
HETATM   25  N   UNK N   1      35.204  11.649  18.291  0.00  0.00    -0.352 N 
HETATM   26  C   UNK N   1      35.225  12.328  19.449  0.00  0.00     0.182 A 
HETATM   27  N   UNK N   1      35.236  13.656  19.224  0.00  0.00    -0.361 N 
HETATM   28  C   UNK N   1      35.218  13.804  17.883  0.00  0.00     0.106 A 
ATOM     29  HN  UNK N   1      35.256  14.398  19.924  1.00  0.00     0.166 HD
HETATM   30  C   UNK N   1      35.195  12.551  17.301  0.00  0.00     0.108 A 
ENDBRANCH  24  25
ENDBRANCH  23  24
ENDBRANCH  22  23
ENDBRANCH  21  22
ENDBRANCH  20  21
ENDBRANCH  19  20
ENDBRANCH  18  19
ENDBRANCH  17  18
ENDBRANCH  16  17
ENDBRANCH   1  16
TORSDOF 17
ENDMDL
MODEL 7
REMARK VINA RESULT:      -5.6      6.810     11.918
REMARK  17 active torsions:
REMARK  status: ('A' for Active; 'I' for Inactive)
REMARK       I    between atoms: C_2  and  N_3 
REMARK    1  A    between atoms: C_2  and  C_12 
REMARK    2  A    between atoms: C_4  and  N_3 
REMARK    3  A    between atoms: C_4  and  C_9 
REMARK    4  A    between atoms: C_5  and  C_4 
REMARK    5  A    between atoms: C_6  and  C_5 
REMARK    6  A    between atoms: C_9  and  O_10 
REMARK    7  A    between atoms: C_12  and  C_13 
REMARK    8  A    between atoms: C_14  and  C_13 
REMARK    9  A    between atoms: C_15  and  C_14 
REMARK   10  A    between atoms: C_15  and  C_16 
REMARK   11  A    between atoms: C_17  and  C_16 
REMARK   12  A    between atoms: C_17  and  C_18 
REMARK   13  A    between atoms: C_18  and  C_19 
REMARK   14  A    between atoms: C_19  and  C_20 
REMARK   15  A    between atoms: C_20  and  C_21 
REMARK   16  A    between atoms: C_21  and  C_22 
REMARK   17  A    between atoms: C_22  and  N_23 
ROOT
HETATM    1  C   UNK N   1      32.589  17.783   8.096  0.00  0.00     0.009 C 
ENDROOT
BRANCH   1   2
HETATM    2  C   UNK N   1      34.040  18.221   8.259  0.00  0.00     0.103 C 
BRANCH   2   3
HETATM    3  C   UNK N   1      34.797  17.298   9.163  0.00  0.00     0.218 C 
HETATM    4  O   UNK N   1      35.532  17.763  10.020  0.00  0.00    -0.274 OA
HETATM    5  N   UNK N   1      34.618  15.953   9.041  0.00  0.00    -0.347 N 
HETATM    6  H   UNK N   1      33.961  15.658   8.370  0.00  0.00     0.163 HD
BRANCH   5   7
HETATM    7  C   UNK N   1      35.293  14.900   9.797  0.00  0.00     0.182 C 
BRANCH   7   8
HETATM    8  C   UNK N   1      34.567  14.469  11.052  0.00  0.00     0.163 C 
HETATM    9  O   UNK N   1      35.130  13.748  11.861  0.00  0.00    -0.648 OA
BRANCH   8  10
HETATM   10  O   UNK N   1      33.293  14.850  11.278  0.00  0.00    -0.775 OA
HETATM   11  H   UNK N   1      32.665  15.102  11.927  0.00  0.00     0.167 HD
ENDBRANCH   8  10
ENDBRANCH   7   8
BRANCH   7  12
HETATM   12  C   UNK N   1      35.552  13.704   8.875  0.00  0.00     0.040 C 
BRANCH  12  13
HETATM   13  C   UNK N   1      35.278  14.024   7.413  0.00  0.00    -0.020 C 
HETATM   14  C   UNK N   1      34.481  12.896   6.795  0.00  0.00     0.009 C 
HETATM   15  C   UNK N   1      36.595  14.152   6.670  0.00  0.00     0.009 C 
ENDBRANCH  12  13
ENDBRANCH   7  12
ENDBRANCH   5   7
ENDBRANCH   2   3
ENDBRANCH   1   2
BRANCH   1  16
HETATM   16  C   UNK N   1      32.241  17.508   6.641  0.00  0.00     0.000 C 
BRANCH  16  17
HETATM   17  C   UNK N   1      33.498  17.236   5.833  0.00  0.00     0.000 C 
BRANCH  17  18
HETATM   18  C   UNK N   1      33.204  16.328   4.654  0.00  0.00     0.000 C 
BRANCH  18  19
HETATM   19  C   UNK N   1      32.777  17.141   3.442  0.00  0.00     0.000 C 
BRANCH  19  20
HETATM   20  C   UNK N   1      31.450  16.637   2.914  0.00  0.00     0.000 C 
BRANCH  20  21
HETATM   21  C   UNK N   1      30.770  15.741   3.935  0.00  0.00     0.000 C 
BRANCH  21  22
HETATM   22  C   UNK N   1      29.292  16.094   4.063  0.00  0.00     0.002 C 
BRANCH  22  23
HETATM   23  C   UNK N   1      29.084  17.543   4.488  0.00  0.00     0.020 C 
BRANCH  23  24
HETATM   24  C   UNK N   1      28.604  17.612   5.929  0.00  0.00     0.129 C 
BRANCH  24  25
HETATM   25  N   UNK N   1      27.713  18.749   6.114  0.00  0.00    -0.352 N 
HETATM   26  C   UNK N   1      26.627  19.046   5.382  0.00  0.00     0.182 A 
HETATM   27  N   UNK N   1      26.050  20.181   5.826  0.00  0.00    -0.361 N 
HETATM   28  C   UNK N   1      26.805  20.600   6.862  0.00  0.00     0.106 A 
ATOM     29  HN  UNK N   1      25.212  20.630   5.454  1.00  0.00     0.166 HD
HETATM   30  C   UNK N   1      27.845  19.707   7.040  0.00  0.00     0.108 A 
ENDBRANCH  24  25
ENDBRANCH  23  24
ENDBRANCH  22  23
ENDBRANCH  21  22
ENDBRANCH  20  21
ENDBRANCH  19  20
ENDBRANCH  18  19
ENDBRANCH  17  18
ENDBRANCH  16  17
ENDBRANCH   1  16
TORSDOF 17
ENDMDL
MODEL 8
REMARK VINA RESULT:      -5.6     11.353     14.775
REMARK  17 active torsions:
REMARK  status: ('A' for Active; 'I' for Inactive)
REMARK       I    between atoms: C_2  and  N_3 
REMARK    1  A    between atoms: C_2  and  C_12 
REMARK    2  A    between atoms: C_4  and  N_3 
REMARK    3  A    between atoms: C_4  and  C_9 
REMARK    4  A    between atoms: C_5  and  C_4 
REMARK    5  A    between atoms: C_6  and  C_5 
REMARK    6  A    between atoms: C_9  and  O_10 
REMARK    7  A    between atoms: C_12  and  C_13 
REMARK    8  A    between atoms: C_14  and  C_13 
REMARK    9  A    between atoms: C_15  and  C_14 
REMARK   10  A    between atoms: C_15  and  C_16 
REMARK   11  A    between atoms: C_17  and  C_16 
REMARK   12  A    between atoms: C_17  and  C_18 
REMARK   13  A    between atoms: C_18  and  C_19 
REMARK   14  A    between atoms: C_19  and  C_20 
REMARK   15  A    between atoms: C_20  and  C_21 
REMARK   16  A    between atoms: C_21  and  C_22 
REMARK   17  A    between atoms: C_22  and  N_23 
ROOT
HETATM    1  C   UNK N   1      25.915  25.221  -4.487  0.00  0.00     0.009 C 
ENDROOT
BRANCH   1   2
HETATM    2  C   UNK N   1      26.887  24.255  -5.154  0.00  0.00     0.103 C 
BRANCH   2   3
HETATM    3  C   UNK N   1      28.282  24.434  -4.642  0.00  0.00     0.218 C 
HETATM    4  O   UNK N   1      28.707  25.560  -4.433  0.00  0.00    -0.274 OA
HETATM    5  N   UNK N   1      29.039  23.334  -4.376  0.00  0.00    -0.347 N 
HETATM    6  H   UNK N   1      28.605  22.461  -4.509  0.00  0.00     0.163 HD
BRANCH   5   7
HETATM    7  C   UNK N   1      30.426  23.306  -3.914  0.00  0.00     0.182 C 
BRANCH   7   8
HETATM    8  C   UNK N   1      30.595  22.883  -2.471  0.00  0.00     0.163 C 
HETATM    9  O   UNK N   1      29.737  23.168  -1.651  0.00  0.00    -0.648 OA
BRANCH   8  10
HETATM   10  O   UNK N   1      31.697  22.215  -2.072  0.00  0.00    -0.775 OA
HETATM   11  H   UNK N   1      32.022  21.464  -1.615  0.00  0.00     0.167 HD
ENDBRANCH   8  10
ENDBRANCH   7   8
BRANCH   7  12
HETATM   12  C   UNK N   1      31.251  22.415  -4.847  0.00  0.00     0.040 C 
BRANCH  12  13
HETATM   13  C   UNK N   1      30.563  21.092  -5.150  0.00  0.00    -0.020 C 
HETATM   14  C   UNK N   1      31.499  19.951  -4.812  0.00  0.00     0.009 C 
HETATM   15  C   UNK N   1      30.231  21.025  -6.629  0.00  0.00     0.009 C 
ENDBRANCH  12  13
ENDBRANCH   7  12
ENDBRANCH   5   7
ENDBRANCH   2   3
ENDBRANCH   1   2
BRANCH   1  16
HETATM   16  C   UNK N   1      25.319  26.203  -5.484  0.00  0.00     0.000 C 
BRANCH  16  17
HETATM   17  C   UNK N   1      25.177  27.580  -4.859  0.00  0.00     0.000 C 
BRANCH  17  18
HETATM   18  C   UNK N   1      25.807  27.622  -3.480  0.00  0.00     0.000 C 
BRANCH  18  19
HETATM   19  C   UNK N   1      26.909  28.668  -3.422  0.00  0.00     0.000 C 
BRANCH  19  20
HETATM   20  C   UNK N   1      26.634  29.774  -4.418  0.00  0.00     0.000 C 
BRANCH  20  21
HETATM   21  C   UNK N   1      27.896  30.137  -5.183  0.00  0.00     0.000 C 
BRANCH  21  22
HETATM   22  C   UNK N   1      28.560  28.887  -5.751  0.00  0.00     0.002 C 
BRANCH  22  23
HETATM   23  C   UNK N   1      27.919  28.440  -7.058  0.00  0.00     0.020 C 
BRANCH  23  24
HETATM   24  C   UNK N   1      28.986  28.081  -8.081  0.00  0.00     0.129 C 
BRANCH  24  25
HETATM   25  N   UNK N   1      29.305  26.662  -8.004  0.00  0.00    -0.352 N 
HETATM   26  C   UNK N   1      28.491  25.638  -8.308  0.00  0.00     0.182 A 
HETATM   27  N   UNK N   1      29.113  24.459  -8.105  0.00  0.00    -0.361 N 
HETATM   28  C   UNK N   1      30.348  24.764  -7.658  0.00  0.00     0.106 A 
ATOM     29  HN  UNK N   1      28.728  23.527  -8.259  1.00  0.00     0.166 HD
HETATM   30  C   UNK N   1      30.468  26.139  -7.594  0.00  0.00     0.108 A 
ENDBRANCH  24  25
ENDBRANCH  23  24
ENDBRANCH  22  23
ENDBRANCH  21  22
ENDBRANCH  20  21
ENDBRANCH  19  20
ENDBRANCH  18  19
ENDBRANCH  17  18
ENDBRANCH  16  17
ENDBRANCH   1  16
TORSDOF 17
ENDMDL
MODEL 9
REMARK VINA RESULT:      -5.6     11.192     14.970
REMARK  17 active torsions:
REMARK  status: ('A' for Active; 'I' for Inactive)
REMARK       I    between atoms: C_2  and  N_3 
REMARK    1  A    between atoms: C_2  and  C_12 
REMARK    2  A    between atoms: C_4  and  N_3 
REMARK    3  A    between atoms: C_4  and  C_9 
REMARK    4  A    between atoms: C_5  and  C_4 
REMARK    5  A    between atoms: C_6  and  C_5 
REMARK    6  A    between atoms: C_9  and  O_10 
REMARK    7  A    between atoms: C_12  and  C_13 
REMARK    8  A    between atoms: C_14  and  C_13 
REMARK    9  A    between atoms: C_15  and  C_14 
REMARK   10  A    between atoms: C_15  and  C_16 
REMARK   11  A    between atoms: C_17  and  C_16 
REMARK   12  A    between atoms: C_17  and  C_18 
REMARK   13  A    between atoms: C_18  and  C_19 
REMARK   14  A    between atoms: C_19  and  C_20 
REMARK   15  A    between atoms: C_20  and  C_21 
REMARK   16  A    between atoms: C_21  and  C_22 
REMARK   17  A    between atoms: C_22  and  N_23 
ROOT
HETATM    1  C   UNK N   1      30.467  27.627  -5.658  0.00  0.00     0.009 C 
ENDROOT
BRANCH   1   2
HETATM    2  C   UNK N   1      30.995  27.101  -4.328  0.00  0.00     0.103 C 
BRANCH   2   3
HETATM    3  C   UNK N   1      31.466  25.684  -4.443  0.00  0.00     0.218 C 
HETATM    4  O   UNK N   1      32.496  25.439  -5.051  0.00  0.00    -0.274 OA
HETATM    5  N   UNK N   1      30.757  24.696  -3.829  0.00  0.00    -0.347 N 
HETATM    6  H   UNK N   1      29.974  24.980  -3.305  0.00  0.00     0.163 HD
BRANCH   5   7
HETATM    7  C   UNK N   1      31.032  23.261  -3.862  0.00  0.00     0.182 C 
BRANCH   7   8
HETATM    8  C   UNK N   1      31.095  22.606  -2.499  0.00  0.00     0.163 C 
HETATM    9  O   UNK N   1      30.443  23.065  -1.575  0.00  0.00    -0.648 OA
BRANCH   8  10
HETATM   10  O   UNK N   1      31.885  21.534  -2.285  0.00  0.00    -0.775 OA
HETATM   11  H   UNK N   1      32.397  21.065  -1.654  0.00  0.00     0.167 HD
ENDBRANCH   8  10
ENDBRANCH   7   8
BRANCH   7  12
HETATM   12  C   UNK N   1      29.997  22.569  -4.755  0.00  0.00     0.040 C 
BRANCH  12  13
HETATM   13  C   UNK N   1      30.610  22.003  -6.028  0.00  0.00    -0.020 C 
HETATM   14  C   UNK N   1      30.249  20.538  -6.148  0.00  0.00     0.009 C 
HETATM   15  C   UNK N   1      32.120  22.127  -5.957  0.00  0.00     0.009 C 
ENDBRANCH  12  13
ENDBRANCH   7  12
ENDBRANCH   5   7
ENDBRANCH   2   3
ENDBRANCH   1   2
BRANCH   1  16
HETATM   16  C   UNK N   1      28.965  27.427  -5.788  0.00  0.00     0.000 C 
BRANCH  16  17
HETATM   17  C   UNK N   1      28.330  28.599  -6.517  0.00  0.00     0.000 C 
BRANCH  17  18
HETATM   18  C   UNK N   1      27.768  29.611  -5.538  0.00  0.00     0.000 C 
BRANCH  18  19
HETATM   19  C   UNK N   1      27.465  28.957  -4.199  0.00  0.00     0.000 C 
BRANCH  19  20
HETATM   20  C   UNK N   1      25.971  28.786  -4.025  0.00  0.00     0.000 C 
BRANCH  20  21
HETATM   21  C   UNK N   1      25.560  27.344  -4.278  0.00  0.00     0.000 C 
BRANCH  21  22
HETATM   22  C   UNK N   1      24.792  27.225  -5.590  0.00  0.00     0.002 C 
BRANCH  22  23
HETATM   23  C   UNK N   1      25.400  26.179  -6.516  0.00  0.00     0.020 C 
BRANCH  23  24
HETATM   24  C   UNK N   1      26.029  25.053  -5.709  0.00  0.00     0.129 C 
BRANCH  24  25
HETATM   25  N   UNK N   1      26.664  24.087  -6.594  0.00  0.00    -0.352 N 
HETATM   26  C   UNK N   1      27.629  24.335  -7.495  0.00  0.00     0.182 A 
HETATM   27  N   UNK N   1      27.971  23.208  -8.150  0.00  0.00    -0.361 N 
HETATM   28  C   UNK N   1      27.190  22.233  -7.641  0.00  0.00     0.106 A 
ATOM     29  HN  UNK N   1      28.676  23.113  -8.881  1.00  0.00     0.166 HD
HETATM   30  C   UNK N   1      26.373  22.782  -6.671  0.00  0.00     0.108 A 
ENDBRANCH  24  25
ENDBRANCH  23  24
ENDBRANCH  22  23
ENDBRANCH  21  22
ENDBRANCH  20  21
ENDBRANCH  19  20
ENDBRANCH  18  19
ENDBRANCH  17  18
ENDBRANCH  16  17
ENDBRANCH   1  16
TORSDOF 17
ENDMDL
