REMARK  17 active torsions:
REMARK  status: ('A' for Active; 'I' for Inactive)
REMARK       I    between atoms: C_2  and  N_3 
REMARK    1  A    between atoms: C_2  and  C_12 
REMARK    2  A    between atoms: C_4  and  N_3 
REMARK    3  A    between atoms: C_4  and  C_9 
REMARK    4  A    between atoms: C_5  and  C_4 
REMARK    5  A    between atoms: C_6  and  C_5 
REMARK    6  A    between atoms: C_9  and  O_10 
REMARK    7  A    between atoms: C_12  and  C_13 
REMARK    8  A    between atoms: C_14  and  C_13 
REMARK    9  A    between atoms: C_15  and  C_14 
REMARK   10  A    between atoms: C_15  and  C_16 
REMARK   11  A    between atoms: C_17  and  C_16 
REMARK   12  A    between atoms: C_17  and  C_18 
REMARK   13  A    between atoms: C_18  and  C_19 
REMARK   14  A    between atoms: C_19  and  C_20 
REMARK   15  A    between atoms: C_20  and  C_21 
REMARK   16  A    between atoms: C_21  and  C_22 
REMARK   17  A    between atoms: C_22  and  N_23 
ROOT
HETATM    1  C   UNK N   1      -0.424  -1.687   0.504  0.00  0.00     0.009 C 
ENDROOT
BRANCH   1   2
HETATM    2  C   UNK N   1      -1.766  -2.182  -0.024  0.00  0.00     0.103 C 
BRANCH   2   3
HETATM    3  C   UNK N   1      -2.719  -1.051  -0.255  0.00  0.00     0.218 C 
HETATM    4  O   UNK N   1      -2.481  -0.232  -1.129  0.00  0.00    -0.274 OA
HETATM    5  N   UNK N   1      -3.859  -0.980   0.487  0.00  0.00    -0.347 N 
HETATM    6  H   UNK N   1      -4.011  -1.712   1.127  0.00  0.00     0.163 HD
BRANCH   5   7
HETATM    7  C   UNK N   1      -4.882   0.063   0.437  0.00  0.00     0.182 C 
BRANCH   7   8
HETATM    8  C   UNK N   1      -4.414   1.368  -0.170  0.00  0.00     0.163 C 
HETATM    9  O   UNK N   1      -3.488   1.977   0.342  0.00  0.00    -0.648 OA
BRANCH   8  10
HETATM   10  O   UNK N   1      -5.025   1.882  -1.257  0.00  0.00    -0.775 OA
HETATM   11  H   UNK N   1      -4.927   2.429  -2.012  0.00  0.00     0.167 HD
ENDBRANCH   8  10
ENDBRANCH   7   8
BRANCH   7  12
HETATM   12  C   UNK N   1      -6.114  -0.473  -0.299  0.00  0.00     0.040 C 
BRANCH  12  13
HETATM   13  C   UNK N   1      -6.904  -1.471   0.535  0.00  0.00    -0.020 C 
HETATM   14  C   UNK N   1      -7.808  -2.277  -0.372  0.00  0.00     0.009 C 
HETATM   15  C   UNK N   1      -7.763  -0.721   1.536  0.00  0.00     0.009 C 
ENDBRANCH  12  13
ENDBRANCH   7  12
ENDBRANCH   5   7
ENDBRANCH   2   3
ENDBRANCH   1   2
BRANCH   1  16
HETATM   16  C   UNK N   1       0.591  -1.504  -0.614  0.00  0.00     0.000 C 
BRANCH  16  17
HETATM   17  C   UNK N   1       0.353  -0.193  -1.343  0.00  0.00     0.000 C 
BRANCH  17  18
HETATM   18  C   UNK N   1       1.496   0.122  -2.289  0.00  0.00     0.000 C 
BRANCH  18  19
HETATM   19  C   UNK N   1       2.551   0.970  -1.596  0.00  0.00     0.000 C 
BRANCH  19  20
HETATM   20  C   UNK N   1       3.393   0.111  -0.677  0.00  0.00     0.000 C 
BRANCH  20  21
HETATM   21  C   UNK N   1       2.976   0.302   0.772  0.00  0.00     0.000 C 
BRANCH  21  22
HETATM   22  C   UNK N   1       3.492  -0.843   1.637  0.00  0.00     0.002 C 
BRANCH  22  23
HETATM   23  C   UNK N   1       4.994  -0.750   1.874  0.00  0.00     0.020 C 
BRANCH  23  24
HETATM   24  C   UNK N   1       5.758  -1.242   0.654  0.00  0.00     0.129 C 
BRANCH  24  25
HETATM   25  N   UNK N   1       6.716  -0.237   0.215  0.00  0.00    -0.352 N 
HETATM   26  C   UNK N   1       6.443   1.022  -0.164  0.00  0.00     0.182 A 
HETATM   27  N   UNK N   1       7.571   1.667  -0.522  0.00  0.00    -0.361 N 
HETATM   28  C   UNK N   1       8.572   0.777  -0.363  0.00  0.00     0.106 A 
ATOM     29  HN  UNK N   1       7.651   2.631  -0.846  1.00  0.00     0.166 HD
HETATM   30  C   UNK N   1       8.038  -0.412   0.095  0.00  0.00     0.108 A 
ENDBRANCH  24  25
ENDBRANCH  23  24
ENDBRANCH  22  23
ENDBRANCH  21  22
ENDBRANCH  20  21
ENDBRANCH  19  20
ENDBRANCH  18  19
ENDBRANCH  17  18
ENDBRANCH  16  17
ENDBRANCH   1  16
TORSDOF 17
