MODEL 1
REMARK VINA RESULT:      -7.6      0.000      0.000
REMARK  2 active torsions:
REMARK  status: ('A' for Active; 'I' for Inactive)
REMARK    1  A    between atoms: C_10  and  N_19 
REMARK    2  A    between atoms: C_12  and  O_11 
ROOT
HETATM    1  C   UNK N   1      26.639  19.620   4.889  0.00  0.00     0.032 A 
HETATM    2  C   UNK N   1      27.570  15.289   2.417  0.00  0.00     0.001 A 
HETATM    3  C   UNK N   1      28.322  16.135   3.227  0.00  0.00     0.014 A 
HETATM    4  C   UNK N   1      27.755  17.296   3.791  0.00  0.00    -0.003 A 
HETATM    5  C   UNK N   1      28.525  18.118   4.618  0.00  0.00     0.055 A 
HETATM    6  C   UNK N   1      26.235  15.572   2.195  0.00  0.00     0.001 A 
HETATM    7  C   UNK N   1      25.682  16.716   2.748  0.00  0.00     0.014 A 
HETATM    8  C   UNK N   1      26.408  17.625   3.515  0.00  0.00     0.003 A 
HETATM    9  C   UNK N   1      29.897  17.771   4.878  0.00  0.00     0.100 C 
HETATM   10  C   UNK N   1      25.836  18.840   4.029  0.00  0.00     0.058 A 
HETATM   11  C   UNK N   1      27.960  19.263   5.183  0.00  0.00     0.026 A 
HETATM   12  N   UNK N   1      30.993  17.441   5.048  0.00  0.00    -0.191 NA
ENDROOT
BRANCH  10  13
HETATM   13  N   UNK N   1      24.457  19.249   3.782  0.00  0.00    -0.231 N 
HETATM   14  C   UNK N   1      23.977  20.148   2.861  0.00  0.00     0.258 C 
HETATM   15  C   UNK N   1      22.554  19.938   2.679  0.00  0.00     0.210 C 
HETATM   16  O   UNK N   1      24.596  20.982   2.235  0.00  0.00    -0.270 OA
HETATM   17  C   UNK N   1      21.371  20.706   2.205  0.00  0.00     0.152 C 
HETATM   18  N   UNK N   1      22.218  19.262   3.851  0.00  0.00    -0.317 N 
HETATM   19  C   UNK N   1      20.250  19.766   2.733  0.00  0.00     0.054 C 
HETATM   20  C   UNK N   1      20.811  19.114   4.048  0.00  0.00     0.131 C 
HETATM   21  C   UNK N   1      23.344  18.769   4.416  0.00  0.00     0.333 C 
HETATM   22  O   UNK N   1      23.348  17.984   5.354  0.00  0.00    -0.246 OA
BRANCH  17  23
HETATM   23  O   UNK N   1      21.428  20.803   0.808  0.00  0.00    -0.393 OA
HETATM   24  H   UNK N   1      21.613  21.573   0.248  0.00  0.00     0.210 HD
ENDBRANCH  17  23
ENDBRANCH  10  13
TORSDOF 2
ENDMDL
MODEL 2
REMARK VINA RESULT:      -7.4      6.017     10.385
REMARK  2 active torsions:
REMARK  status: ('A' for Active; 'I' for Inactive)
REMARK    1  A    between atoms: C_10  and  N_19 
REMARK    2  A    between atoms: C_12  and  O_11 
ROOT
HETATM    1  C   UNK N   1      31.542  16.692   5.571  0.00  0.00     0.032 A 
HETATM    2  C   UNK N   1      28.037  18.547   8.735  0.00  0.00     0.001 A 
HETATM    3  C   UNK N   1      28.154  18.451   7.351  0.00  0.00     0.014 A 
HETATM    4  C   UNK N   1      29.284  17.853   6.756  0.00  0.00    -0.003 A 
HETATM    5  C   UNK N   1      29.369  17.750   5.365  0.00  0.00     0.055 A 
HETATM    6  C   UNK N   1      29.026  18.012   9.538  0.00  0.00     0.001 A 
HETATM    7  C   UNK N   1      30.138  17.429   8.950  0.00  0.00     0.014 A 
HETATM    8  C   UNK N   1      30.330  17.362   7.571  0.00  0.00     0.003 A 
HETATM    9  C   UNK N   1      28.298  18.265   4.552  0.00  0.00     0.100 C 
HETATM   10  C   UNK N   1      31.518  16.810   6.978  0.00  0.00     0.058 A 
HETATM   11  C   UNK N   1      30.484  17.150   4.778  0.00  0.00     0.026 A 
HETATM   12  N   UNK N   1      27.409  18.699   3.954  0.00  0.00    -0.191 NA
ENDROOT
BRANCH  10  13
HETATM   13  N   UNK N   1      32.639  16.290   7.753  0.00  0.00    -0.231 N 
HETATM   14  C   UNK N   1      33.729  16.962   8.248  0.00  0.00     0.258 C 
HETATM   15  C   UNK N   1      34.356  16.167   9.285  0.00  0.00     0.210 C 
HETATM   16  O   UNK N   1      34.134  18.064   7.940  0.00  0.00    -0.270 OA
HETATM   17  C   UNK N   1      35.687  16.047   9.940  0.00  0.00     0.152 C 
HETATM   18  N   UNK N   1      33.879  14.891   8.987  0.00  0.00    -0.317 N 
HETATM   19  C   UNK N   1      35.480  14.680  10.651  0.00  0.00     0.054 C 
HETATM   20  C   UNK N   1      34.517  13.849   9.728  0.00  0.00     0.131 C 
HETATM   21  C   UNK N   1      32.800  15.000   8.179  0.00  0.00     0.333 C 
HETATM   22  O   UNK N   1      32.065  14.064   7.893  0.00  0.00    -0.246 OA
BRANCH  17  23
HETATM   23  O   UNK N   1      35.857  17.129  10.814  0.00  0.00    -0.393 OA
HETATM   24  H   UNK N   1      35.816  17.155  11.782  0.00  0.00     0.210 HD
ENDBRANCH  17  23
ENDBRANCH  10  13
TORSDOF 2
ENDMDL
MODEL 3
REMARK VINA RESULT:      -7.3      6.668     10.940
REMARK  2 active torsions:
REMARK  status: ('A' for Active; 'I' for Inactive)
REMARK    1  A    between atoms: C_10  and  N_19 
REMARK    2  A    between atoms: C_12  and  O_11 
ROOT
HETATM    1  C   UNK N   1      30.913  16.767   8.697  0.00  0.00     0.032 A 
HETATM    2  C   UNK N   1      31.615  17.146   3.687  0.00  0.00     0.001 A 
HETATM    3  C   UNK N   1      30.587  17.491   4.560  0.00  0.00     0.014 A 
HETATM    4  C   UNK N   1      30.701  17.258   5.946  0.00  0.00    -0.003 A 
HETATM    5  C   UNK N   1      29.665  17.632   6.805  0.00  0.00     0.055 A 
HETATM    6  C   UNK N   1      32.781  16.603   4.192  0.00  0.00     0.001 A 
HETATM    7  C   UNK N   1      32.888  16.370   5.554  0.00  0.00     0.014 A 
HETATM    8  C   UNK N   1      31.865  16.642   6.461  0.00  0.00     0.003 A 
HETATM    9  C   UNK N   1      28.483  18.248   6.259  0.00  0.00     0.100 C 
HETATM   10  C   UNK N   1      31.968  16.337   7.863  0.00  0.00     0.058 A 
HETATM   11  C   UNK N   1      29.782  17.408   8.178  0.00  0.00     0.026 A 
HETATM   12  N   UNK N   1      27.560  18.735   5.762  0.00  0.00    -0.191 NA
ENDROOT
BRANCH  10  13
HETATM   13  N   UNK N   1      33.133  15.699   8.465  0.00  0.00    -0.231 N 
HETATM   14  C   UNK N   1      34.347  16.253   8.792  0.00  0.00     0.258 C 
HETATM   15  C   UNK N   1      35.037  15.387   9.727  0.00  0.00     0.210 C 
HETATM   16  O   UNK N   1      34.810  17.313   8.424  0.00  0.00    -0.270 OA
HETATM   17  C   UNK N   1      36.431  15.127  10.178  0.00  0.00     0.152 C 
HETATM   18  N   UNK N   1      34.396  14.168   9.506  0.00  0.00    -0.317 N 
HETATM   19  C   UNK N   1      36.195  13.779  10.915  0.00  0.00     0.054 C 
HETATM   20  C   UNK N   1      35.028  13.060  10.148  0.00  0.00     0.131 C 
HETATM   21  C   UNK N   1      33.226  14.394   8.866  0.00  0.00     0.333 C 
HETATM   22  O   UNK N   1      32.367  13.540   8.696  0.00  0.00    -0.246 OA
BRANCH  17  23
HETATM   23  O   UNK N   1      36.836  16.176  11.014  0.00  0.00    -0.393 OA
HETATM   24  H   UNK N   1      37.685  16.321  11.460  0.00  0.00     0.210 HD
ENDBRANCH  17  23
ENDBRANCH  10  13
TORSDOF 2
ENDMDL
MODEL 4
REMARK VINA RESULT:      -7.3      4.151      6.983
REMARK  2 active torsions:
REMARK  status: ('A' for Active; 'I' for Inactive)
REMARK    1  A    between atoms: C_10  and  N_19 
REMARK    2  A    between atoms: C_12  and  O_11 
ROOT
HETATM    1  C   UNK N   1      20.229  17.733   3.967  0.00  0.00     0.032 A 
HETATM    2  C   UNK N   1      24.652  20.185   3.571  0.00  0.00     0.001 A 
HETATM    3  C   UNK N   1      23.425  20.267   2.918  0.00  0.00     0.014 A 
HETATM    4  C   UNK N   1      22.353  19.425   3.277  0.00  0.00    -0.003 A 
HETATM    5  C   UNK N   1      21.125  19.541   2.622  0.00  0.00     0.055 A 
HETATM    6  C   UNK N   1      24.808  19.290   4.613  0.00  0.00     0.001 A 
HETATM    7  C   UNK N   1      23.753  18.461   4.960  0.00  0.00     0.014 A 
HETATM    8  C   UNK N   1      22.526  18.464   4.298  0.00  0.00     0.003 A 
HETATM    9  C   UNK N   1      20.971  20.520   1.577  0.00  0.00     0.100 C 
HETATM   10  C   UNK N   1      21.463  17.554   4.630  0.00  0.00     0.058 A 
HETATM   11  C   UNK N   1      20.061  18.713   2.983  0.00  0.00     0.026 A 
HETATM   12  N   UNK N   1      20.911  21.322   0.746  0.00  0.00    -0.191 NA
ENDROOT
BRANCH  10  13
HETATM   13  N   UNK N   1      21.570  16.533   5.666  0.00  0.00    -0.231 N 
HETATM   14  C   UNK N   1      21.110  16.566   6.960  0.00  0.00     0.258 C 
HETATM   15  C   UNK N   1      21.059  15.218   7.489  0.00  0.00     0.210 C 
HETATM   16  O   UNK N   1      20.748  17.531   7.601  0.00  0.00    -0.270 OA
HETATM   17  C   UNK N   1      21.060  14.546   8.818  0.00  0.00     0.152 C 
HETATM   18  N   UNK N   1      21.944  14.551   6.642  0.00  0.00    -0.317 N 
HETATM   19  C   UNK N   1      21.361  13.095   8.350  0.00  0.00     0.054 C 
HETATM   20  C   UNK N   1      22.264  13.226   7.071  0.00  0.00     0.131 C 
HETATM   21  C   UNK N   1      22.134  15.294   5.528  0.00  0.00     0.333 C 
HETATM   22  O   UNK N   1      22.716  14.890   4.531  0.00  0.00    -0.246 OA
BRANCH  17  23
HETATM   23  O   UNK N   1      19.798  14.711   9.404  0.00  0.00    -0.393 OA
HETATM   24  H   UNK N   1      19.335  15.524   9.659  0.00  0.00     0.210 HD
ENDBRANCH  17  23
ENDBRANCH  10  13
TORSDOF 2
ENDMDL
MODEL 5
REMARK VINA RESULT:      -7.3     14.669     18.233
REMARK  2 active torsions:
REMARK  status: ('A' for Active; 'I' for Inactive)
REMARK    1  A    between atoms: C_10  and  N_19 
REMARK    2  A    between atoms: C_12  and  O_11 
ROOT
HETATM    1  C   UNK N   1      36.441   9.604  16.280  0.00  0.00     0.032 A 
HETATM    2  C   UNK N   1      35.034  13.225  19.542  0.00  0.00     0.001 A 
HETATM    3  C   UNK N   1      35.378  11.882  19.660  0.00  0.00     0.014 A 
HETATM    4  C   UNK N   1      35.743  11.122  18.530  0.00  0.00    -0.003 A 
HETATM    5  C   UNK N   1      36.105   9.781  18.676  0.00  0.00     0.055 A 
HETATM    6  C   UNK N   1      35.090  13.834  18.302  0.00  0.00     0.001 A 
HETATM    7  C   UNK N   1      35.445  13.084  17.193  0.00  0.00     0.014 A 
HETATM    8  C   UNK N   1      35.740  11.722  17.250  0.00  0.00     0.003 A 
HETATM    9  C   UNK N   1      36.093   9.186  19.987  0.00  0.00     0.100 C 
HETATM   10  C   UNK N   1      36.046  10.944  16.079  0.00  0.00     0.058 A 
HETATM   11  C   UNK N   1      36.475   9.033  17.558  0.00  0.00     0.026 A 
HETATM   12  N   UNK N   1      36.060   8.764  21.063  0.00  0.00    -0.191 NA
ENDROOT
BRANCH  10  13
HETATM   13  N   UNK N   1      36.056  11.492  14.727  0.00  0.00    -0.231 N 
HETATM   14  C   UNK N   1      35.002  11.944  13.973  0.00  0.00     0.258 C 
HETATM   15  C   UNK N   1      35.501  12.769  12.890  0.00  0.00     0.210 C 
HETATM   16  O   UNK N   1      33.816  11.755  14.152  0.00  0.00    -0.270 OA
HETATM   17  C   UNK N   1      35.052  13.231  11.549  0.00  0.00     0.152 C 
HETATM   18  N   UNK N   1      36.828  12.346  12.805  0.00  0.00    -0.317 N 
HETATM   19  C   UNK N   1      36.414  13.753  11.009  0.00  0.00     0.054 C 
HETATM   20  C   UNK N   1      37.518  12.843  11.658  0.00  0.00     0.131 C 
HETATM   21  C   UNK N   1      37.160  11.701  13.946  0.00  0.00     0.333 C 
HETATM   22  O   UNK N   1      38.302  11.372  14.235  0.00  0.00    -0.246 OA
BRANCH  17  23
HETATM   23  O   UNK N   1      34.082  14.228  11.719  0.00  0.00    -0.393 OA
HETATM   24  H   UNK N   1      33.987  15.083  11.272  0.00  0.00     0.210 HD
ENDBRANCH  17  23
ENDBRANCH  10  13
TORSDOF 2
ENDMDL
MODEL 6
REMARK VINA RESULT:      -7.3      3.407      7.264
REMARK  2 active torsions:
REMARK  status: ('A' for Active; 'I' for Inactive)
REMARK    1  A    between atoms: C_10  and  N_19 
REMARK    2  A    between atoms: C_12  and  O_11 
ROOT
HETATM    1  C   UNK N   1      27.458  19.954   4.401  0.00  0.00     0.032 A 
HETATM    2  C   UNK N   1      23.582  16.732   4.970  0.00  0.00     0.001 A 
HETATM    3  C   UNK N   1      23.738  17.979   4.371  0.00  0.00     0.014 A 
HETATM    4  C   UNK N   1      24.986  18.635   4.373  0.00  0.00    -0.003 A 
HETATM    5  C   UNK N   1      25.124  19.876   3.747  0.00  0.00     0.055 A 
HETATM    6  C   UNK N   1      24.677  16.111   5.540  0.00  0.00     0.001 A 
HETATM    7  C   UNK N   1      25.900  16.760   5.544  0.00  0.00     0.014 A 
HETATM    8  C   UNK N   1      26.095  18.034   5.011  0.00  0.00     0.003 A 
HETATM    9  C   UNK N   1      23.980  20.477   3.111  0.00  0.00     0.100 C 
HETATM   10  C   UNK N   1      27.357  18.720   5.079  0.00  0.00     0.058 A 
HETATM   11  C   UNK N   1      26.362  20.521   3.742  0.00  0.00     0.026 A 
HETATM   12  N   UNK N   1      23.026  20.909   2.621  0.00  0.00    -0.191 NA
ENDROOT
BRANCH  10  13
HETATM   13  N   UNK N   1      28.542  18.166   5.725  0.00  0.00    -0.231 N 
HETATM   14  C   UNK N   1      28.951  18.294   7.030  0.00  0.00     0.258 C 
HETATM   15  C   UNK N   1      29.924  17.264   7.334  0.00  0.00     0.210 C 
HETATM   16  O   UNK N   1      28.569  19.092   7.860  0.00  0.00    -0.270 OA
HETATM   17  C   UNK N   1      31.020  17.025   8.313  0.00  0.00     0.152 C 
HETATM   18  N   UNK N   1      30.370  16.915   6.059  0.00  0.00    -0.317 N 
HETATM   19  C   UNK N   1      31.717  15.830   7.604  0.00  0.00     0.054 C 
HETATM   20  C   UNK N   1      31.513  16.057   6.063  0.00  0.00     0.131 C 
HETATM   21  C   UNK N   1      29.479  17.357   5.143  0.00  0.00     0.333 C 
HETATM   22  O   UNK N   1      29.509  17.049   3.959  0.00  0.00    -0.246 OA
BRANCH  17  23
HETATM   23  O   UNK N   1      30.452  16.706   9.553  0.00  0.00    -0.393 OA
HETATM   24  H   UNK N   1      30.880  16.550  10.409  0.00  0.00     0.210 HD
ENDBRANCH  17  23
ENDBRANCH  10  13
TORSDOF 2
ENDMDL
MODEL 7
REMARK VINA RESULT:      -7.2     10.425     11.224
REMARK  2 active torsions:
REMARK  status: ('A' for Active; 'I' for Inactive)
REMARK    1  A    between atoms: C_10  and  N_19 
REMARK    2  A    between atoms: C_12  and  O_11 
ROOT
HETATM    1  C   UNK N   1      30.133  23.655  -3.756  0.00  0.00     0.032 A 
HETATM    2  C   UNK N   1      29.003  20.515  -7.577  0.00  0.00     0.001 A 
HETATM    3  C   UNK N   1      29.937  20.504  -6.544  0.00  0.00     0.014 A 
HETATM    4  C   UNK N   1      29.995  21.554  -5.605  0.00  0.00    -0.003 A 
HETATM    5  C   UNK N   1      30.927  21.511  -4.566  0.00  0.00     0.055 A 
HETATM    6  C   UNK N   1      28.094  21.553  -7.659  0.00  0.00     0.001 A 
HETATM    7  C   UNK N   1      28.157  22.585  -6.737  0.00  0.00     0.014 A 
HETATM    8  C   UNK N   1      29.110  22.650  -5.722  0.00  0.00     0.003 A 
HETATM    9  C   UNK N   1      31.826  20.390  -4.470  0.00  0.00     0.100 C 
HETATM   10  C   UNK N   1      29.201  23.760  -4.812  0.00  0.00     0.058 A 
HETATM   11  C   UNK N   1      30.978  22.547  -3.631  0.00  0.00     0.026 A 
HETATM   12  N   UNK N   1      32.522  19.467  -4.448  0.00  0.00    -0.191 NA
ENDROOT
BRANCH  10  13
HETATM   13  N   UNK N   1      28.328  24.927  -4.874  0.00  0.00    -0.231 N 
HETATM   14  C   UNK N   1      27.217  25.213  -4.119  0.00  0.00     0.258 C 
HETATM   15  C   UNK N   1      26.915  26.627  -4.221  0.00  0.00     0.210 C 
HETATM   16  O   UNK N   1      26.570  24.458  -3.422  0.00  0.00    -0.270 OA
HETATM   17  C   UNK N   1      25.744  27.527  -4.040  0.00  0.00     0.152 C 
HETATM   18  N   UNK N   1      27.574  26.970  -5.401  0.00  0.00    -0.317 N 
HETATM   19  C   UNK N   1      26.310  28.797  -4.737  0.00  0.00     0.054 C 
HETATM   20  C   UNK N   1      27.263  28.281  -5.874  0.00  0.00     0.131 C 
HETATM   21  C   UNK N   1      28.479  26.010  -5.697  0.00  0.00     0.333 C 
HETATM   22  O   UNK N   1      29.326  26.118  -6.573  0.00  0.00    -0.246 OA
BRANCH  17  23
HETATM   23  O   UNK N   1      25.506  27.683  -2.668  0.00  0.00    -0.393 OA
HETATM   24  H   UNK N   1      25.959  27.282  -1.911  0.00  0.00     0.210 HD
ENDBRANCH  17  23
ENDBRANCH  10  13
TORSDOF 2
ENDMDL
MODEL 8
REMARK VINA RESULT:      -7.2      4.887      6.313
REMARK  2 active torsions:
REMARK  status: ('A' for Active; 'I' for Inactive)
REMARK    1  A    between atoms: C_10  and  N_19 
REMARK    2  A    between atoms: C_12  and  O_11 
ROOT
HETATM    1  C   UNK N   1      20.244  15.462   7.602  0.00  0.00     0.032 A 
HETATM    2  C   UNK N   1      24.937  13.534   7.579  0.00  0.00     0.001 A 
HETATM    3  C   UNK N   1      23.829  13.406   8.413  0.00  0.00     0.014 A 
HETATM    4  C   UNK N   1      22.626  14.086   8.136  0.00  0.00    -0.003 A 
HETATM    5  C   UNK N   1      21.522  13.924   8.976  0.00  0.00     0.055 A 
HETATM    6  C   UNK N   1      24.841  14.311   6.440  0.00  0.00     0.001 A 
HETATM    7  C   UNK N   1      23.659  14.982   6.173  0.00  0.00     0.014 A 
HETATM    8  C   UNK N   1      22.543  14.933   7.007  0.00  0.00     0.003 A 
HETATM    9  C   UNK N   1      21.630  13.065  10.126  0.00  0.00     0.100 C 
HETATM   10  C   UNK N   1      21.345  15.686   6.748  0.00  0.00     0.058 A 
HETATM   11  C   UNK N   1      20.329  14.592   8.696  0.00  0.00     0.026 A 
HETATM   12  N   UNK N   1      21.780  12.364  11.034  0.00  0.00    -0.191 NA
ENDROOT
BRANCH  10  13
HETATM   13  N   UNK N   1      21.188  16.583   5.609  0.00  0.00    -0.231 N 
HETATM   14  C   UNK N   1      20.842  16.280   4.314  0.00  0.00     0.258 C 
HETATM   15  C   UNK N   1      20.401  17.484   3.638  0.00  0.00     0.210 C 
HETATM   16  O   UNK N   1      20.842  15.194   3.773  0.00  0.00    -0.270 OA
HETATM   17  C   UNK N   1      20.271  17.991   2.245  0.00  0.00     0.152 C 
HETATM   18  N   UNK N   1      20.976  18.477   4.431  0.00  0.00    -0.317 N 
HETATM   19  C   UNK N   1      20.070  19.500   2.558  0.00  0.00     0.054 C 
HETATM   20  C   UNK N   1      20.888  19.787   3.868  0.00  0.00     0.131 C 
HETATM   21  C   UNK N   1      21.322  17.944   5.625  0.00  0.00     0.333 C 
HETATM   22  O   UNK N   1      21.686  18.607   6.587  0.00  0.00    -0.246 OA
BRANCH  17  23
HETATM   23  O   UNK N   1      19.164  17.376   1.645  0.00  0.00    -0.393 OA
HETATM   24  H   UNK N   1      18.530  16.744   2.017  0.00  0.00     0.210 HD
ENDBRANCH  17  23
ENDBRANCH  10  13
TORSDOF 2
ENDMDL
MODEL 9
REMARK VINA RESULT:      -7.1     10.460     11.348
REMARK  2 active torsions:
REMARK  status: ('A' for Active; 'I' for Inactive)
REMARK    1  A    between atoms: C_10  and  N_19 
REMARK    2  A    between atoms: C_12  and  O_11 
ROOT
HETATM    1  C   UNK N   1      28.009  23.388  -6.646  0.00  0.00     0.032 A 
HETATM    2  C   UNK N   1      31.310  21.345  -3.381  0.00  0.00     0.001 A 
HETATM    3  C   UNK N   1      30.758  20.945  -4.595  0.00  0.00     0.014 A 
HETATM    4  C   UNK N   1      29.845  21.768  -5.286  0.00  0.00    -0.003 A 
HETATM    5  C   UNK N   1      29.322  21.353  -6.512  0.00  0.00     0.055 A 
HETATM    6  C   UNK N   1      30.987  22.587  -2.865  0.00  0.00     0.001 A 
HETATM    7  C   UNK N   1      30.087  23.391  -3.545  0.00  0.00     0.014 A 
HETATM    8  C   UNK N   1      29.462  23.011  -4.732  0.00  0.00     0.003 A 
HETATM    9  C   UNK N   1      29.717  20.080  -7.055  0.00  0.00     0.100 C 
HETATM   10  C   UNK N   1      28.482  23.831  -5.392  0.00  0.00     0.058 A 
HETATM   11  C   UNK N   1      28.425  22.173  -7.200  0.00  0.00     0.026 A 
HETATM   12  N   UNK N   1      30.071  19.047  -7.437  0.00  0.00    -0.191 NA
ENDROOT
BRANCH  10  13
HETATM   13  N   UNK N   1      28.033  25.120  -4.878  0.00  0.00    -0.231 N 
HETATM   14  C   UNK N   1      28.499  26.377  -5.178  0.00  0.00     0.258 C 
HETATM   15  C   UNK N   1      27.516  27.364  -4.778  0.00  0.00     0.210 C 
HETATM   16  O   UNK N   1      29.538  26.679  -5.726  0.00  0.00    -0.270 OA
HETATM   17  C   UNK N   1      27.473  28.811  -4.433  0.00  0.00     0.152 C 
HETATM   18  N   UNK N   1      26.767  26.651  -3.842  0.00  0.00    -0.317 N 
HETATM   19  C   UNK N   1      26.062  28.859  -3.782  0.00  0.00     0.054 C 
HETATM   20  C   UNK N   1      25.844  27.457  -3.108  0.00  0.00     0.131 C 
HETATM   21  C   UNK N   1      27.003  25.329  -4.002  0.00  0.00     0.333 C 
HETATM   22  O   UNK N   1      26.359  24.450  -3.446  0.00  0.00    -0.246 OA
BRANCH  17  23
HETATM   23  O   UNK N   1      27.587  29.558  -5.613  0.00  0.00    -0.393 OA
HETATM   24  H   UNK N   1      27.739  30.508  -5.732  0.00  0.00     0.210 HD
ENDBRANCH  17  23
ENDBRANCH  10  13
TORSDOF 2
ENDMDL
