MODEL 1
REMARK VINA RESULT:      -7.8      0.000      0.000
REMARK  3 active torsions:
REMARK  status: ('A' for Active; 'I' for Inactive)
REMARK    1  A    between atoms: C_4  and  O_19 
REMARK    2  A    between atoms: C_8  and  C_22 
REMARK    3  A    between atoms: C_11  and  N_9 
ROOT
HETATM    1  C   UNK N   1      27.529  18.475   4.098  0.00  0.00     0.043 A 
HETATM    2  C   UNK N   1      26.331  17.731   4.085  0.00  0.00    -0.012 A 
HETATM    3  C   UNK N   1      25.108  18.379   3.760  0.00  0.00     0.062 A 
HETATM    4  C   UNK N   1      25.111  19.762   3.458  0.00  0.00     0.067 A 
HETATM    5  C   UNK N   1      26.290  20.476   3.493  0.00  0.00     0.027 A 
HETATM    6  C   UNK N   1      27.468  19.844   3.803  0.00  0.00     0.032 A 
HETATM    7  C   UNK N   1      26.358  16.267   4.391  0.00  0.00     0.052 C 
HETATM    8 Cl   UNK N   1      23.600  17.465   3.710  0.00  0.00    -0.082 Cl
HETATM    9  C   UNK N   1      23.935  20.500   3.096  0.00  0.00     0.101 C 
HETATM   10  N   UNK N   1      23.026  21.152   2.800  0.00  0.00    -0.191 NA
ENDROOT
BRANCH   1  11
HETATM   11  N   UNK N   1      28.800  17.847   4.334  0.00  0.00    -0.322 N 
HETATM   12  C   UNK N   1      29.311  17.751   5.525  0.00  0.00     0.223 C 
HETATM   13  N   UNK N   1      30.564  17.225   5.824  0.00  0.00    -0.337 N 
HETATM   14  O   UNK N   1      28.682  18.138   6.630  0.00  0.00    -0.305 OA
HETATM   15  C   UNK N   1      31.175  16.126   5.144  0.00  0.00     0.129 C 
HETATM   16  C   UNK N   1      30.777  17.338   7.241  0.00  0.00     0.155 C 
HETATM   17  C   UNK N   1      32.018  15.459   6.223  0.00  0.00     0.054 C 
HETATM   18  C   UNK N   1      31.591  16.066   7.579  0.00  0.00     0.145 C 
HETATM   19  C   UNK N   1      29.253  17.522   7.715  0.00  0.00     0.264 C 
ATOM     20  HN  UNK N   1      29.317  17.463   3.543  1.00  0.00     0.169 HD
BRANCH  18  21
HETATM   21  O   UNK N   1      32.746  16.305   8.335  0.00  0.00    -0.393 OA
HETATM   22  H   UNK N   1      33.050  17.123   8.757  0.00  0.00     0.210 HD
ENDBRANCH  18  21
BRANCH  19  23
HETATM   23  C   UNK N   1      28.740  18.185   9.014  0.00  0.00     0.415 C 
HETATM   24  F   UNK N   1      29.742  18.820   9.724  0.00  0.00    -0.168 F 
HETATM   25  F   UNK N   1      27.801  19.150   8.660  0.00  0.00    -0.168 F 
HETATM   26  F   UNK N   1      28.107  17.261   9.819  0.00  0.00    -0.168 F 
ENDBRANCH  19  23
ENDBRANCH   1  11
TORSDOF 3
ENDMDL
MODEL 2
REMARK VINA RESULT:      -7.3      3.629      6.948
REMARK  3 active torsions:
REMARK  status: ('A' for Active; 'I' for Inactive)
REMARK    1  A    between atoms: C_4  and  O_19 
REMARK    2  A    between atoms: C_8  and  C_22 
REMARK    3  A    between atoms: C_11  and  N_9 
ROOT
HETATM    1  C   UNK N   1      30.250  16.919   6.859  0.00  0.00     0.043 A 
HETATM    2  C   UNK N   1      31.315  16.821   5.940  0.00  0.00    -0.012 A 
HETATM    3  C   UNK N   1      32.598  17.315   6.300  0.00  0.00     0.062 A 
HETATM    4  C   UNK N   1      32.787  17.902   7.575  0.00  0.00     0.067 A 
HETATM    5  C   UNK N   1      31.729  18.004   8.453  0.00  0.00     0.027 A 
HETATM    6  C   UNK N   1      30.493  17.521   8.102  0.00  0.00     0.032 A 
HETATM    7  C   UNK N   1      31.094  16.181   4.606  0.00  0.00     0.052 C 
HETATM    8 Cl   UNK N   1      33.954  17.181   5.179  0.00  0.00    -0.082 Cl
HETATM    9  C   UNK N   1      34.046  18.409   8.040  0.00  0.00     0.101 C 
HETATM   10  N   UNK N   1      35.030  18.835   8.473  0.00  0.00    -0.191 NA
ENDROOT
BRANCH   1  11
HETATM   11  N   UNK N   1      28.959  16.355   6.574  0.00  0.00    -0.322 N 
HETATM   12  C   UNK N   1      28.007  17.051   6.030  0.00  0.00     0.223 C 
HETATM   13  N   UNK N   1      26.713  16.600   5.791  0.00  0.00    -0.337 N 
HETATM   14  O   UNK N   1      28.158  18.305   5.610  0.00  0.00    -0.305 OA
HETATM   15  C   UNK N   1      26.368  15.266   5.409  0.00  0.00     0.129 C 
HETATM   16  C   UNK N   1      25.954  17.678   5.221  0.00  0.00     0.155 C 
HETATM   17  C   UNK N   1      25.126  15.450   4.546  0.00  0.00     0.054 C 
HETATM   18  C   UNK N   1      25.003  16.959   4.234  0.00  0.00     0.145 C 
HETATM   19  C   UNK N   1      27.165  18.603   4.711  0.00  0.00     0.264 C 
ATOM     20  HN  UNK N   1      28.785  15.377   6.806  1.00  0.00     0.169 HD
BRANCH  18  21
HETATM   21  O   UNK N   1      23.657  17.324   4.360  0.00  0.00    -0.393 OA
HETATM   22  H   UNK N   1      22.949  17.315   3.698  0.00  0.00     0.210 HD
ENDBRANCH  18  21
BRANCH  19  23
HETATM   23  C   UNK N   1      27.148  20.126   4.450  0.00  0.00     0.415 C 
HETATM   24  F   UNK N   1      27.180  20.440   3.103  0.00  0.00    -0.168 F 
HETATM   25  F   UNK N   1      25.962  20.637   4.970  0.00  0.00    -0.168 F 
HETATM   26  F   UNK N   1      28.192  20.747   5.101  0.00  0.00    -0.168 F 
ENDBRANCH  19  23
ENDBRANCH   1  11
TORSDOF 3
ENDMDL
MODEL 3
REMARK VINA RESULT:      -6.9      1.591      2.261
REMARK  3 active torsions:
REMARK  status: ('A' for Active; 'I' for Inactive)
REMARK    1  A    between atoms: C_4  and  O_19 
REMARK    2  A    between atoms: C_8  and  C_22 
REMARK    3  A    between atoms: C_11  and  N_9 
ROOT
HETATM    1  C   UNK N   1      27.934  17.405   4.738  0.00  0.00     0.043 A 
HETATM    2  C   UNK N   1      27.347  18.666   4.503  0.00  0.00    -0.012 A 
HETATM    3  C   UNK N   1      25.944  18.756   4.293  0.00  0.00     0.062 A 
HETATM    4  C   UNK N   1      25.157  17.579   4.317  0.00  0.00     0.067 A 
HETATM    5  C   UNK N   1      25.753  16.354   4.530  0.00  0.00     0.027 A 
HETATM    6  C   UNK N   1      27.107  16.273   4.738  0.00  0.00     0.032 A 
HETATM    7  C   UNK N   1      28.197  19.896   4.499  0.00  0.00     0.052 C 
HETATM    8 Cl   UNK N   1      25.181  20.324   4.025  0.00  0.00    -0.082 Cl
HETATM    9  C   UNK N   1      23.734  17.568   4.139  0.00  0.00     0.101 C 
HETATM   10  N   UNK N   1      22.588  17.491   4.002  0.00  0.00    -0.191 NA
ENDROOT
BRANCH   1  11
HETATM   11  N   UNK N   1      29.332  17.274   5.042  0.00  0.00    -0.322 N 
HETATM   12  C   UNK N   1      29.787  17.382   6.254  0.00  0.00     0.223 C 
HETATM   13  N   UNK N   1      31.130  17.341   6.618  0.00  0.00    -0.337 N 
HETATM   14  O   UNK N   1      29.010  17.532   7.322  0.00  0.00    -0.305 OA
HETATM   15  C   UNK N   1      32.123  16.524   5.993  0.00  0.00     0.129 C 
HETATM   16  C   UNK N   1      31.221  17.540   8.038  0.00  0.00     0.155 C 
HETATM   17  C   UNK N   1      33.097  16.215   7.124  0.00  0.00     0.054 C 
HETATM   18  C   UNK N   1      32.418  16.647   8.444  0.00  0.00     0.145 C 
HETATM   19  C   UNK N   1      29.712  17.174   8.446  0.00  0.00     0.264 C 
ATOM     20  HN  UNK N   1      29.988  17.091   4.283  1.00  0.00     0.169 HD
BRANCH  18  21
HETATM   21  O   UNK N   1      33.375  17.291   9.238  0.00  0.00    -0.393 OA
HETATM   22  H   UNK N   1      34.297  17.048   9.415  0.00  0.00     0.210 HD
ENDBRANCH  18  21
BRANCH  19  23
HETATM   23  C   UNK N   1      28.935  17.626   9.704  0.00  0.00     0.415 C 
HETATM   24  F   UNK N   1      28.878  16.647  10.679  0.00  0.00    -0.168 F 
HETATM   25  F   UNK N   1      29.601  18.720  10.249  0.00  0.00    -0.168 F 
HETATM   26  F   UNK N   1      27.660  18.033   9.373  0.00  0.00    -0.168 F 
ENDBRANCH  19  23
ENDBRANCH   1  11
TORSDOF 3
ENDMDL
MODEL 4
REMARK VINA RESULT:      -6.8      3.130      6.262
REMARK  3 active torsions:
REMARK  status: ('A' for Active; 'I' for Inactive)
REMARK    1  A    between atoms: C_4  and  O_19 
REMARK    2  A    between atoms: C_8  and  C_22 
REMARK    3  A    between atoms: C_11  and  N_9 
ROOT
HETATM    1  C   UNK N   1      30.845  17.008   4.407  0.00  0.00     0.043 A 
HETATM    2  C   UNK N   1      30.625  15.618   4.295  0.00  0.00    -0.012 A 
HETATM    3  C   UNK N   1      31.734  14.729   4.338  0.00  0.00     0.062 A 
HETATM    4  C   UNK N   1      33.041  15.251   4.488  0.00  0.00     0.067 A 
HETATM    5  C   UNK N   1      33.236  16.614   4.577  0.00  0.00     0.027 A 
HETATM    6  C   UNK N   1      32.162  17.467   4.540  0.00  0.00     0.032 A 
HETATM    7  C   UNK N   1      29.233  15.091   4.155  0.00  0.00     0.052 C 
HETATM    8 Cl   UNK N   1      31.485  12.986   4.229  0.00  0.00    -0.082 Cl
HETATM    9  C   UNK N   1      34.220  14.437   4.564  0.00  0.00     0.101 C 
HETATM   10  N   UNK N   1      35.208  13.839   4.632  0.00  0.00    -0.191 NA
ENDROOT
BRANCH   1  11
HETATM   11  N   UNK N   1      29.750  17.938   4.457  0.00  0.00    -0.322 N 
HETATM   12  C   UNK N   1      29.174  18.265   5.574  0.00  0.00     0.223 C 
HETATM   13  N   UNK N   1      28.066  19.098   5.696  0.00  0.00    -0.337 N 
HETATM   14  O   UNK N   1      29.589  17.849   6.767  0.00  0.00    -0.305 OA
HETATM   15  C   UNK N   1      27.804  20.239   4.875  0.00  0.00     0.129 C 
HETATM   16  C   UNK N   1      27.707  19.175   7.085  0.00  0.00     0.155 C 
HETATM   17  C   UNK N   1      27.057  21.187   5.805  0.00  0.00     0.054 C 
HETATM   18  C   UNK N   1      27.201  20.630   7.240  0.00  0.00     0.145 C 
HETATM   19  C   UNK N   1      29.091  18.685   7.736  0.00  0.00     0.264 C 
ATOM     20  HN  UNK N   1      29.415  18.353   3.588  1.00  0.00     0.169 HD
BRANCH  18  21
HETATM   21  O   UNK N   1      25.961  20.744   7.880  0.00  0.00    -0.393 OA
HETATM   22  H   UNK N   1      25.111  20.335   7.658  0.00  0.00     0.210 HD
ENDBRANCH  18  21
BRANCH  19  23
HETATM   23  C   UNK N   1      29.310  18.048   9.127  0.00  0.00     0.415 C 
HETATM   24  F   UNK N   1      30.227  17.013   9.105  0.00  0.00    -0.168 F 
HETATM   25  F   UNK N   1      29.811  19.032   9.975  0.00  0.00    -0.168 F 
HETATM   26  F   UNK N   1      28.117  17.606   9.657  0.00  0.00    -0.168 F 
ENDBRANCH  19  23
ENDBRANCH   1  11
TORSDOF 3
ENDMDL
MODEL 5
REMARK VINA RESULT:      -6.8      4.577      8.592
REMARK  3 active torsions:
REMARK  status: ('A' for Active; 'I' for Inactive)
REMARK    1  A    between atoms: C_4  and  O_19 
REMARK    2  A    between atoms: C_8  and  C_22 
REMARK    3  A    between atoms: C_11  and  N_9 
ROOT
HETATM    1  C   UNK N   1      33.802  15.396   8.868  0.00  0.00     0.043 A 
HETATM    2  C   UNK N   1      33.919  14.095   9.401  0.00  0.00    -0.012 A 
HETATM    3  C   UNK N   1      34.612  13.902  10.627  0.00  0.00     0.062 A 
HETATM    4  C   UNK N   1      35.179  15.016  11.292  0.00  0.00     0.067 A 
HETATM    5  C   UNK N   1      35.068  16.277  10.745  0.00  0.00     0.027 A 
HETATM    6  C   UNK N   1      34.393  16.459   9.564  0.00  0.00     0.032 A 
HETATM    7  C   UNK N   1      33.298  12.936   8.689  0.00  0.00     0.052 C 
HETATM    8 Cl   UNK N   1      34.750  12.289  11.330  0.00  0.00    -0.082 Cl
HETATM    9  C   UNK N   1      35.876  14.928  12.542  0.00  0.00     0.101 C 
HETATM   10  N   UNK N   1      36.449  14.924  13.547  0.00  0.00    -0.191 NA
ENDROOT
BRANCH   1  11
HETATM   11  N   UNK N   1      33.036  15.652   7.679  0.00  0.00    -0.322 N 
HETATM   12  C   UNK N   1      31.831  16.135   7.726  0.00  0.00     0.223 C 
HETATM   13  N   UNK N   1      31.001  16.341   6.628  0.00  0.00    -0.337 N 
HETATM   14  O   UNK N   1      31.232  16.514   8.851  0.00  0.00    -0.305 OA
HETATM   15  C   UNK N   1      31.444  16.757   5.334  0.00  0.00     0.129 C 
HETATM   16  C   UNK N   1      29.740  16.843   7.099  0.00  0.00     0.155 C 
HETATM   17  C   UNK N   1      30.270  17.566   4.795  0.00  0.00     0.054 C 
HETATM   18  C   UNK N   1      29.307  17.818   5.978  0.00  0.00     0.145 C 
HETATM   19  C   UNK N   1      30.197  17.364   8.548  0.00  0.00     0.264 C 
ATOM     20  HN  UNK N   1      33.452  15.449   6.770  1.00  0.00     0.169 HD
BRANCH  18  21
HETATM   21  O   UNK N   1      27.996  17.628   5.523  0.00  0.00    -0.393 OA
HETATM   22  H   UNK N   1      27.676  17.160   4.737  0.00  0.00     0.210 HD
ENDBRANCH  18  21
BRANCH  19  23
HETATM   23  C   UNK N   1      29.316  17.569   9.801  0.00  0.00     0.415 C 
HETATM   24  F   UNK N   1      29.461  16.556  10.731  0.00  0.00    -0.168 F 
HETATM   25  F   UNK N   1      29.709  18.757  10.412  0.00  0.00    -0.168 F 
HETATM   26  F   UNK N   1      27.988  17.697   9.451  0.00  0.00    -0.168 F 
ENDBRANCH  19  23
ENDBRANCH   1  11
TORSDOF 3
ENDMDL
MODEL 6
REMARK VINA RESULT:      -6.8      7.361      8.050
REMARK  3 active torsions:
REMARK  status: ('A' for Active; 'I' for Inactive)
REMARK    1  A    between atoms: C_4  and  O_19 
REMARK    2  A    between atoms: C_8  and  C_22 
REMARK    3  A    between atoms: C_11  and  N_9 
ROOT
HETATM    1  C   UNK N   1      21.768  16.994   4.479  0.00  0.00     0.043 A 
HETATM    2  C   UNK N   1      21.078  16.680   3.289  0.00  0.00    -0.012 A 
HETATM    3  C   UNK N   1      20.755  17.718   2.373  0.00  0.00     0.062 A 
HETATM    4  C   UNK N   1      21.127  19.051   2.670  0.00  0.00     0.067 A 
HETATM    5  C   UNK N   1      21.785  19.340   3.847  0.00  0.00     0.027 A 
HETATM    6  C   UNK N   1      22.099  18.333   4.725  0.00  0.00     0.032 A 
HETATM    7  C   UNK N   1      20.712  15.261   2.990  0.00  0.00     0.052 C 
HETATM    8 Cl   UNK N   1      19.917  17.349   0.865  0.00  0.00    -0.082 Cl
HETATM    9  C   UNK N   1      20.867  20.163   1.801  0.00  0.00     0.101 C 
HETATM   10  N   UNK N   1      20.688  21.101   1.148  0.00  0.00    -0.191 NA
ENDROOT
BRANCH   1  11
HETATM   11  N   UNK N   1      22.193  15.968   5.392  0.00  0.00    -0.322 N 
HETATM   12  C   UNK N   1      21.623  15.793   6.546  0.00  0.00     0.223 C 
HETATM   13  N   UNK N   1      22.022  14.875   7.511  0.00  0.00    -0.337 N 
HETATM   14  O   UNK N   1      20.554  16.474   6.951  0.00  0.00    -0.305 OA
HETATM   15  C   UNK N   1      22.554  13.576   7.237  0.00  0.00     0.129 C 
HETATM   16  C   UNK N   1      21.169  15.021   8.658  0.00  0.00     0.155 C 
HETATM   17  C   UNK N   1      22.094  12.740   8.424  0.00  0.00     0.054 C 
HETATM   18  C   UNK N   1      21.038  13.573   9.189  0.00  0.00     0.145 C 
HETATM   19  C   UNK N   1      19.937  15.785   7.965  0.00  0.00     0.264 C 
ATOM     20  HN  UNK N   1      22.966  15.359   5.125  1.00  0.00     0.169 HD
BRANCH  18  21
HETATM   21  O   UNK N   1      21.284  13.437  10.561  0.00  0.00    -0.393 OA
HETATM   22  H   UNK N   1      20.663  13.274  11.287  0.00  0.00     0.210 HD
ENDBRANCH  18  21
BRANCH  19  23
HETATM   23  C   UNK N   1      18.887  16.695   8.641  0.00  0.00     0.415 C 
HETATM   24  F   UNK N   1      19.361  17.970   8.888  0.00  0.00    -0.168 F 
HETATM   25  F   UNK N   1      17.802  16.813   7.777  0.00  0.00    -0.168 F 
HETATM   26  F   UNK N   1      18.430  16.129   9.812  0.00  0.00    -0.168 F 
ENDBRANCH  19  23
ENDBRANCH   1  11
TORSDOF 3
ENDMDL
MODEL 7
REMARK VINA RESULT:      -6.8      3.678      7.013
REMARK  3 active torsions:
REMARK  status: ('A' for Active; 'I' for Inactive)
REMARK    1  A    between atoms: C_4  and  O_19 
REMARK    2  A    between atoms: C_8  and  C_22 
REMARK    3  A    between atoms: C_11  and  N_9 
ROOT
HETATM    1  C   UNK N   1      28.889  16.377   6.125  0.00  0.00     0.043 A 
HETATM    2  C   UNK N   1      29.378  17.041   7.270  0.00  0.00    -0.012 A 
HETATM    3  C   UNK N   1      30.751  17.403   7.336  0.00  0.00     0.062 A 
HETATM    4  C   UNK N   1      31.608  17.087   6.255  0.00  0.00     0.067 A 
HETATM    5  C   UNK N   1      31.115  16.421   5.153  0.00  0.00     0.027 A 
HETATM    6  C   UNK N   1      29.787  16.079   5.091  0.00  0.00     0.032 A 
HETATM    7  C   UNK N   1      28.447  17.379   8.391  0.00  0.00     0.052 C 
HETATM    8 Cl   UNK N   1      31.381  18.258   8.744  0.00  0.00    -0.082 Cl
HETATM    9  C   UNK N   1      33.001  17.428   6.217  0.00  0.00     0.101 C 
HETATM   10  N   UNK N   1      34.128  17.673   6.125  0.00  0.00    -0.191 NA
ENDROOT
BRANCH   1  11
HETATM   11  N   UNK N   1      27.493  16.071   5.975  0.00  0.00    -0.322 N 
HETATM   12  C   UNK N   1      26.656  16.909   5.440  0.00  0.00     0.223 C 
HETATM   13  N   UNK N   1      25.283  16.716   5.327  0.00  0.00    -0.337 N 
HETATM   14  O   UNK N   1      27.018  18.073   4.909  0.00  0.00    -0.305 OA
HETATM   15  C   UNK N   1      24.650  15.458   5.080  0.00  0.00     0.129 C 
HETATM   16  C   UNK N   1      24.709  17.885   4.722  0.00  0.00     0.155 C 
HETATM   17  C   UNK N   1      23.402  15.832   4.290  0.00  0.00     0.054 C 
HETATM   18  C   UNK N   1      23.556  17.310   3.863  0.00  0.00     0.145 C 
HETATM   19  C   UNK N   1      26.033  18.507   4.058  0.00  0.00     0.264 C 
ATOM     20  HN  UNK N   1      27.148  15.167   6.298  1.00  0.00     0.169 HD
BRANCH  18  21
HETATM   21  O   UNK N   1      22.324  17.950   4.049  0.00  0.00    -0.393 OA
HETATM   22  H   UNK N   1      22.060  18.857   3.832  0.00  0.00     0.210 HD
ENDBRANCH  18  21
BRANCH  19  23
HETATM   23  C   UNK N   1      26.297  19.981   3.673  0.00  0.00     0.415 C 
HETATM   24  F   UNK N   1      25.684  20.344   2.488  0.00  0.00    -0.168 F 
HETATM   25  F   UNK N   1      25.772  20.787   4.679  0.00  0.00    -0.168 F 
HETATM   26  F   UNK N   1      27.650  20.233   3.597  0.00  0.00    -0.168 F 
ENDBRANCH  19  23
ENDBRANCH   1  11
TORSDOF 3
ENDMDL
MODEL 8
REMARK VINA RESULT:      -6.7      3.784      4.691
REMARK  3 active torsions:
REMARK  status: ('A' for Active; 'I' for Inactive)
REMARK    1  A    between atoms: C_4  and  O_19 
REMARK    2  A    between atoms: C_8  and  C_22 
REMARK    3  A    between atoms: C_11  and  N_9 
ROOT
HETATM    1  C   UNK N   1      24.498  18.974   4.554  0.00  0.00     0.043 A 
HETATM    2  C   UNK N   1      23.197  18.432   4.609  0.00  0.00    -0.012 A 
HETATM    3  C   UNK N   1      22.177  18.975   3.782  0.00  0.00     0.062 A 
HETATM    4  C   UNK N   1      22.481  20.055   2.918  0.00  0.00     0.067 A 
HETATM    5  C   UNK N   1      23.754  20.583   2.892  0.00  0.00     0.027 A 
HETATM    6  C   UNK N   1      24.737  20.051   3.689  0.00  0.00     0.032 A 
HETATM    7  C   UNK N   1      22.906  17.279   5.517  0.00  0.00     0.052 C 
HETATM    8 Cl   UNK N   1      20.548  18.297   3.811  0.00  0.00    -0.082 Cl
HETATM    9  C   UNK N   1      21.528  20.657   2.030  0.00  0.00     0.101 C 
HETATM   10  N   UNK N   1      20.810  21.185   1.294  0.00  0.00    -0.191 NA
ENDROOT
BRANCH   1  11
HETATM   11  N   UNK N   1      25.581  18.401   5.306  0.00  0.00    -0.322 N 
HETATM   12  C   UNK N   1      26.258  17.381   4.872  0.00  0.00     0.223 C 
HETATM   13  N   UNK N   1      27.268  16.727   5.571  0.00  0.00    -0.337 N 
HETATM   14  O   UNK N   1      26.078  16.832   3.674  0.00  0.00    -0.305 OA
HETATM   15  C   UNK N   1      28.206  17.364   6.443  0.00  0.00     0.129 C 
HETATM   16  C   UNK N   1      27.734  15.628   4.773  0.00  0.00     0.155 C 
HETATM   17  C   UNK N   1      29.460  16.509   6.308  0.00  0.00     0.054 C 
HETATM   18  C   UNK N   1      29.247  15.571   5.097  0.00  0.00     0.145 C 
HETATM   19  C   UNK N   1      27.192  16.104   3.338  0.00  0.00     0.264 C 
ATOM     20  HN  UNK N   1      25.826  18.809   6.208  1.00  0.00     0.169 HD
BRANCH  18  21
HETATM   21  O   UNK N   1      29.715  14.297   5.443  0.00  0.00    -0.393 OA
HETATM   22  H   UNK N   1      29.520  13.437   5.041  0.00  0.00     0.210 HD
ENDBRANCH  18  21
BRANCH  19  23
HETATM   23  C   UNK N   1      26.880  15.226   2.104  0.00  0.00     0.415 C 
HETATM   24  F   UNK N   1      26.039  15.850   1.201  0.00  0.00    -0.168 F 
HETATM   25  F   UNK N   1      28.080  14.968   1.448  0.00  0.00    -0.168 F 
HETATM   26  F   UNK N   1      26.343  14.016   2.487  0.00  0.00    -0.168 F 
ENDBRANCH  19  23
ENDBRANCH   1  11
TORSDOF 3
ENDMDL
MODEL 9
REMARK VINA RESULT:      -6.7      3.429      6.804
REMARK  3 active torsions:
REMARK  status: ('A' for Active; 'I' for Inactive)
REMARK    1  A    between atoms: C_4  and  O_19 
REMARK    2  A    between atoms: C_8  and  C_22 
REMARK    3  A    between atoms: C_11  and  N_9 
ROOT
HETATM    1  C   UNK N   1      30.897  15.826   5.064  0.00  0.00     0.043 A 
HETATM    2  C   UNK N   1      32.276  16.115   5.134  0.00  0.00    -0.012 A 
HETATM    3  C   UNK N   1      33.208  15.050   5.265  0.00  0.00     0.062 A 
HETATM    4  C   UNK N   1      32.739  13.716   5.329  0.00  0.00     0.067 A 
HETATM    5  C   UNK N   1      31.385  13.456   5.277  0.00  0.00     0.027 A 
HETATM    6  C   UNK N   1      30.490  14.487   5.145  0.00  0.00     0.032 A 
HETATM    7  C   UNK N   1      32.747  17.532   5.047  0.00  0.00     0.052 C 
HETATM    8 Cl   UNK N   1      34.940  15.382   5.327  0.00  0.00    -0.082 Cl
HETATM    9  C   UNK N   1      33.599  12.573   5.439  0.00  0.00     0.101 C 
HETATM   10  N   UNK N   1      34.236  11.612   5.528  0.00  0.00    -0.191 NA
ENDROOT
BRANCH   1  11
HETATM   11  N   UNK N   1      29.924  16.861   4.844  0.00  0.00    -0.322 N 
HETATM   12  C   UNK N   1      29.320  17.461   5.825  0.00  0.00     0.223 C 
HETATM   13  N   UNK N   1      28.318  18.416   5.691  0.00  0.00    -0.337 N 
HETATM   14  O   UNK N   1      29.601  17.242   7.107  0.00  0.00    -0.305 OA
HETATM   15  C   UNK N   1      28.253  19.397   4.653  0.00  0.00     0.129 C 
HETATM   16  C   UNK N   1      27.879  18.801   7.004  0.00  0.00     0.155 C 
HETATM   17  C   UNK N   1      27.569  20.583   5.320  0.00  0.00     0.054 C 
HETATM   18  C   UNK N   1      27.547  20.304   6.841  0.00  0.00     0.145 C 
HETATM   19  C   UNK N   1      29.146  18.299   7.855  0.00  0.00     0.264 C 
ATOM     20  HN  UNK N   1      29.701  17.133   3.886  1.00  0.00     0.169 HD
BRANCH  18  21
HETATM   21  O   UNK N   1      26.290  20.674   7.336  0.00  0.00    -0.393 OA
HETATM   22  H   UNK N   1      25.818  21.516   7.256  0.00  0.00     0.210 HD
ENDBRANCH  18  21
BRANCH  19  23
HETATM   23  C   UNK N   1      29.192  17.926   9.354  0.00  0.00     0.415 C 
HETATM   24  F   UNK N   1      29.632  18.966  10.152  0.00  0.00    -0.168 F 
HETATM   25  F   UNK N   1      27.898  17.609   9.757  0.00  0.00    -0.168 F 
HETATM   26  F   UNK N   1      29.979  16.813   9.558  0.00  0.00    -0.168 F 
ENDBRANCH  19  23
ENDBRANCH   1  11
TORSDOF 3
ENDMDL
