REMARK  3 active torsions:
REMARK  status: ('A' for Active; 'I' for Inactive)
REMARK    1  A    between atoms: C_4  and  O_19 
REMARK    2  A    between atoms: C_8  and  C_22 
REMARK    3  A    between atoms: C_11  and  N_9 
ROOT
HETATM    1  C   UNK N   1       1.598   1.395  -0.049  0.00  0.00     0.043 A 
HETATM    2  C   UNK N   1       2.076   2.722  -0.017  0.00  0.00    -0.012 A 
HETATM    3  C   UNK N   1       3.477   2.961  -0.003  0.00  0.00     0.062 A 
HETATM    4  C   UNK N   1       4.372   1.864  -0.016  0.00  0.00     0.067 A 
HETATM    5  C   UNK N   1       3.885   0.574  -0.029  0.00  0.00     0.027 A 
HETATM    6  C   UNK N   1       2.531   0.349  -0.048  0.00  0.00     0.032 A 
HETATM    7  C   UNK N   1       1.110   3.864  -0.021  0.00  0.00     0.052 C 
HETATM    8 Cl   UNK N   1       4.101   4.611   0.009  0.00  0.00    -0.082 Cl
HETATM    9  C   UNK N   1       5.800   2.001  -0.026  0.00  0.00     0.101 C 
HETATM   10  N   UNK N   1       6.956   2.043  -0.034  0.00  0.00    -0.191 NA
ENDROOT
BRANCH   1  11
HETATM   11  N   UNK N   1       0.194   1.106  -0.153  0.00  0.00    -0.322 N 
HETATM   12  C   UNK N   1      -0.256  -0.110  -0.231  0.00  0.00     0.223 C 
HETATM   13  N   UNK N   1      -1.589  -0.467  -0.407  0.00  0.00    -0.337 N 
HETATM   14  O   UNK N   1       0.516  -1.189  -0.135  0.00  0.00    -0.305 OA
HETATM   15  C   UNK N   1      -2.705   0.233   0.149  0.00  0.00     0.129 C 
HETATM   16  C   UNK N   1      -1.669  -1.899  -0.488  0.00  0.00     0.155 C 
HETATM   17  C   UNK N   1      -3.740  -0.862   0.375  0.00  0.00     0.054 C 
HETATM   18  C   UNK N   1      -3.018  -2.218   0.201  0.00  0.00     0.145 C 
HETATM   19  C   UNK N   1      -0.261  -2.273   0.189  0.00  0.00     0.264 C 
ATOM     20  HN  UNK N   1      -0.470   1.880  -0.166  1.00  0.00     0.169 HD
BRANCH  18  21
HETATM   21  O   UNK N   1      -3.854  -3.068  -0.534  0.00  0.00    -0.393 OA
HETATM   22  H   UNK N   1      -4.653  -2.861  -1.042  0.00  0.00     0.210 HD
ENDBRANCH  18  21
BRANCH  19  23
HETATM   23  C   UNK N   1       0.562  -3.569   0.008  0.00  0.00     0.415 C 
HETATM   24  F   UNK N   1       0.803  -3.870  -1.320  0.00  0.00    -0.168 F 
HETATM   25  F   UNK N   1       1.796  -3.383   0.625  0.00  0.00    -0.168 F 
HETATM   26  F   UNK N   1      -0.059  -4.634   0.625  0.00  0.00    -0.168 F 
ENDBRANCH  19  23
ENDBRANCH   1  11
TORSDOF 3
