MODEL 1
REMARK VINA RESULT:      -7.0      0.000      0.000
REMARK  6 active torsions:
REMARK  status: ('A' for Active; 'I' for Inactive)
REMARK    1  A    between atoms: C_4  and  C_14 
REMARK    2  A    between atoms: C_10  and  N_16 
REMARK    3  A    between atoms: C_15  and  N_16 
REMARK    4  A    between atoms: C_15  and  C_21 
REMARK    5  A    between atoms: N_16  and  C_17 
REMARK    6  A    between atoms: C_17  and  C_25 
ROOT
HETATM    1  N   UNK N   1      32.181  17.621   9.118  0.00  0.00    -0.323 N 
HETATM    2  C   UNK N   1      33.430  17.414   8.600  0.00  0.00     0.246 A 
HETATM    3  C   UNK N   1      33.596  17.188   7.235  0.00  0.00     0.091 A 
HETATM    4  C   UNK N   1      32.487  17.180   6.378  0.00  0.00     0.065 A 
HETATM    5  C   UNK N   1      31.206  17.428   6.929  0.00  0.00     0.008 A 
HETATM    6  C   UNK N   1      30.060  17.511   6.131  0.00  0.00     0.043 A 
HETATM    7  C   UNK N   1      28.799  17.791   6.677  0.00  0.00     0.031 A 
HETATM    8  C   UNK N   1      28.690  17.962   8.068  0.00  0.00     0.031 A 
HETATM    9  C   UNK N   1      29.822  17.881   8.885  0.00  0.00     0.033 A 
HETATM   10  C   UNK N   1      31.079  17.637   8.323  0.00  0.00     0.046 A 
HETATM   11  O   UNK N   1      34.404  17.431   9.333  0.00  0.00    -0.268 OA
HETATM   12  H   UNK N   1      32.079  17.761  10.087  0.00  0.00     0.169 HD
ENDROOT
BRANCH   7  13
HETATM   13  N   UNK N   1      27.673  18.010   5.817  0.00  0.00    -0.364 N 
BRANCH  13  14
HETATM   14  C   UNK N   1      27.060  16.867   5.161  0.00  0.00     0.240 C 
BRANCH  14  15
HETATM   15  C   UNK N   1      27.135  16.909   3.641  0.00  0.00     0.403 C 
HETATM   16  F   UNK N   1      26.147  17.730   3.130  0.00  0.00    -0.169 F 
HETATM   17  F   UNK N   1      27.008  15.636   3.117  0.00  0.00    -0.169 F 
HETATM   18  F   UNK N   1      28.371  17.410   3.278  0.00  0.00    -0.169 F 
ENDBRANCH  14  15
ENDBRANCH  13  14
BRANCH  13  19
HETATM   19  C   UNK N   1      26.904  19.236   5.949  0.00  0.00     0.240 C 
BRANCH  19  20
HETATM   20  C   UNK N   1      27.446  20.399   5.116  0.00  0.00     0.403 C 
HETATM   21  F   UNK N   1      27.704  21.512   5.892  0.00  0.00    -0.169 F 
HETATM   22  F   UNK N   1      28.605  20.025   4.467  0.00  0.00    -0.169 F 
HETATM   23  F   UNK N   1      26.495  20.732   4.169  0.00  0.00    -0.169 F 
ENDBRANCH  19  20
ENDBRANCH  13  19
ENDBRANCH   7  13
BRANCH   4  24
HETATM   24  C   UNK N   1      32.747  16.912   4.906  0.00  0.00     0.418 C 
HETATM   25  F   UNK N   1      31.950  15.859   4.492  0.00  0.00    -0.166 F 
HETATM   26  F   UNK N   1      32.473  17.991   4.085  0.00  0.00    -0.166 F 
HETATM   27  F   UNK N   1      34.072  16.561   4.734  0.00  0.00    -0.166 F 
ENDBRANCH   4  24
TORSDOF 6
ENDMDL
MODEL 2
REMARK VINA RESULT:      -6.6      0.843      3.015
REMARK  6 active torsions:
REMARK  status: ('A' for Active; 'I' for Inactive)
REMARK    1  A    between atoms: C_4  and  C_14 
REMARK    2  A    between atoms: C_10  and  N_16 
REMARK    3  A    between atoms: C_15  and  N_16 
REMARK    4  A    between atoms: C_15  and  C_21 
REMARK    5  A    between atoms: N_16  and  C_17 
REMARK    6  A    between atoms: C_17  and  C_25 
ROOT
HETATM    1  N   UNK N   1      32.235  17.537   9.057  0.00  0.00    -0.323 N 
HETATM    2  C   UNK N   1      33.529  17.317   8.670  0.00  0.00     0.246 A 
HETATM    3  C   UNK N   1      33.827  17.050   7.335  0.00  0.00     0.091 A 
HETATM    4  C   UNK N   1      32.807  17.014   6.374  0.00  0.00     0.065 A 
HETATM    5  C   UNK N   1      31.478  17.276   6.790  0.00  0.00     0.008 A 
HETATM    6  C   UNK N   1      30.417  17.332   5.881  0.00  0.00     0.043 A 
HETATM    7  C   UNK N   1      29.109  17.625   6.292  0.00  0.00     0.031 A 
HETATM    8  C   UNK N   1      28.863  17.837   7.660  0.00  0.00     0.031 A 
HETATM    9  C   UNK N   1      29.911  17.784   8.586  0.00  0.00     0.033 A 
HETATM   10  C   UNK N   1      31.216  17.526   8.157  0.00  0.00     0.046 A 
HETATM   11  O   UNK N   1      34.426  17.358   9.494  0.00  0.00    -0.268 OA
HETATM   12  H   UNK N   1      32.038  17.705  10.007  0.00  0.00     0.169 HD
ENDROOT
BRANCH   7  13
HETATM   13  N   UNK N   1      28.072  17.815   5.320  0.00  0.00    -0.364 N 
BRANCH  13  14
HETATM   14  C   UNK N   1      27.064  18.834   5.561  0.00  0.00     0.240 C 
BRANCH  14  15
HETATM   15  C   UNK N   1      27.553  20.258   5.336  0.00  0.00     0.403 C 
HETATM   16  F   UNK N   1      28.627  20.269   4.467  0.00  0.00    -0.169 F 
HETATM   17  F   UNK N   1      27.911  20.840   6.538  0.00  0.00    -0.169 F 
HETATM   18  F   UNK N   1      26.519  20.993   4.785  0.00  0.00    -0.169 F 
ENDBRANCH  14  15
ENDBRANCH  13  14
BRANCH  13  19
HETATM   19  C   UNK N   1      28.271  17.336   3.963  0.00  0.00     0.240 C 
BRANCH  19  20
HETATM   20  C   UNK N   1      27.727  15.927   3.718  0.00  0.00     0.403 C 
HETATM   21  F   UNK N   1      28.741  15.010   3.519  0.00  0.00    -0.169 F 
HETATM   22  F   UNK N   1      26.955  15.519   4.786  0.00  0.00    -0.169 F 
HETATM   23  F   UNK N   1      26.935  15.961   2.585  0.00  0.00    -0.169 F 
ENDBRANCH  19  20
ENDBRANCH  13  19
ENDBRANCH   7  13
BRANCH   4  24
HETATM   24  C   UNK N   1      33.210  16.702   4.944  0.00  0.00     0.418 C 
HETATM   25  F   UNK N   1      34.497  16.194   4.938  0.00  0.00    -0.166 F 
HETATM   26  F   UNK N   1      32.392  15.774   4.323  0.00  0.00    -0.166 F 
HETATM   27  F   UNK N   1      33.187  17.865   4.199  0.00  0.00    -0.166 F 
ENDBRANCH   4  24
TORSDOF 6
ENDMDL
MODEL 3
REMARK VINA RESULT:      -6.5      3.462      6.686
REMARK  6 active torsions:
REMARK  status: ('A' for Active; 'I' for Inactive)
REMARK    1  A    between atoms: C_4  and  C_14 
REMARK    2  A    between atoms: C_10  and  N_16 
REMARK    3  A    between atoms: C_15  and  N_16 
REMARK    4  A    between atoms: C_15  and  C_21 
REMARK    5  A    between atoms: N_16  and  C_17 
REMARK    6  A    between atoms: C_17  and  C_25 
ROOT
HETATM    1  N   UNK N   1      26.023  18.559   3.425  0.00  0.00    -0.323 N 
HETATM    2  C   UNK N   1      25.423  19.790   3.415  0.00  0.00     0.246 A 
HETATM    3  C   UNK N   1      25.665  20.698   4.444  0.00  0.00     0.091 A 
HETATM    4  C   UNK N   1      26.532  20.365   5.494  0.00  0.00     0.065 A 
HETATM    5  C   UNK N   1      27.167  19.098   5.469  0.00  0.00     0.008 A 
HETATM    6  C   UNK N   1      28.102  18.720   6.439  0.00  0.00     0.043 A 
HETATM    7  C   UNK N   1      28.754  17.480   6.391  0.00  0.00     0.031 A 
HETATM    8  C   UNK N   1      28.431  16.588   5.354  0.00  0.00     0.031 A 
HETATM    9  C   UNK N   1      27.498  16.945   4.375  0.00  0.00     0.033 A 
HETATM   10  C   UNK N   1      26.882  18.199   4.415  0.00  0.00     0.046 A 
HETATM   11  O   UNK N   1      24.677  20.095   2.501  0.00  0.00    -0.268 OA
HETATM   12  H   UNK N   1      25.827  17.923   2.700  0.00  0.00     0.169 HD
ENDROOT
BRANCH   7  13
HETATM   13  N   UNK N   1      29.808  17.182   7.317  0.00  0.00    -0.364 N 
BRANCH  13  14
HETATM   14  C   UNK N   1      30.818  16.208   6.939  0.00  0.00     0.240 C 
BRANCH  14  15
HETATM   15  C   UNK N   1      32.018  16.806   6.216  0.00  0.00     0.403 C 
HETATM   16  F   UNK N   1      32.858  17.437   7.114  0.00  0.00    -0.169 F 
HETATM   17  F   UNK N   1      31.600  17.701   5.249  0.00  0.00    -0.169 F 
HETATM   18  F   UNK N   1      32.708  15.782   5.595  0.00  0.00    -0.169 F 
ENDBRANCH  14  15
ENDBRANCH  13  14
BRANCH  13  19
HETATM   19  C   UNK N   1      30.109  18.125   8.381  0.00  0.00     0.240 C 
BRANCH  19  20
HETATM   20  C   UNK N   1      29.387  17.825   9.697  0.00  0.00     0.403 C 
HETATM   21  F   UNK N   1      28.014  17.833   9.545  0.00  0.00    -0.169 F 
HETATM   22  F   UNK N   1      29.778  16.596  10.188  0.00  0.00    -0.169 F 
HETATM   23  F   UNK N   1      29.736  18.799  10.613  0.00  0.00    -0.169 F 
ENDBRANCH  19  20
ENDBRANCH  13  19
ENDBRANCH   7  13
BRANCH   4  24
HETATM   24  C   UNK N   1      26.733  21.400   6.586  0.00  0.00     0.418 C 
HETATM   25  F   UNK N   1      25.841  22.440   6.391  0.00  0.00    -0.166 F 
HETATM   26  F   UNK N   1      26.531  20.910   7.864  0.00  0.00    -0.166 F 
HETATM   27  F   UNK N   1      28.019  21.898   6.512  0.00  0.00    -0.166 F 
ENDBRANCH   4  24
TORSDOF 6
ENDMDL
MODEL 4
REMARK VINA RESULT:      -6.5     11.145     12.865
REMARK  6 active torsions:
REMARK  status: ('A' for Active; 'I' for Inactive)
REMARK    1  A    between atoms: C_4  and  C_14 
REMARK    2  A    between atoms: C_10  and  N_16 
REMARK    3  A    between atoms: C_15  and  N_16 
REMARK    4  A    between atoms: C_15  and  C_21 
REMARK    5  A    between atoms: N_16  and  C_17 
REMARK    6  A    between atoms: C_17  and  C_25 
ROOT
HETATM    1  N   UNK N   1      30.941  22.561  -2.593  0.00  0.00    -0.323 N 
HETATM    2  C   UNK N   1      31.868  21.619  -2.945  0.00  0.00     0.246 A 
HETATM    3  C   UNK N   1      31.812  21.009  -4.196  0.00  0.00     0.091 A 
HETATM    4  C   UNK N   1      30.811  21.362  -5.112  0.00  0.00     0.065 A 
HETATM    5  C   UNK N   1      29.879  22.363  -4.741  0.00  0.00     0.008 A 
HETATM    6  C   UNK N   1      28.898  22.823  -5.625  0.00  0.00     0.043 A 
HETATM    7  C   UNK N   1      27.999  23.838  -5.266  0.00  0.00     0.031 A 
HETATM    8  C   UNK N   1      28.076  24.380  -3.971  0.00  0.00     0.031 A 
HETATM    9  C   UNK N   1      29.049  23.933  -3.071  0.00  0.00     0.033 A 
HETATM   10  C   UNK N   1      29.961  22.945  -3.454  0.00  0.00     0.046 A 
HETATM   11  O   UNK N   1      32.751  21.313  -2.161  0.00  0.00    -0.268 OA
HETATM   12  H   UNK N   1      30.983  22.969  -1.699  0.00  0.00     0.169 HD
ENDROOT
BRANCH   7  13
HETATM   13  N   UNK N   1      27.100  24.385  -6.240  0.00  0.00    -0.364 N 
BRANCH  13  14
HETATM   14  C   UNK N   1      26.825  25.812  -6.216  0.00  0.00     0.240 C 
BRANCH  14  15
HETATM   15  C   UNK N   1      25.527  26.183  -5.513  0.00  0.00     0.403 C 
HETATM   16  F   UNK N   1      24.810  25.047  -5.189  0.00  0.00    -0.169 F 
HETATM   17  F   UNK N   1      24.764  27.011  -6.316  0.00  0.00    -0.169 F 
HETATM   18  F   UNK N   1      25.838  26.867  -4.352  0.00  0.00    -0.169 F 
ENDBRANCH  14  15
ENDBRANCH  13  14
BRANCH  13  19
HETATM   19  C   UNK N   1      26.834  23.641  -7.460  0.00  0.00     0.240 C 
BRANCH  19  20
HETATM   20  C   UNK N   1      25.805  22.521  -7.290  0.00  0.00     0.403 C 
HETATM   21  F   UNK N   1      25.290  22.486  -6.008  0.00  0.00    -0.169 F 
HETATM   22  F   UNK N   1      24.769  22.682  -8.187  0.00  0.00    -0.169 F 
HETATM   23  F   UNK N   1      26.432  21.316  -7.547  0.00  0.00    -0.169 F 
ENDBRANCH  19  20
ENDBRANCH  13  19
ENDBRANCH   7  13
BRANCH   4  24
HETATM   24  C   UNK N   1      30.806  20.643  -6.449  0.00  0.00     0.418 C 
HETATM   25  F   UNK N   1      31.824  19.705  -6.460  0.00  0.00    -0.166 F 
HETATM   26  F   UNK N   1      29.623  19.980  -6.722  0.00  0.00    -0.166 F 
HETATM   27  F   UNK N   1      31.033  21.557  -7.460  0.00  0.00    -0.166 F 
ENDBRANCH   4  24
TORSDOF 6
ENDMDL
MODEL 5
REMARK VINA RESULT:      -6.4     11.719     14.279
REMARK  6 active torsions:
REMARK  status: ('A' for Active; 'I' for Inactive)
REMARK    1  A    between atoms: C_4  and  C_14 
REMARK    2  A    between atoms: C_10  and  N_16 
REMARK    3  A    between atoms: C_15  and  N_16 
REMARK    4  A    between atoms: C_15  and  C_21 
REMARK    5  A    between atoms: N_16  and  C_17 
REMARK    6  A    between atoms: C_17  and  C_25 
ROOT
HETATM    1  N   UNK N   1      27.998  29.277  -3.449  0.00  0.00    -0.323 N 
HETATM    2  C   UNK N   1      26.712  29.662  -3.713  0.00  0.00     0.246 A 
HETATM    3  C   UNK N   1      25.853  28.814  -4.409  0.00  0.00     0.091 A 
HETATM    4  C   UNK N   1      26.294  27.554  -4.837  0.00  0.00     0.065 A 
HETATM    5  C   UNK N   1      27.619  27.161  -4.526  0.00  0.00     0.008 A 
HETATM    6  C   UNK N   1      28.111  25.893  -4.851  0.00  0.00     0.043 A 
HETATM    7  C   UNK N   1      29.411  25.496  -4.511  0.00  0.00     0.031 A 
HETATM    8  C   UNK N   1      30.246  26.415  -3.851  0.00  0.00     0.031 A 
HETATM    9  C   UNK N   1      29.775  27.689  -3.517  0.00  0.00     0.033 A 
HETATM   10  C   UNK N   1      28.464  28.059  -3.832  0.00  0.00     0.046 A 
HETATM   11  O   UNK N   1      26.313  30.751  -3.335  0.00  0.00    -0.268 OA
HETATM   12  H   UNK N   1      28.598  29.895  -2.972  0.00  0.00     0.169 HD
ENDROOT
BRANCH   7  13
HETATM   13  N   UNK N   1      29.835  24.144  -4.732  0.00  0.00    -0.364 N 
BRANCH  13  14
HETATM   14  C   UNK N   1      29.915  23.649  -6.096  0.00  0.00     0.240 C 
BRANCH  14  15
HETATM   15  C   UNK N   1      28.915  22.547  -6.418  0.00  0.00     0.403 C 
HETATM   16  F   UNK N   1      27.678  22.844  -5.876  0.00  0.00    -0.169 F 
HETATM   17  F   UNK N   1      29.364  21.333  -5.934  0.00  0.00    -0.169 F 
HETATM   18  F   UNK N   1      28.796  22.453  -7.792  0.00  0.00    -0.169 F 
ENDBRANCH  14  15
ENDBRANCH  13  14
BRANCH  13  19
HETATM   19  C   UNK N   1      30.576  23.451  -3.692  0.00  0.00     0.240 C 
BRANCH  19  20
HETATM   20  C   UNK N   1      29.691  22.684  -2.707  0.00  0.00     0.403 C 
HETATM   21  F   UNK N   1      28.390  23.150  -2.714  0.00  0.00    -0.169 F 
HETATM   22  F   UNK N   1      29.687  21.338  -3.013  0.00  0.00    -0.169 F 
HETATM   23  F   UNK N   1      30.212  22.849  -1.438  0.00  0.00    -0.169 F 
ENDBRANCH  19  20
ENDBRANCH  13  19
ENDBRANCH   7  13
BRANCH   4  24
HETATM   24  C   UNK N   1      25.305  26.694  -5.604  0.00  0.00     0.418 C 
HETATM   25  F   UNK N   1      25.714  26.603  -6.922  0.00  0.00    -0.166 F 
HETATM   26  F   UNK N   1      25.188  25.406  -5.112  0.00  0.00    -0.166 F 
HETATM   27  F   UNK N   1      24.058  27.288  -5.564  0.00  0.00    -0.166 F 
ENDBRANCH   4  24
TORSDOF 6
ENDMDL
MODEL 6
REMARK VINA RESULT:      -6.4      4.935      8.208
REMARK  6 active torsions:
REMARK  status: ('A' for Active; 'I' for Inactive)
REMARK    1  A    between atoms: C_4  and  C_14 
REMARK    2  A    between atoms: C_10  and  N_16 
REMARK    3  A    between atoms: C_15  and  N_16 
REMARK    4  A    between atoms: C_15  and  C_21 
REMARK    5  A    between atoms: N_16  and  C_17 
REMARK    6  A    between atoms: C_17  and  C_25 
ROOT
HETATM    1  N   UNK N   1      21.783  20.149   2.852  0.00  0.00    -0.323 N 
HETATM    2  C   UNK N   1      20.730  19.354   3.217  0.00  0.00     0.246 A 
HETATM    3  C   UNK N   1      20.951  18.178   3.931  0.00  0.00     0.091 A 
HETATM    4  C   UNK N   1      22.252  17.802   4.292  0.00  0.00     0.065 A 
HETATM    5  C   UNK N   1      23.326  18.654   3.933  0.00  0.00     0.008 A 
HETATM    6  C   UNK N   1      24.643  18.388   4.320  0.00  0.00     0.043 A 
HETATM    7  C   UNK N   1      25.697  19.252   3.992  0.00  0.00     0.031 A 
HETATM    8  C   UNK N   1      25.417  20.398   3.227  0.00  0.00     0.031 A 
HETATM    9  C   UNK N   1      24.107  20.682   2.829  0.00  0.00     0.033 A 
HETATM   10  C   UNK N   1      23.060  19.830   3.193  0.00  0.00     0.046 A 
HETATM   11  O   UNK N   1      19.593  19.677   2.920  0.00  0.00    -0.268 OA
HETATM   12  H   UNK N   1      21.612  20.966   2.332  0.00  0.00     0.169 HD
ENDROOT
BRANCH   7  13
HETATM   13  N   UNK N   1      27.010  19.025   4.523  0.00  0.00    -0.364 N 
BRANCH  13  14
HETATM   14  C   UNK N   1      27.660  17.751   4.263  0.00  0.00     0.240 C 
BRANCH  14  15
HETATM   15  C   UNK N   1      27.974  16.945   5.516  0.00  0.00     0.403 C 
HETATM   16  F   UNK N   1      27.996  15.593   5.229  0.00  0.00    -0.169 F 
HETATM   17  F   UNK N   1      27.039  17.205   6.501  0.00  0.00    -0.169 F 
HETATM   18  F   UNK N   1      29.218  17.328   5.982  0.00  0.00    -0.169 F 
ENDBRANCH  14  15
ENDBRANCH  13  14
BRANCH  13  19
HETATM   19  C   UNK N   1      27.827  20.161   4.912  0.00  0.00     0.240 C 
BRANCH  19  20
HETATM   20  C   UNK N   1      27.538  20.679   6.323  0.00  0.00     0.403 C 
HETATM   21  F   UNK N   1      27.974  21.979   6.493  0.00  0.00    -0.169 F 
HETATM   22  F   UNK N   1      26.185  20.620   6.586  0.00  0.00    -0.169 F 
HETATM   23  F   UNK N   1      28.201  19.869   7.225  0.00  0.00    -0.169 F 
ENDBRANCH  19  20
ENDBRANCH  13  19
ENDBRANCH   7  13
BRANCH   4  24
HETATM   24  C   UNK N   1      22.414  16.499   5.056  0.00  0.00     0.418 C 
HETATM   25  F   UNK N   1      23.185  15.630   4.306  0.00  0.00    -0.166 F 
HETATM   26  F   UNK N   1      23.026  16.647   6.288  0.00  0.00    -0.166 F 
HETATM   27  F   UNK N   1      21.170  15.932   5.256  0.00  0.00    -0.166 F 
ENDBRANCH   4  24
TORSDOF 6
ENDMDL
MODEL 7
REMARK VINA RESULT:      -6.3      9.021     11.186
REMARK  6 active torsions:
REMARK  status: ('A' for Active; 'I' for Inactive)
REMARK    1  A    between atoms: C_4  and  C_14 
REMARK    2  A    between atoms: C_10  and  N_16 
REMARK    3  A    between atoms: C_15  and  N_16 
REMARK    4  A    between atoms: C_15  and  C_21 
REMARK    5  A    between atoms: N_16  and  C_17 
REMARK    6  A    between atoms: C_17  and  C_25 
ROOT
HETATM    1  N   UNK N   1      19.602  15.919   1.750  0.00  0.00    -0.323 N 
HETATM    2  C   UNK N   1      19.983  16.931   0.912  0.00  0.00     0.246 A 
HETATM    3  C   UNK N   1      20.574  18.084   1.425  0.00  0.00     0.091 A 
HETATM    4  C   UNK N   1      20.793  18.215   2.803  0.00  0.00     0.065 A 
HETATM    5  C   UNK N   1      20.421  17.143   3.651  0.00  0.00     0.008 A 
HETATM    6  C   UNK N   1      20.674  17.165   5.026  0.00  0.00     0.043 A 
HETATM    7  C   UNK N   1      20.335  16.087   5.856  0.00  0.00     0.031 A 
HETATM    8  C   UNK N   1      19.697  14.971   5.286  0.00  0.00     0.031 A 
HETATM    9  C   UNK N   1      19.433  14.929   3.913  0.00  0.00     0.033 A 
HETATM   10  C   UNK N   1      19.809  15.996   3.092  0.00  0.00     0.046 A 
HETATM   11  O   UNK N   1      19.809  16.824  -0.290  0.00  0.00    -0.268 OA
HETATM   12  H   UNK N   1      19.170  15.119   1.374  0.00  0.00     0.169 HD
ENDROOT
BRANCH   7  13
HETATM   13  N   UNK N   1      20.736  16.081   7.233  0.00  0.00    -0.364 N 
BRANCH  13  14
HETATM   14  C   UNK N   1      21.914  15.321   7.617  0.00  0.00     0.240 C 
BRANCH  14  15
HETATM   15  C   UNK N   1      21.624  14.159   8.557  0.00  0.00     0.403 C 
HETATM   16  F   UNK N   1      20.462  13.511   8.182  0.00  0.00    -0.169 F 
HETATM   17  F   UNK N   1      21.516  14.608   9.859  0.00  0.00    -0.169 F 
HETATM   18  F   UNK N   1      22.679  13.268   8.488  0.00  0.00    -0.169 F 
ENDBRANCH  14  15
ENDBRANCH  13  14
BRANCH  13  19
HETATM   19  C   UNK N   1      20.265  17.135   8.116  0.00  0.00     0.240 C 
BRANCH  19  20
HETATM   20  C   UNK N   1      18.894  16.856   8.737  0.00  0.00     0.403 C 
HETATM   21  F   UNK N   1      18.898  15.700   9.493  0.00  0.00    -0.169 F 
HETATM   22  F   UNK N   1      18.506  17.913   9.534  0.00  0.00    -0.169 F 
HETATM   23  F   UNK N   1      17.977  16.712   7.713  0.00  0.00    -0.169 F 
ENDBRANCH  19  20
ENDBRANCH  13  19
ENDBRANCH   7  13
BRANCH   4  24
HETATM   24  C   UNK N   1      21.427  19.507   3.287  0.00  0.00     0.418 C 
HETATM   25  F   UNK N   1      20.548  20.147   4.144  0.00  0.00    -0.166 F 
HETATM   26  F   UNK N   1      22.617  19.324   3.969  0.00  0.00    -0.166 F 
HETATM   27  F   UNK N   1      21.670  20.330   2.204  0.00  0.00    -0.166 F 
ENDBRANCH   4  24
TORSDOF 6
ENDMDL
MODEL 8
REMARK VINA RESULT:      -6.2     10.983     13.596
REMARK  6 active torsions:
REMARK  status: ('A' for Active; 'I' for Inactive)
REMARK    1  A    between atoms: C_4  and  C_14 
REMARK    2  A    between atoms: C_10  and  N_16 
REMARK    3  A    between atoms: C_15  and  N_16 
REMARK    4  A    between atoms: C_15  and  C_21 
REMARK    5  A    between atoms: N_16  and  C_17 
REMARK    6  A    between atoms: C_17  and  C_25 
ROOT
HETATM    1  N   UNK N   1      36.018   9.698  18.876  0.00  0.00    -0.323 N 
HETATM    2  C   UNK N   1      35.603  10.631  19.787  0.00  0.00     0.246 A 
HETATM    3  C   UNK N   1      35.314  11.931  19.380  0.00  0.00     0.091 A 
HETATM    4  C   UNK N   1      35.436  12.296  18.032  0.00  0.00     0.065 A 
HETATM    5  C   UNK N   1      35.836  11.308  17.099  0.00  0.00     0.008 A 
HETATM    6  C   UNK N   1      35.910  11.571  15.727  0.00  0.00     0.043 A 
HETATM    7  C   UNK N   1      36.273  10.581  14.804  0.00  0.00     0.031 A 
HETATM    8  C   UNK N   1      36.599   9.300  15.282  0.00  0.00     0.031 A 
HETATM    9  C   UNK N   1      36.534   9.015  16.650  0.00  0.00     0.033 A 
HETATM   10  C   UNK N   1      36.136  10.003  17.556  0.00  0.00     0.046 A 
HETATM   11  O   UNK N   1      35.481  10.322  20.960  0.00  0.00    -0.268 OA
HETATM   12  H   UNK N   1      36.235   8.788  19.182  0.00  0.00     0.169 HD
ENDROOT
BRANCH   7  13
HETATM   13  N   UNK N   1      36.200  10.845  13.396  0.00  0.00    -0.364 N 
BRANCH  13  14
HETATM   14  C   UNK N   1      37.040  11.890  12.835  0.00  0.00     0.240 C 
BRANCH  14  15
HETATM   15  C   UNK N   1      36.395  13.269  12.828  0.00  0.00     0.403 C 
HETATM   16  F   UNK N   1      35.023  13.162  12.959  0.00  0.00    -0.169 F 
HETATM   17  F   UNK N   1      36.708  13.941  11.662  0.00  0.00    -0.169 F 
HETATM   18  F   UNK N   1      36.895  13.991  13.896  0.00  0.00    -0.169 F 
ENDBRANCH  14  15
ENDBRANCH  13  14
BRANCH  13  19
HETATM   19  C   UNK N   1      35.661   9.828  12.508  0.00  0.00     0.240 C 
BRANCH  19  20
HETATM   20  C   UNK N   1      34.196  10.053  12.128  0.00  0.00     0.403 C 
HETATM   21  F   UNK N   1      33.633   8.926  11.562  0.00  0.00    -0.169 F 
HETATM   22  F   UNK N   1      33.462  10.413  13.239  0.00  0.00    -0.169 F 
HETATM   23  F   UNK N   1      34.142  11.083  11.207  0.00  0.00    -0.169 F 
ENDBRANCH  19  20
ENDBRANCH  13  19
ENDBRANCH   7  13
BRANCH   4  24
HETATM   24  C   UNK N   1      35.119  13.736  17.669  0.00  0.00     0.418 C 
HETATM   25  F   UNK N   1      34.823  14.437  18.824  0.00  0.00    -0.166 F 
HETATM   26  F   UNK N   1      36.158  14.393  17.034  0.00  0.00    -0.166 F 
HETATM   27  F   UNK N   1      34.016  13.763  16.836  0.00  0.00    -0.166 F 
ENDBRANCH   4  24
TORSDOF 6
ENDMDL
MODEL 9
REMARK VINA RESULT:      -6.2      3.378      7.136
REMARK  6 active torsions:
REMARK  status: ('A' for Active; 'I' for Inactive)
REMARK    1  A    between atoms: C_4  and  C_14 
REMARK    2  A    between atoms: C_10  and  N_16 
REMARK    3  A    between atoms: C_15  and  N_16 
REMARK    4  A    between atoms: C_15  and  C_21 
REMARK    5  A    between atoms: N_16  and  C_17 
REMARK    6  A    between atoms: C_17  and  C_25 
ROOT
HETATM    1  N   UNK N   1      28.573  18.052   3.862  0.00  0.00    -0.323 N 
HETATM    2  C   UNK N   1      27.584  18.829   4.401  0.00  0.00     0.246 A 
HETATM    3  C   UNK N   1      27.522  19.034   5.778  0.00  0.00     0.091 A 
HETATM    4  C   UNK N   1      28.478  18.455   6.624  0.00  0.00     0.065 A 
HETATM    5  C   UNK N   1      29.512  17.679   6.044  0.00  0.00     0.008 A 
HETATM    6  C   UNK N   1      30.544  17.130   6.811  0.00  0.00     0.043 A 
HETATM    7  C   UNK N   1      31.584  16.392   6.229  0.00  0.00     0.031 A 
HETATM    8  C   UNK N   1      31.564  16.179   4.839  0.00  0.00     0.031 A 
HETATM    9  C   UNK N   1      30.540  16.718   4.053  0.00  0.00     0.033 A 
HETATM   10  C   UNK N   1      29.528  17.482   4.643  0.00  0.00     0.046 A 
HETATM   11  O   UNK N   1      26.755  19.349   3.674  0.00  0.00    -0.268 OA
HETATM   12  H   UNK N   1      28.591  17.902   2.890  0.00  0.00     0.169 HD
ENDROOT
BRANCH   7  13
HETATM   13  N   UNK N   1      32.699  15.965   7.023  0.00  0.00    -0.364 N 
BRANCH  13  14
HETATM   14  C   UNK N   1      32.970  16.648   8.276  0.00  0.00     0.240 C 
BRANCH  14  15
HETATM   15  C   UNK N   1      33.812  17.908   8.128  0.00  0.00     0.403 C 
HETATM   16  F   UNK N   1      34.854  17.903   9.036  0.00  0.00    -0.169 F 
HETATM   17  F   UNK N   1      33.031  19.034   8.312  0.00  0.00    -0.169 F 
HETATM   18  F   UNK N   1      34.329  17.940   6.847  0.00  0.00    -0.169 F 
ENDBRANCH  14  15
ENDBRANCH  13  14
BRANCH  13  19
HETATM   19  C   UNK N   1      33.253  14.637   6.816  0.00  0.00     0.240 C 
BRANCH  19  20
HETATM   20  C   UNK N   1      34.686  14.641   6.278  0.00  0.00     0.403 C 
HETATM   21  F   UNK N   1      35.040  13.415   5.749  0.00  0.00    -0.169 F 
HETATM   22  F   UNK N   1      34.830  15.610   5.306  0.00  0.00    -0.169 F 
HETATM   23  F   UNK N   1      35.540  14.933   7.326  0.00  0.00    -0.169 F 
ENDBRANCH  19  20
ENDBRANCH  13  19
ENDBRANCH   7  13
BRANCH   4  24
HETATM   24  C   UNK N   1      28.335  18.711   8.114  0.00  0.00     0.418 C 
HETATM   25  F   UNK N   1      27.850  17.568   8.724  0.00  0.00    -0.166 F 
HETATM   26  F   UNK N   1      29.523  19.048   8.739  0.00  0.00    -0.166 F 
HETATM   27  F   UNK N   1      27.433  19.739   8.315  0.00  0.00    -0.166 F 
ENDBRANCH   4  24
TORSDOF 6
ENDMDL
