REMARK  10 active torsions:
REMARK  status: ('A' for Active; 'I' for Inactive)
REMARK    1  A    between atoms: C_2  and  O_1 
REMARK    2  A    between atoms: C_6  and  O_7 
REMARK    3  A    between atoms: C_10  and  O_11 
REMARK    4  A    between atoms: N_14  and  C_16 
REMARK    5  A    between atoms: C_16  and  C_17 
REMARK    6  A    between atoms: C_17  and  C_18 
REMARK    7  A    between atoms: C_18  and  C_19 
REMARK    8  A    between atoms: C_19  and  C_20 
REMARK    9  A    between atoms: C_20  and  C_21 
REMARK   10  A    between atoms: C_21  and  C_22 
ROOT
HETATM    1  C   UNK N   1      -2.860   2.790   0.161  0.00  0.00     0.174 C 
HETATM    2  C   UNK N   1      -2.010   1.611  -0.312  0.00  0.00     0.146 C 
HETATM    3  C   UNK N   1      -0.613   1.439   0.355  0.00  0.00     0.207 C 
HETATM    4  O   UNK N   1      -0.518   0.079   0.631  0.00  0.00    -0.320 OA
HETATM    5  C   UNK N   1      -4.264   2.640  -0.480  0.00  0.00     0.182 C 
HETATM    6  C   UNK N   1      -4.916   1.302  -0.042  0.00  0.00     0.198 C 
HETATM    7  O   UNK N   1      -5.100   1.309   1.345  0.00  0.00    -0.389 OA
HETATM    8  C   UNK N   1      -4.020   0.109  -0.448  0.00  0.00     0.255 C 
HETATM    9  N   UNK N   1      -2.664   0.376  -0.005  0.00  0.00    -0.309 N 
HETATM   10  C   UNK N   1      -1.696  -0.522   0.427  0.00  0.00     0.220 C 
HETATM   11  N   UNK N   1      -1.872  -1.794   0.492  0.00  0.00    -0.356 N 
ATOM     12  HN  UNK N   1      -2.804  -2.181   0.344  1.00  0.00     0.163 HD
HETATM   13  H   UNK N   1      -5.160   1.421   2.307  0.00  0.00     0.210 HD
ENDROOT
BRANCH   5  14
HETATM   14  O   UNK N   1      -5.079   3.712  -0.107  0.00  0.00    -0.390 OA
HETATM   15  H   UNK N   1      -4.717   4.574   0.152  0.00  0.00     0.210 HD
ENDBRANCH   5  14
BRANCH   8  16
HETATM   16  O   UNK N   1      -4.516  -1.080   0.097  0.00  0.00    -0.374 OA
HETATM   17  H   UNK N   1      -5.402  -1.194   0.476  0.00  0.00     0.212 HD
ENDBRANCH   8  16
BRANCH   1  18
HETATM   18  O   UNK N   1      -2.267   3.989  -0.241  0.00  0.00    -0.391 OA
HETATM   19  H   UNK N   1      -1.340   4.049  -0.521  0.00  0.00     0.210 HD
ENDBRANCH   1  18
BRANCH  11  20
HETATM   20  C   UNK N   1      -0.772  -2.680   0.771  0.00  0.00     0.123 C 
BRANCH  20  21
HETATM   21  C   UNK N   1      -0.125  -3.074  -0.551  0.00  0.00     0.020 C 
BRANCH  21  22
HETATM   22  C   UNK N   1       1.389  -3.047  -0.451  0.00  0.00     0.002 C 
BRANCH  22  23
HETATM   23  C   UNK N   1       1.917  -1.624  -0.504  0.00  0.00     0.000 C 
BRANCH  23  24
HETATM   24  C   UNK N   1       2.551  -1.274   0.830  0.00  0.00     0.000 C 
BRANCH  24  25
HETATM   25  C   UNK N   1       3.702  -0.305   0.631  0.00  0.00    -0.000 C 
BRANCH  25  26
HETATM   26  C   UNK N   1       4.894  -1.035   0.039  0.00  0.00    -0.005 C 
HETATM   27  C   UNK N   1       6.031  -0.061  -0.184  0.00  0.00     0.005 C 
ENDBRANCH  25  26
ENDBRANCH  24  25
ENDBRANCH  23  24
ENDBRANCH  22  23
ENDBRANCH  21  22
ENDBRANCH  20  21
ENDBRANCH  11  20
TORSDOF 10
