MODEL 1
REMARK VINA RESULT:      -6.5      0.000      0.000
REMARK  10 active torsions:
REMARK  status: ('A' for Active; 'I' for Inactive)
REMARK    1  A    between atoms: C_2  and  O_1 
REMARK    2  A    between atoms: C_6  and  O_7 
REMARK    3  A    between atoms: C_10  and  O_11 
REMARK    4  A    between atoms: N_14  and  C_16 
REMARK    5  A    between atoms: C_16  and  C_17 
REMARK    6  A    between atoms: C_17  and  C_18 
REMARK    7  A    between atoms: C_18  and  C_19 
REMARK    8  A    between atoms: C_19  and  C_20 
REMARK    9  A    between atoms: C_20  and  C_21 
REMARK   10  A    between atoms: C_21  and  C_22 
ROOT
HETATM    1  C   UNK N   1      19.977  17.647   3.313  0.00  0.00     0.174 C 
HETATM    2  C   UNK N   1      21.177  17.999   4.192  0.00  0.00     0.146 C 
HETATM    3  C   UNK N   1      22.157  16.839   4.540  0.00  0.00     0.207 C 
HETATM    4  O   UNK N   1      23.425  17.382   4.359  0.00  0.00    -0.320 OA
HETATM    5  C   UNK N   1      19.270  18.975   2.935  0.00  0.00     0.182 C 
HETATM    6  C   UNK N   1      20.245  19.902   2.162  0.00  0.00     0.198 C 
HETATM    7  O   UNK N   1      20.620  19.285   0.964  0.00  0.00    -0.389 OA
HETATM    8  C   UNK N   1      21.499  20.196   3.017  0.00  0.00     0.255 C 
HETATM    9  N   UNK N   1      22.021  18.940   3.522  0.00  0.00    -0.309 N 
HETATM   10  C   UNK N   1      23.340  18.582   3.773  0.00  0.00     0.220 C 
HETATM   11  N   UNK N   1      24.345  19.363   3.590  0.00  0.00    -0.356 N 
ATOM     12  HN  UNK N   1      24.208  20.256   3.117  1.00  0.00     0.163 HD
HETATM   13  H   UNK N   1      20.820  18.753   0.177  0.00  0.00     0.210 HD
ENDROOT
BRANCH   5  14
HETATM   14  O   UNK N   1      18.142  18.713   2.154  0.00  0.00    -0.390 OA
HETATM   15  H   UNK N   1      17.415  19.349   2.062  0.00  0.00     0.210 HD
ENDBRANCH   5  14
BRANCH   8  16
HETATM   16  O   UNK N   1      22.454  20.885   2.261  0.00  0.00    -0.374 OA
HETATM   17  H   UNK N   1      22.972  20.503   1.535  0.00  0.00     0.212 HD
ENDBRANCH   8  16
BRANCH   1  18
HETATM   18  O   UNK N   1      19.104  16.815   4.018  0.00  0.00    -0.391 OA
HETATM   19  H   UNK N   1      19.409  16.171   4.677  0.00  0.00     0.210 HD
ENDBRANCH   1  18
BRANCH  11  20
HETATM   20  C   UNK N   1      25.661  18.994   4.042  0.00  0.00     0.123 C 
BRANCH  20  21
HETATM   21  C   UNK N   1      26.606  20.157   3.769  0.00  0.00     0.020 C 
BRANCH  21  22
HETATM   22  C   UNK N   1      27.808  20.117   4.696  0.00  0.00     0.002 C 
BRANCH  22  23
HETATM   23  C   UNK N   1      27.612  21.039   5.887  0.00  0.00     0.000 C 
BRANCH  23  24
HETATM   24  C   UNK N   1      27.309  20.208   7.120  0.00  0.00     0.000 C 
BRANCH  24  25
HETATM   25  C   UNK N   1      28.227  19.001   7.183  0.00  0.00    -0.000 C 
BRANCH  25  26
HETATM   26  C   UNK N   1      28.371  18.537   8.621  0.00  0.00    -0.005 C 
HETATM   27  C   UNK N   1      29.794  18.755   9.088  0.00  0.00     0.005 C 
ENDBRANCH  25  26
ENDBRANCH  24  25
ENDBRANCH  23  24
ENDBRANCH  22  23
ENDBRANCH  21  22
ENDBRANCH  20  21
ENDBRANCH  11  20
TORSDOF 10
ENDMDL
MODEL 2
REMARK VINA RESULT:      -6.3     12.342     15.434
REMARK  10 active torsions:
REMARK  status: ('A' for Active; 'I' for Inactive)
REMARK    1  A    between atoms: C_2  and  O_1 
REMARK    2  A    between atoms: C_6  and  O_7 
REMARK    3  A    between atoms: C_10  and  O_11 
REMARK    4  A    between atoms: N_14  and  C_16 
REMARK    5  A    between atoms: C_16  and  C_17 
REMARK    6  A    between atoms: C_17  and  C_18 
REMARK    7  A    between atoms: C_18  and  C_19 
REMARK    8  A    between atoms: C_19  and  C_20 
REMARK    9  A    between atoms: C_20  and  C_21 
REMARK   10  A    between atoms: C_21  and  C_22 
ROOT
HETATM    1  C   UNK N   1      34.923  16.234  10.615  0.00  0.00     0.174 C 
HETATM    2  C   UNK N   1      35.611  14.899  10.902  0.00  0.00     0.146 C 
HETATM    3  C   UNK N   1      36.150  14.684  12.348  0.00  0.00     0.207 C 
HETATM    4  O   UNK N   1      35.761  13.391  12.681  0.00  0.00    -0.320 OA
HETATM    5  C   UNK N   1      34.296  16.140   9.200  0.00  0.00     0.182 C 
HETATM    6  C   UNK N   1      33.263  14.984   9.144  0.00  0.00     0.198 C 
HETATM    7  O   UNK N   1      32.218  15.253  10.036  0.00  0.00    -0.389 OA
HETATM    8  C   UNK N   1      33.937  13.642   9.513  0.00  0.00     0.255 C 
HETATM    9  N   UNK N   1      34.683  13.822  10.744  0.00  0.00    -0.309 N 
HETATM   10  C   UNK N   1      34.918  12.905  11.762  0.00  0.00     0.220 C 
HETATM   11  N   UNK N   1      34.489  11.693  11.752  0.00  0.00    -0.356 N 
ATOM     12  HN  UNK N   1      33.832  11.398  11.031  1.00  0.00     0.163 HD
HETATM   13  H   UNK N   1      31.565  15.537  10.695  0.00  0.00     0.210 HD
ENDROOT
BRANCH   5  14
HETATM   14  O   UNK N   1      33.678  17.348   8.868  0.00  0.00    -0.390 OA
HETATM   15  H   UNK N   1      32.814  17.605   9.226  0.00  0.00     0.210 HD
ENDBRANCH   5  14
BRANCH   8  16
HETATM   16  O   UNK N   1      32.977  12.632   9.634  0.00  0.00    -0.374 OA
HETATM   17  H   UNK N   1      32.861  11.893   9.015  0.00  0.00     0.212 HD
ENDBRANCH   8  16
BRANCH   1  18
HETATM   18  O   UNK N   1      35.862  17.267  10.664  0.00  0.00    -0.391 OA
HETATM   19  H   UNK N   1      36.807  17.128  10.493  0.00  0.00     0.210 HD
ENDBRANCH   1  18
BRANCH  11  20
HETATM   20  C   UNK N   1      34.923  10.747  12.747  0.00  0.00     0.123 C 
BRANCH  20  21
HETATM   21  C   UNK N   1      33.782  10.526  13.731  0.00  0.00     0.020 C 
BRANCH  21  22
HETATM   22  C   UNK N   1      34.078  11.177  15.070  0.00  0.00     0.002 C 
BRANCH  22  23
HETATM   23  C   UNK N   1      35.481  10.842  15.544  0.00  0.00     0.000 C 
BRANCH  23  24
HETATM   24  C   UNK N   1      36.052  12.029  16.298  0.00  0.00     0.000 C 
BRANCH  24  25
HETATM   25  C   UNK N   1      35.012  13.127  16.424  0.00  0.00    -0.000 C 
BRANCH  25  26
HETATM   26  C   UNK N   1      35.047  13.713  17.823  0.00  0.00    -0.005 C 
HETATM   27  C   UNK N   1      35.258  12.608  18.836  0.00  0.00     0.005 C 
ENDBRANCH  25  26
ENDBRANCH  24  25
ENDBRANCH  23  24
ENDBRANCH  22  23
ENDBRANCH  21  22
ENDBRANCH  20  21
ENDBRANCH  11  20
TORSDOF 10
ENDMDL
MODEL 3
REMARK VINA RESULT:      -6.1      9.985     14.186
REMARK  10 active torsions:
REMARK  status: ('A' for Active; 'I' for Inactive)
REMARK    1  A    between atoms: C_2  and  O_1 
REMARK    2  A    between atoms: C_6  and  O_7 
REMARK    3  A    between atoms: C_10  and  O_11 
REMARK    4  A    between atoms: N_14  and  C_16 
REMARK    5  A    between atoms: C_16  and  C_17 
REMARK    6  A    between atoms: C_17  and  C_18 
REMARK    7  A    between atoms: C_18  and  C_19 
REMARK    8  A    between atoms: C_19  and  C_20 
REMARK    9  A    between atoms: C_20  and  C_21 
REMARK   10  A    between atoms: C_21  and  C_22 
ROOT
HETATM    1  C   UNK N   1      37.072  13.418  11.059  0.00  0.00     0.174 C 
HETATM    2  C   UNK N   1      36.597  14.299   9.904  0.00  0.00     0.146 C 
HETATM    3  C   UNK N   1      36.796  13.738   8.464  0.00  0.00     0.207 C 
HETATM    4  O   UNK N   1      35.595  14.000   7.813  0.00  0.00    -0.320 OA
HETATM    5  C   UNK N   1      36.590  14.078  12.377  0.00  0.00     0.182 C 
HETATM    6  C   UNK N   1      35.043  14.187  12.391  0.00  0.00     0.198 C 
HETATM    7  O   UNK N   1      34.488  12.903  12.351  0.00  0.00    -0.389 OA
HETATM    8  C   UNK N   1      34.551  15.011  11.178  0.00  0.00     0.255 C 
HETATM    9  N   UNK N   1      35.181  14.490   9.978  0.00  0.00    -0.309 N 
HETATM   10  C   UNK N   1      34.675  14.426   8.686  0.00  0.00     0.220 C 
HETATM   11  N   UNK N   1      33.510  14.852   8.348  0.00  0.00    -0.356 N 
ATOM     12  HN  UNK N   1      32.851  15.142   9.070  1.00  0.00     0.163 HD
HETATM   13  H   UNK N   1      34.221  11.971  12.303  0.00  0.00     0.210 HD
ENDROOT
BRANCH   5  14
HETATM   14  O   UNK N   1      37.025  13.330  13.475  0.00  0.00    -0.390 OA
HETATM   15  H   UNK N   1      36.807  12.391  13.583  0.00  0.00     0.210 HD
ENDBRANCH   5  14
BRANCH   8  16
HETATM   16  O   UNK N   1      33.156  14.963  11.090  0.00  0.00    -0.374 OA
HETATM   17  H   UNK N   1      32.637  15.208  10.308  0.00  0.00     0.212 HD
ENDBRANCH   8  16
BRANCH   1  18
HETATM   18  O   UNK N   1      38.466  13.329  11.041  0.00  0.00    -0.391 OA
HETATM   19  H   UNK N   1      38.997  13.552  10.260  0.00  0.00     0.210 HD
ENDBRANCH   1  18
BRANCH  11  20
HETATM   20  C   UNK N   1      33.121  14.924   6.963  0.00  0.00     0.123 C 
BRANCH  20  21
HETATM   21  C   UNK N   1      32.401  16.247   6.734  0.00  0.00     0.020 C 
BRANCH  21  22
HETATM   22  C   UNK N   1      33.261  17.421   7.165  0.00  0.00     0.002 C 
BRANCH  22  23
HETATM   23  C   UNK N   1      32.561  18.254   8.224  0.00  0.00     0.000 C 
BRANCH  23  24
HETATM   24  C   UNK N   1      31.199  17.652   8.517  0.00  0.00     0.000 C 
BRANCH  24  25
HETATM   25  C   UNK N   1      30.288  18.686   9.154  0.00  0.00    -0.000 C 
BRANCH  25  26
HETATM   26  C   UNK N   1      29.001  18.026   9.614  0.00  0.00    -0.005 C 
HETATM   27  C   UNK N   1      28.207  17.561   8.412  0.00  0.00     0.005 C 
ENDBRANCH  25  26
ENDBRANCH  24  25
ENDBRANCH  23  24
ENDBRANCH  22  23
ENDBRANCH  21  22
ENDBRANCH  20  21
ENDBRANCH  11  20
TORSDOF 10
ENDMDL
MODEL 4
REMARK VINA RESULT:      -5.9      8.585     11.710
REMARK  10 active torsions:
REMARK  status: ('A' for Active; 'I' for Inactive)
REMARK    1  A    between atoms: C_2  and  O_1 
REMARK    2  A    between atoms: C_6  and  O_7 
REMARK    3  A    between atoms: C_10  and  O_11 
REMARK    4  A    between atoms: N_14  and  C_16 
REMARK    5  A    between atoms: C_16  and  C_17 
REMARK    6  A    between atoms: C_17  and  C_18 
REMARK    7  A    between atoms: C_18  and  C_19 
REMARK    8  A    between atoms: C_19  and  C_20 
REMARK    9  A    between atoms: C_20  and  C_21 
REMARK   10  A    between atoms: C_21  and  C_22 
ROOT
HETATM    1  C   UNK N   1      34.555  16.173   9.951  0.00  0.00     0.174 C 
HETATM    2  C   UNK N   1      33.818  17.040   8.930  0.00  0.00     0.146 C 
HETATM    3  C   UNK N   1      34.675  18.063   8.127  0.00  0.00     0.207 C 
HETATM    4  O   UNK N   1      34.238  17.936   6.813  0.00  0.00    -0.320 OA
HETATM    5  C   UNK N   1      33.554  15.107  10.467  0.00  0.00     0.182 C 
HETATM    6  C   UNK N   1      33.045  14.232   9.292  0.00  0.00     0.198 C 
HETATM    7  O   UNK N   1      34.123  13.540   8.730  0.00  0.00    -0.389 OA
HETATM    8  C   UNK N   1      32.369  15.115   8.217  0.00  0.00     0.255 C 
HETATM    9  N   UNK N   1      33.254  16.220   7.901  0.00  0.00    -0.309 N 
HETATM   10  C   UNK N   1      33.429  16.877   6.690  0.00  0.00     0.220 C 
HETATM   11  N   UNK N   1      32.788  16.587   5.614  0.00  0.00    -0.356 N 
ATOM     12  HN  UNK N   1      32.203  15.752   5.587  1.00  0.00     0.163 HD
HETATM   13  H   UNK N   1      34.945  13.131   8.414  0.00  0.00     0.210 HD
ENDROOT
BRANCH   5  14
HETATM   14  O   UNK N   1      34.165  14.302  11.432  0.00  0.00    -0.390 OA
HETATM   15  H   UNK N   1      34.973  13.796  11.250  0.00  0.00     0.210 HD
ENDBRANCH   5  14
BRANCH   8  16
HETATM   16  O   UNK N   1      32.067  14.355   7.082  0.00  0.00    -0.374 OA
HETATM   17  H   UNK N   1      32.207  13.398   6.997  0.00  0.00     0.212 HD
ENDBRANCH   8  16
BRANCH   1  18
HETATM   18  O   UNK N   1      35.005  16.969  11.006  0.00  0.00    -0.391 OA
HETATM   19  H   UNK N   1      35.841  17.461  10.974  0.00  0.00     0.210 HD
ENDBRANCH   1  18
BRANCH  11  20
HETATM   20  C   UNK N   1      32.883  17.425   4.447  0.00  0.00     0.123 C 
BRANCH  20  21
HETATM   21  C   UNK N   1      31.612  17.249   3.625  0.00  0.00     0.020 C 
BRANCH  21  22
HETATM   22  C   UNK N   1      30.461  16.768   4.489  0.00  0.00     0.002 C 
BRANCH  22  23
HETATM   23  C   UNK N   1      29.491  17.898   4.789  0.00  0.00     0.000 C 
BRANCH  23  24
HETATM   24  C   UNK N   1      28.716  17.572   6.052  0.00  0.00     0.000 C 
BRANCH  24  25
HETATM   25  C   UNK N   1      29.646  17.541   7.251  0.00  0.00    -0.000 C 
BRANCH  25  26
HETATM   26  C   UNK N   1      29.124  18.468   8.333  0.00  0.00    -0.005 C 
HETATM   27  C   UNK N   1      28.230  17.696   9.280  0.00  0.00     0.005 C 
ENDBRANCH  25  26
ENDBRANCH  24  25
ENDBRANCH  23  24
ENDBRANCH  22  23
ENDBRANCH  21  22
ENDBRANCH  20  21
ENDBRANCH  11  20
TORSDOF 10
ENDMDL
MODEL 5
REMARK VINA RESULT:      -5.8      9.973     12.918
REMARK  10 active torsions:
REMARK  status: ('A' for Active; 'I' for Inactive)
REMARK    1  A    between atoms: C_2  and  O_1 
REMARK    2  A    between atoms: C_6  and  O_7 
REMARK    3  A    between atoms: C_10  and  O_11 
REMARK    4  A    between atoms: N_14  and  C_16 
REMARK    5  A    between atoms: C_16  and  C_17 
REMARK    6  A    between atoms: C_17  and  C_18 
REMARK    7  A    between atoms: C_18  and  C_19 
REMARK    8  A    between atoms: C_19  and  C_20 
REMARK    9  A    between atoms: C_20  and  C_21 
REMARK   10  A    between atoms: C_21  and  C_22 
ROOT
HETATM    1  C   UNK N   1      34.619  12.756  10.170  0.00  0.00     0.174 C 
HETATM    2  C   UNK N   1      35.179  13.407   8.905  0.00  0.00     0.146 C 
HETATM    3  C   UNK N   1      34.764  12.772   7.545  0.00  0.00     0.207 C 
HETATM    4  O   UNK N   1      34.445  13.855   6.732  0.00  0.00    -0.320 OA
HETATM    5  C   UNK N   1      34.992  13.667  11.368  0.00  0.00     0.182 C 
HETATM    6  C   UNK N   1      34.381  15.081  11.180  0.00  0.00     0.198 C 
HETATM    7  O   UNK N   1      32.986  14.984  11.161  0.00  0.00    -0.389 OA
HETATM    8  C   UNK N   1      34.883  15.712   9.861  0.00  0.00     0.255 C 
HETATM    9  N   UNK N   1      34.702  14.751   8.789  0.00  0.00    -0.309 N 
HETATM   10  C   UNK N   1      34.407  14.983   7.451  0.00  0.00     0.220 C 
HETATM   11  N   UNK N   1      34.251  16.152   6.941  0.00  0.00    -0.356 N 
ATOM     12  HN  UNK N   1      34.212  16.967   7.553  1.00  0.00     0.163 HD
HETATM   13  H   UNK N   1      32.035  14.791  11.145  0.00  0.00     0.210 HD
ENDROOT
BRANCH   5  14
HETATM   14  O   UNK N   1      34.531  13.104  12.561  0.00  0.00    -0.390 OA
HETATM   15  H   UNK N   1      34.072  13.625  13.238  0.00  0.00     0.210 HD
ENDBRANCH   5  14
BRANCH   8  16
HETATM   16  O   UNK N   1      34.202  16.907   9.603  0.00  0.00    -0.374 OA
HETATM   17  H   UNK N   1      34.607  17.715   9.249  0.00  0.00     0.212 HD
ENDBRANCH   8  16
BRANCH   1  18
HETATM   18  O   UNK N   1      35.177  11.486  10.332  0.00  0.00    -0.391 OA
HETATM   19  H   UNK N   1      35.174  10.817   9.629  0.00  0.00     0.210 HD
ENDBRANCH   1  18
BRANCH  11  20
HETATM   20  C   UNK N   1      34.130  16.329   5.517  0.00  0.00     0.123 C 
BRANCH  20  21
HETATM   21  C   UNK N   1      33.363  17.619   5.256  0.00  0.00     0.020 C 
BRANCH  21  22
HETATM   22  C   UNK N   1      32.210  17.387   4.296  0.00  0.00     0.002 C 
BRANCH  22  23
HETATM   23  C   UNK N   1      31.129  16.532   4.933  0.00  0.00     0.000 C 
BRANCH  23  24
HETATM   24  C   UNK N   1      30.093  17.432   5.580  0.00  0.00     0.000 C 
BRANCH  24  25
HETATM   25  C   UNK N   1      29.627  16.842   6.898  0.00  0.00    -0.000 C 
BRANCH  25  26
HETATM   26  C   UNK N   1      30.806  16.693   7.842  0.00  0.00    -0.005 C 
HETATM   27  C   UNK N   1      31.080  18.013   8.530  0.00  0.00     0.005 C 
ENDBRANCH  25  26
ENDBRANCH  24  25
ENDBRANCH  23  24
ENDBRANCH  22  23
ENDBRANCH  21  22
ENDBRANCH  20  21
ENDBRANCH  11  20
TORSDOF 10
ENDMDL
MODEL 6
REMARK VINA RESULT:      -5.8     13.598     16.632
REMARK  10 active torsions:
REMARK  status: ('A' for Active; 'I' for Inactive)
REMARK    1  A    between atoms: C_2  and  O_1 
REMARK    2  A    between atoms: C_6  and  O_7 
REMARK    3  A    between atoms: C_10  and  O_11 
REMARK    4  A    between atoms: N_14  and  C_16 
REMARK    5  A    between atoms: C_16  and  C_17 
REMARK    6  A    between atoms: C_17  and  C_18 
REMARK    7  A    between atoms: C_18  and  C_19 
REMARK    8  A    between atoms: C_19  and  C_20 
REMARK    9  A    between atoms: C_20  and  C_21 
REMARK   10  A    between atoms: C_21  and  C_22 
ROOT
HETATM    1  C   UNK N   1      34.916  14.398   9.625  0.00  0.00     0.174 C 
HETATM    2  C   UNK N   1      35.036  13.198  10.564  0.00  0.00     0.146 C 
HETATM    3  C   UNK N   1      35.666  11.902   9.972  0.00  0.00     0.207 C 
HETATM    4  O   UNK N   1      36.552  11.461  10.949  0.00  0.00    -0.320 OA
HETATM    5  C   UNK N   1      34.463  15.613  10.476  0.00  0.00     0.182 C 
HETATM    6  C   UNK N   1      35.502  15.908  11.589  0.00  0.00     0.198 C 
HETATM    7  O   UNK N   1      36.724  16.255  11.002  0.00  0.00    -0.389 OA
HETATM    8  C   UNK N   1      35.687  14.669  12.495  0.00  0.00     0.255 C 
HETATM    9  N   UNK N   1      35.912  13.508  11.653  0.00  0.00    -0.309 N 
HETATM   10  C   UNK N   1      36.691  12.386  11.905  0.00  0.00     0.220 C 
HETATM   11  N   UNK N   1      37.358  12.202  12.989  0.00  0.00    -0.356 N 
ATOM     12  HN  UNK N   1      37.438  12.961  13.666  1.00  0.00     0.163 HD
HETATM   13  H   UNK N   1      37.518  16.461  10.484  0.00  0.00     0.210 HD
ENDROOT
BRANCH   5  14
HETATM   14  O   UNK N   1      34.304  16.737   9.661  0.00  0.00    -0.390 OA
HETATM   15  H   UNK N   1      33.449  16.982   9.275  0.00  0.00     0.210 HD
ENDBRANCH   5  14
BRANCH   8  16
HETATM   16  O   UNK N   1      36.745  14.871  13.387  0.00  0.00    -0.374 OA
HETATM   17  H   UNK N   1      36.856  15.649  13.956  0.00  0.00     0.212 HD
ENDBRANCH   8  16
BRANCH   1  18
HETATM   18  O   UNK N   1      33.976  14.123   8.629  0.00  0.00    -0.391 OA
HETATM   19  H   UNK N   1      33.640  14.802   8.022  0.00  0.00     0.210 HD
ENDBRANCH   1  18
BRANCH  11  20
HETATM   20  C   UNK N   1      37.994  10.939  13.261  0.00  0.00     0.123 C 
BRANCH  20  21
HETATM   21  C   UNK N   1      37.226  10.247  14.381  0.00  0.00     0.020 C 
BRANCH  21  22
HETATM   22  C   UNK N   1      36.445  11.247  15.212  0.00  0.00     0.002 C 
BRANCH  22  23
HETATM   23  C   UNK N   1      35.531  10.545  16.201  0.00  0.00     0.000 C 
BRANCH  23  24
HETATM   24  C   UNK N   1      35.265  11.464  17.379  0.00  0.00     0.000 C 
BRANCH  24  25
HETATM   25  C   UNK N   1      35.396  12.916  16.958  0.00  0.00    -0.000 C 
BRANCH  25  26
HETATM   26  C   UNK N   1      35.179  13.822  18.156  0.00  0.00    -0.005 C 
HETATM   27  C   UNK N   1      35.169  12.998  19.426  0.00  0.00     0.005 C 
ENDBRANCH  25  26
ENDBRANCH  24  25
ENDBRANCH  23  24
ENDBRANCH  22  23
ENDBRANCH  21  22
ENDBRANCH  20  21
ENDBRANCH  11  20
TORSDOF 10
ENDMDL
MODEL 7
REMARK VINA RESULT:      -5.6     11.441     13.223
REMARK  10 active torsions:
REMARK  status: ('A' for Active; 'I' for Inactive)
REMARK    1  A    between atoms: C_2  and  O_1 
REMARK    2  A    between atoms: C_6  and  O_7 
REMARK    3  A    between atoms: C_10  and  O_11 
REMARK    4  A    between atoms: N_14  and  C_16 
REMARK    5  A    between atoms: C_16  and  C_17 
REMARK    6  A    between atoms: C_17  and  C_18 
REMARK    7  A    between atoms: C_18  and  C_19 
REMARK    8  A    between atoms: C_19  and  C_20 
REMARK    9  A    between atoms: C_20  and  C_21 
REMARK   10  A    between atoms: C_21  and  C_22 
ROOT
HETATM    1  C   UNK N   1      31.055  21.077  -4.030  0.00  0.00     0.174 C 
HETATM    2  C   UNK N   1      30.578  21.944  -5.195  0.00  0.00     0.146 C 
HETATM    3  C   UNK N   1      29.428  21.369  -6.074  0.00  0.00     0.207 C 
HETATM    4  O   UNK N   1      28.555  22.436  -6.256  0.00  0.00    -0.320 OA
HETATM    5  C   UNK N   1      32.041  21.928  -3.188  0.00  0.00     0.182 C 
HETATM    6  C   UNK N   1      31.333  23.200  -2.652  0.00  0.00     0.198 C 
HETATM    7  O   UNK N   1      30.289  22.824  -1.800  0.00  0.00    -0.389 OA
HETATM    8  C   UNK N   1      30.778  24.041  -3.825  0.00  0.00     0.255 C 
HETATM    9  N   UNK N   1      30.023  23.168  -4.705  0.00  0.00    -0.309 N 
HETATM   10  C   UNK N   1      28.898  23.460  -5.466  0.00  0.00     0.220 C 
HETATM   11  N   UNK N   1      28.338  24.616  -5.509  0.00  0.00    -0.356 N 
ATOM     12  HN  UNK N   1      28.639  25.345  -4.862  1.00  0.00     0.163 HD
HETATM   13  H   UNK N   1      29.587  22.444  -1.247  0.00  0.00     0.210 HD
ENDROOT
BRANCH   5  14
HETATM   14  O   UNK N   1      32.537  21.173  -2.122  0.00  0.00    -0.390 OA
HETATM   15  H   UNK N   1      33.446  21.270  -1.795  0.00  0.00     0.210 HD
ENDBRANCH   5  14
BRANCH   8  16
HETATM   16  O   UNK N   1      29.991  25.091  -3.341  0.00  0.00    -0.374 OA
HETATM   17  H   UNK N   1      29.389  25.631  -3.877  0.00  0.00     0.212 HD
ENDBRANCH   8  16
BRANCH   1  18
HETATM   18  O   UNK N   1      31.694  19.937  -4.523  0.00  0.00    -0.391 OA
HETATM   19  H   UNK N   1      32.660  19.845  -4.548  0.00  0.00     0.210 HD
ENDBRANCH   1  18
BRANCH  11  20
HETATM   20  C   UNK N   1      27.292  24.898  -6.457  0.00  0.00     0.123 C 
BRANCH  20  21
HETATM   21  C   UNK N   1      25.970  24.977  -5.704  0.00  0.00     0.020 C 
BRANCH  21  22
HETATM   22  C   UNK N   1      25.228  26.259  -6.031  0.00  0.00     0.002 C 
BRANCH  22  23
HETATM   23  C   UNK N   1      26.034  27.479  -5.621  0.00  0.00     0.000 C 
BRANCH  23  24
HETATM   24  C   UNK N   1      25.473  28.039  -4.326  0.00  0.00     0.000 C 
BRANCH  24  25
HETATM   25  C   UNK N   1      26.599  28.431  -3.387  0.00  0.00    -0.000 C 
BRANCH  25  26
HETATM   26  C   UNK N   1      27.926  27.944  -3.942  0.00  0.00    -0.005 C 
HETATM   27  C   UNK N   1      29.064  28.664  -3.251  0.00  0.00     0.005 C 
ENDBRANCH  25  26
ENDBRANCH  24  25
ENDBRANCH  23  24
ENDBRANCH  22  23
ENDBRANCH  21  22
ENDBRANCH  20  21
ENDBRANCH  11  20
TORSDOF 10
ENDMDL
MODEL 8
REMARK VINA RESULT:      -5.6     13.118     16.083
REMARK  10 active torsions:
REMARK  status: ('A' for Active; 'I' for Inactive)
REMARK    1  A    between atoms: C_2  and  O_1 
REMARK    2  A    between atoms: C_6  and  O_7 
REMARK    3  A    between atoms: C_10  and  O_11 
REMARK    4  A    between atoms: N_14  and  C_16 
REMARK    5  A    between atoms: C_16  and  C_17 
REMARK    6  A    between atoms: C_17  and  C_18 
REMARK    7  A    between atoms: C_18  and  C_19 
REMARK    8  A    between atoms: C_19  and  C_20 
REMARK    9  A    between atoms: C_20  and  C_21 
REMARK   10  A    between atoms: C_21  and  C_22 
ROOT
HETATM    1  C   UNK N   1      35.955  15.333  10.916  0.00  0.00     0.174 C 
HETATM    2  C   UNK N   1      36.358  13.909  10.537  0.00  0.00     0.146 C 
HETATM    3  C   UNK N   1      37.229  13.127  11.565  0.00  0.00     0.207 C 
HETATM    4  O   UNK N   1      36.658  11.860  11.620  0.00  0.00    -0.320 OA
HETATM    5  C   UNK N   1      34.938  15.829   9.856  0.00  0.00     0.182 C 
HETATM    6  C   UNK N   1      33.690  14.908   9.835  0.00  0.00     0.198 C 
HETATM    7  O   UNK N   1      33.047  14.971  11.076  0.00  0.00    -0.389 OA
HETATM    8  C   UNK N   1      34.102  13.449   9.530  0.00  0.00     0.255 C 
HETATM    9  N   UNK N   1      35.196  13.083  10.410  0.00  0.00    -0.309 N 
HETATM   10  C   UNK N   1      35.493  11.843  10.961  0.00  0.00     0.220 C 
HETATM   11  N   UNK N   1      34.805  10.778  10.750  0.00  0.00    -0.356 N 
ATOM     12  HN  UNK N   1      33.914  10.844  10.257  1.00  0.00     0.163 HD
HETATM   13  H   UNK N   1      32.702  15.081  11.976  0.00  0.00     0.210 HD
ENDROOT
BRANCH   5  14
HETATM   14  O   UNK N   1      34.556  17.144  10.135  0.00  0.00    -0.390 OA
HETATM   15  H   UNK N   1      34.315  17.436  11.027  0.00  0.00     0.210 HD
ENDBRANCH   5  14
BRANCH   8  16
HETATM   16  O   UNK N   1      33.008  12.592   9.682  0.00  0.00    -0.374 OA
HETATM   17  H   UNK N   1      32.861  11.777   9.176  0.00  0.00     0.212 HD
ENDBRANCH   8  16
BRANCH   1  18
HETATM   18  O   UNK N   1      37.085  16.155  10.929  0.00  0.00    -0.391 OA
HETATM   19  H   UNK N   1      37.980  15.819  10.765  0.00  0.00     0.210 HD
ENDBRANCH   1  18
BRANCH  11  20
HETATM   20  C   UNK N   1      35.272   9.493  11.202  0.00  0.00     0.123 C 
BRANCH  20  21
HETATM   21  C   UNK N   1      34.752   9.262  12.615  0.00  0.00     0.020 C 
BRANCH  21  22
HETATM   22  C   UNK N   1      35.628   8.279  13.369  0.00  0.00     0.002 C 
BRANCH  22  23
HETATM   23  C   UNK N   1      35.902   8.760  14.783  0.00  0.00     0.000 C 
BRANCH  23  24
HETATM   24  C   UNK N   1      36.832   9.959  14.734  0.00  0.00     0.000 C 
BRANCH  24  25
HETATM   25  C   UNK N   1      36.416  10.994  15.764  0.00  0.00    -0.000 C 
BRANCH  25  26
HETATM   26  C   UNK N   1      35.754  12.171  15.073  0.00  0.00    -0.005 C 
HETATM   27  C   UNK N   1      34.250  11.993  15.087  0.00  0.00     0.005 C 
ENDBRANCH  25  26
ENDBRANCH  24  25
ENDBRANCH  23  24
ENDBRANCH  22  23
ENDBRANCH  21  22
ENDBRANCH  20  21
ENDBRANCH  11  20
TORSDOF 10
ENDMDL
MODEL 9
REMARK VINA RESULT:      -5.5      9.776     13.467
REMARK  10 active torsions:
REMARK  status: ('A' for Active; 'I' for Inactive)
REMARK    1  A    between atoms: C_2  and  O_1 
REMARK    2  A    between atoms: C_6  and  O_7 
REMARK    3  A    between atoms: C_10  and  O_11 
REMARK    4  A    between atoms: N_14  and  C_16 
REMARK    5  A    between atoms: C_16  and  C_17 
REMARK    6  A    between atoms: C_17  and  C_18 
REMARK    7  A    between atoms: C_18  and  C_19 
REMARK    8  A    between atoms: C_19  and  C_20 
REMARK    9  A    between atoms: C_20  and  C_21 
REMARK   10  A    between atoms: C_21  and  C_22 
ROOT
HETATM    1  C   UNK N   1      35.798  13.131  10.189  0.00  0.00     0.174 C 
HETATM    2  C   UNK N   1      34.797  13.677   9.172  0.00  0.00     0.146 C 
HETATM    3  C   UNK N   1      33.465  12.887   9.002  0.00  0.00     0.207 C 
HETATM    4  O   UNK N   1      32.475  13.864   8.974  0.00  0.00    -0.320 OA
HETATM    5  C   UNK N   1      36.934  14.177  10.334  0.00  0.00     0.182 C 
HETATM    6  C   UNK N   1      36.359  15.532  10.825  0.00  0.00     0.198 C 
HETATM    7  O   UNK N   1      35.797  15.362  12.095  0.00  0.00    -0.389 OA
HETATM    8  C   UNK N   1      35.287  16.050   9.839  0.00  0.00     0.255 C 
HETATM    9  N   UNK N   1      34.348  14.977   9.569  0.00  0.00    -0.309 N 
HETATM   10  C   UNK N   1      32.987  15.056   9.304  0.00  0.00     0.220 C 
HETATM   11  N   UNK N   1      32.327  16.158   9.248  0.00  0.00    -0.356 N 
ATOM     12  HN  UNK N   1      32.777  17.028   9.534  1.00  0.00     0.163 HD
HETATM   13  H   UNK N   1      35.425  15.121  12.959  0.00  0.00     0.210 HD
ENDROOT
BRANCH   5  14
HETATM   14  O   UNK N   1      37.900  13.715  11.232  0.00  0.00    -0.390 OA
HETATM   15  H   UNK N   1      38.571  13.061  10.981  0.00  0.00     0.210 HD
ENDBRANCH   5  14
BRANCH   8  16
HETATM   16  O   UNK N   1      34.645  17.176  10.366  0.00  0.00    -0.374 OA
HETATM   17  H   UNK N   1      34.756  18.084  10.043  0.00  0.00     0.212 HD
ENDBRANCH   8  16
BRANCH   1  18
HETATM   18  O   UNK N   1      36.312  11.914   9.736  0.00  0.00    -0.391 OA
HETATM   19  H   UNK N   1      35.857  11.068   9.870  0.00  0.00     0.210 HD
ENDBRANCH   1  18
BRANCH  11  20
HETATM   20  C   UNK N   1      30.963  16.183   8.787  0.00  0.00     0.123 C 
BRANCH  20  21
HETATM   21  C   UNK N   1      30.657  17.581   8.265  0.00  0.00     0.020 C 
BRANCH  21  22
HETATM   22  C   UNK N   1      30.200  17.539   6.819  0.00  0.00     0.002 C 
BRANCH  22  23
HETATM   23  C   UNK N   1      30.224  16.121   6.277  0.00  0.00     0.000 C 
BRANCH  23  24
HETATM   24  C   UNK N   1      30.863  16.121   4.900  0.00  0.00     0.000 C 
BRANCH  24  25
HETATM   25  C   UNK N   1      31.373  17.507   4.553  0.00  0.00    -0.000 C 
BRANCH  25  26
HETATM   26  C   UNK N   1      32.867  17.456   4.291  0.00  0.00    -0.005 C 
HETATM   27  C   UNK N   1      33.612  17.331   5.603  0.00  0.00     0.005 C 
ENDBRANCH  25  26
ENDBRANCH  24  25
ENDBRANCH  23  24
ENDBRANCH  22  23
ENDBRANCH  21  22
ENDBRANCH  20  21
ENDBRANCH  11  20
TORSDOF 10
ENDMDL
