MODEL 1
REMARK VINA RESULT:      -8.7      0.000      0.000
REMARK  6 active torsions:
REMARK  status: ('A' for Active; 'I' for Inactive)
REMARK    1  A    between atoms: C_4  and  N_29 
REMARK    2  A    between atoms: C_6  and  C_8 
REMARK       I    between atoms: C_8  and  N_10 
REMARK    3  A    between atoms: N_10  and  C_11 
REMARK    4  A    between atoms: C_17  and  C_18 
REMARK    5  A    between atoms: C_18  and  C_19 
REMARK    6  A    between atoms: C_19  and  C_20 
ROOT
HETATM    1  C   UNK N   1      25.896  18.982   4.893  0.00  0.00     0.035 A 
HETATM    2  C   UNK N   1      26.257  19.941   3.896  0.00  0.00     0.032 A 
HETATM    3  C   UNK N   1      25.274  20.486   3.029  0.00  0.00     0.033 A 
HETATM    4  C   UNK N   1      23.957  20.048   3.193  0.00  0.00     0.043 A 
HETATM    5  N   UNK N   1      22.851  20.405   2.506  0.00  0.00    -0.365 N 
HETATM    6  C   UNK N   1      21.821  19.691   3.056  0.00  0.00     0.096 A 
HETATM    7  C   UNK N   1      22.324  18.899   4.086  0.00  0.00    -0.030 A 
HETATM    8  C   UNK N   1      23.648  19.142   4.144  0.00  0.00     0.000 A 
HETATM    9  C   UNK N   1      24.574  18.591   5.005  0.00  0.00     0.043 A 
HETATM   10  H   UNK N   1      22.796  21.048   1.762  0.00  0.00     0.165 HD
ENDROOT
BRANCH   1  11
HETATM   11  N   UNK N   1      26.822  18.390   5.795  0.00  0.00    -0.323 N 
HETATM   12  C   UNK N   1      27.461  19.025   6.795  0.00  0.00     0.256 C 
HETATM   13  O   UNK N   1      27.269  20.221   6.995  0.00  0.00    -0.267 OA
HETATM   14  H   UNK N   1      27.011  17.431   5.678  0.00  0.00     0.169 HD
BRANCH  12  15
HETATM   15  C   UNK N   1      28.398  18.295   7.666  0.00  0.00     0.037 A 
HETATM   16  C   UNK N   1      29.705  18.167   7.235  0.00  0.00     0.046 A 
HETATM   17  C   UNK N   1      30.671  17.506   7.983  0.00  0.00     0.034 A 
HETATM   18  C   UNK N   1      30.304  16.947   9.223  0.00  0.00     0.071 A 
HETATM   19  C   UNK N   1      28.981  17.064   9.681  0.00  0.00     0.119 A 
HETATM   20  F   UNK N   1      28.629  16.529  10.877  0.00  0.00    -0.206 F 
HETATM   21  C   UNK N   1      28.024  17.741   8.905  0.00  0.00     0.059 A 
BRANCH  17  22
HETATM   22  N   UNK N   1      32.001  17.439   7.478  0.00  0.00    -0.377 N 
HETATM   23  C   UNK N   1      32.235  17.185   6.062  0.00  0.00     0.149 C 
HETATM   24  C   UNK N   1      33.725  17.023   5.745  0.00  0.00     0.187 C 
HETATM   25  O   UNK N   1      34.474  17.947   6.483  0.00  0.00    -0.388 OA
HETATM   26  C   UNK N   1      34.471  17.433   7.780  0.00  0.00     0.187 C 
HETATM   27  C   UNK N   1      33.107  17.668   8.410  0.00  0.00     0.149 C 
ENDBRANCH  17  22
ENDBRANCH  12  15
ENDBRANCH   1  11
BRANCH   7  28
HETATM   28  C   UNK N   1      21.762  17.926   5.049  0.00  0.00     0.045 C 
BRANCH  28  29
HETATM   29  C   UNK N   1      21.115  18.132   6.394  0.00  0.00     0.043 C 
BRANCH  29  30
HETATM   30  C   UNK N   1      21.261  16.810   7.136  0.00  0.00    -0.055 A 
HETATM   31  C   UNK N   1      22.181  15.860   6.695  0.00  0.00     0.024 A 
HETATM   32  C   UNK N   1      22.307  14.647   7.385  0.00  0.00     0.088 A 
HETATM   33  N   UNK N   1      21.537  14.391   8.481  0.00  0.00    -0.375 N 
HETATM   34  C   UNK N   1      20.633  15.294   8.935  0.00  0.00     0.088 A 
ATOM     35  HN  UNK N   1      21.645  13.502   8.968  1.00  0.00     0.164 HD
HETATM   36  C   UNK N   1      20.480  16.509   8.276  0.00  0.00     0.024 A 
ENDBRANCH  29  30
ENDBRANCH  28  29
ENDBRANCH   7  28
TORSDOF 6
ENDMDL
MODEL 2
REMARK VINA RESULT:      -8.3      1.342      1.871
REMARK  6 active torsions:
REMARK  status: ('A' for Active; 'I' for Inactive)
REMARK    1  A    between atoms: C_4  and  N_29 
REMARK    2  A    between atoms: C_6  and  C_8 
REMARK       I    between atoms: C_8  and  N_10 
REMARK    3  A    between atoms: N_10  and  C_11 
REMARK    4  A    between atoms: C_17  and  C_18 
REMARK    5  A    between atoms: C_18  and  C_19 
REMARK    6  A    between atoms: C_19  and  C_20 
ROOT
HETATM    1  C   UNK N   1      25.319  19.176   4.541  0.00  0.00     0.035 A 
HETATM    2  C   UNK N   1      25.471  20.154   3.508  0.00  0.00     0.032 A 
HETATM    3  C   UNK N   1      24.348  20.592   2.760  0.00  0.00     0.033 A 
HETATM    4  C   UNK N   1      23.107  20.034   3.074  0.00  0.00     0.043 A 
HETATM    5  N   UNK N   1      21.900  20.277   2.517  0.00  0.00    -0.365 N 
HETATM    6  C   UNK N   1      21.013  19.475   3.183  0.00  0.00     0.096 A 
HETATM    7  C   UNK N   1      21.703  18.746   4.148  0.00  0.00    -0.030 A 
HETATM    8  C   UNK N   1      22.995  19.114   4.054  0.00  0.00     0.000 A 
HETATM    9  C   UNK N   1      24.062  18.663   4.804  0.00  0.00     0.043 A 
HETATM   10  H   UNK N   1      21.700  20.902   1.784  0.00  0.00     0.165 HD
ENDROOT
BRANCH   1  11
HETATM   11  N   UNK N   1      26.394  18.685   5.331  0.00  0.00    -0.323 N 
HETATM   12  C   UNK N   1      27.056  19.378   6.277  0.00  0.00     0.256 C 
HETATM   13  O   UNK N   1      26.749  20.541   6.524  0.00  0.00    -0.267 OA
HETATM   14  H   UNK N   1      26.679  17.756   5.173  0.00  0.00     0.169 HD
BRANCH  12  15
HETATM   15  C   UNK N   1      28.153  18.752   7.033  0.00  0.00     0.037 A 
HETATM   16  C   UNK N   1      29.012  17.919   6.340  0.00  0.00     0.046 A 
HETATM   17  C   UNK N   1      30.085  17.285   6.954  0.00  0.00     0.034 A 
HETATM   18  C   UNK N   1      30.303  17.498   8.329  0.00  0.00     0.071 A 
HETATM   19  C   UNK N   1      29.443  18.340   9.053  0.00  0.00     0.119 A 
HETATM   20  F   UNK N   1      29.656  18.549  10.377  0.00  0.00    -0.206 F 
HETATM   21  C   UNK N   1      28.366  18.972   8.407  0.00  0.00     0.059 A 
BRANCH  17  22
HETATM   22  N   UNK N   1      30.937  16.461   6.163  0.00  0.00    -0.377 N 
HETATM   23  C   UNK N   1      32.264  16.928   5.784  0.00  0.00     0.149 C 
HETATM   24  C   UNK N   1      32.967  15.955   4.833  0.00  0.00     0.187 C 
HETATM   25  O   UNK N   1      32.711  14.636   5.224  0.00  0.00    -0.388 OA
HETATM   26  C   UNK N   1      31.393  14.411   4.828  0.00  0.00     0.187 C 
HETATM   27  C   UNK N   1      30.452  15.132   5.782  0.00  0.00     0.149 C 
ENDBRANCH  17  22
ENDBRANCH  12  15
ENDBRANCH   1  11
BRANCH   7  28
HETATM   28  C   UNK N   1      21.350  17.736   5.170  0.00  0.00     0.045 C 
BRANCH  28  29
HETATM   29  C   UNK N   1      21.027  17.886   6.635  0.00  0.00     0.043 C 
BRANCH  29  30
HETATM   30  C   UNK N   1      21.350  16.541   7.274  0.00  0.00    -0.055 A 
HETATM   31  C   UNK N   1      20.660  16.126   8.412  0.00  0.00     0.024 A 
HETATM   32  C   UNK N   1      20.966  14.887   8.991  0.00  0.00     0.088 A 
HETATM   33  N   UNK N   1      21.930  14.089   8.452  0.00  0.00    -0.375 N 
HETATM   34  C   UNK N   1      22.619  14.465   7.345  0.00  0.00     0.088 A 
ATOM     35  HN  UNK N   1      22.137  13.192   8.889  1.00  0.00     0.164 HD
HETATM   36  C   UNK N   1      22.344  15.687   6.742  0.00  0.00     0.024 A 
ENDBRANCH  29  30
ENDBRANCH  28  29
ENDBRANCH   7  28
TORSDOF 6
ENDMDL
MODEL 3
REMARK VINA RESULT:      -8.3      9.545     14.366
REMARK  6 active torsions:
REMARK  status: ('A' for Active; 'I' for Inactive)
REMARK    1  A    between atoms: C_4  and  N_29 
REMARK    2  A    between atoms: C_6  and  C_8 
REMARK       I    between atoms: C_8  and  N_10 
REMARK    3  A    between atoms: N_10  and  C_11 
REMARK    4  A    between atoms: C_17  and  C_18 
REMARK    5  A    between atoms: C_18  and  C_19 
REMARK    6  A    between atoms: C_19  and  C_20 
ROOT
HETATM    1  C   UNK N   1      36.467  13.989  15.550  0.00  0.00     0.035 A 
HETATM    2  C   UNK N   1      36.439  15.161  16.369  0.00  0.00     0.032 A 
HETATM    3  C   UNK N   1      36.086  15.072  17.741  0.00  0.00     0.033 A 
HETATM    4  C   UNK N   1      35.773  13.807  18.245  0.00  0.00     0.043 A 
HETATM    5  N   UNK N   1      35.410  13.458  19.499  0.00  0.00    -0.365 N 
HETATM    6  C   UNK N   1      35.216  12.104  19.468  0.00  0.00     0.096 A 
HETATM    7  C   UNK N   1      35.469  11.643  18.178  0.00  0.00    -0.030 A 
HETATM    8  C   UNK N   1      35.810  12.721  17.447  0.00  0.00     0.000 A 
HETATM    9  C   UNK N   1      36.148  12.766  16.110  0.00  0.00     0.043 A 
HETATM   10  H   UNK N   1      35.306  14.055  20.275  0.00  0.00     0.165 HD
ENDROOT
BRANCH   1  11
HETATM   11  N   UNK N   1      36.807  13.997  14.169  0.00  0.00    -0.323 N 
HETATM   12  C   UNK N   1      35.939  13.887  13.145  0.00  0.00     0.256 C 
HETATM   13  O   UNK N   1      34.737  13.767  13.360  0.00  0.00    -0.267 OA
HETATM   14  H   UNK N   1      37.760  14.092  13.942  0.00  0.00     0.169 HD
BRANCH  12  15
HETATM   15  C   UNK N   1      36.419  13.913  11.753  0.00  0.00     0.037 A 
HETATM   16  C   UNK N   1      35.744  14.724  10.859  0.00  0.00     0.046 A 
HETATM   17  C   UNK N   1      36.119  14.829   9.526  0.00  0.00     0.034 A 
HETATM   18  C   UNK N   1      37.223  14.084   9.070  0.00  0.00     0.071 A 
HETATM   19  C   UNK N   1      37.924  13.253   9.961  0.00  0.00     0.119 A 
HETATM   20  F   UNK N   1      38.991  12.539   9.522  0.00  0.00    -0.206 F 
HETATM   21  C   UNK N   1      37.525  13.167  11.306  0.00  0.00     0.059 A 
BRANCH  17  22
HETATM   22  N   UNK N   1      35.384  15.705   8.675  0.00  0.00    -0.377 N 
HETATM   23  C   UNK N   1      34.848  16.955   9.197  0.00  0.00     0.149 C 
HETATM   24  C   UNK N   1      33.986  17.688   8.165  0.00  0.00     0.187 C 
HETATM   25  O   UNK N   1      34.567  17.584   6.896  0.00  0.00    -0.388 OA
HETATM   26  C   UNK N   1      34.304  16.270   6.505  0.00  0.00     0.187 C 
HETATM   27  C   UNK N   1      35.220  15.326   7.270  0.00  0.00     0.149 C 
ENDBRANCH  17  22
ENDBRANCH  12  15
ENDBRANCH   1  11
BRANCH   7  28
HETATM   28  C   UNK N   1      35.443  10.330  17.496  0.00  0.00     0.045 C 
BRANCH  28  29
HETATM   29  C   UNK N   1      34.351   9.647  16.713  0.00  0.00     0.043 C 
BRANCH  29  30
HETATM   30  C   UNK N   1      34.712   9.828  15.244  0.00  0.00    -0.055 A 
HETATM   31  C   UNK N   1      33.816  10.451  14.377  0.00  0.00     0.024 A 
HETATM   32  C   UNK N   1      34.160  10.612  13.028  0.00  0.00     0.088 A 
HETATM   33  N   UNK N   1      35.359  10.165  12.561  0.00  0.00    -0.375 N 
HETATM   34  C   UNK N   1      36.253   9.555  13.379  0.00  0.00     0.088 A 
ATOM     35  HN  UNK N   1      35.589  10.292  11.575  1.00  0.00     0.164 HD
HETATM   36  C   UNK N   1      35.947   9.377  14.724  0.00  0.00     0.024 A 
ENDBRANCH  29  30
ENDBRANCH  28  29
ENDBRANCH   7  28
TORSDOF 6
ENDMDL
MODEL 4
REMARK VINA RESULT:      -8.2      4.741      8.311
REMARK  6 active torsions:
REMARK  status: ('A' for Active; 'I' for Inactive)
REMARK    1  A    between atoms: C_4  and  N_29 
REMARK    2  A    between atoms: C_6  and  C_8 
REMARK       I    between atoms: C_8  and  N_10 
REMARK    3  A    between atoms: N_10  and  C_11 
REMARK    4  A    between atoms: C_17  and  C_18 
REMARK    5  A    between atoms: C_18  and  C_19 
REMARK    6  A    between atoms: C_19  and  C_20 
ROOT
HETATM    1  C   UNK N   1      30.859  16.981   8.604  0.00  0.00     0.035 A 
HETATM    2  C   UNK N   1      30.358  17.968   9.510  0.00  0.00     0.032 A 
HETATM    3  C   UNK N   1      29.228  18.755   9.166  0.00  0.00     0.033 A 
HETATM    4  C   UNK N   1      28.637  18.524   7.921  0.00  0.00     0.043 A 
HETATM    5  N   UNK N   1      27.567  19.130   7.362  0.00  0.00    -0.365 N 
HETATM    6  C   UNK N   1      27.399  18.539   6.139  0.00  0.00     0.096 A 
HETATM    7  C   UNK N   1      28.384  17.569   5.970  0.00  0.00    -0.030 A 
HETATM    8  C   UNK N   1      29.133  17.585   7.089  0.00  0.00     0.000 A 
HETATM    9  C   UNK N   1      30.228  16.800   7.387  0.00  0.00     0.043 A 
HETATM   10  H   UNK N   1      27.020  19.848   7.754  0.00  0.00     0.165 HD
ENDROOT
BRANCH   1  11
HETATM   11  N   UNK N   1      31.986  16.158   8.875  0.00  0.00    -0.323 N 
HETATM   12  C   UNK N   1      33.260  16.432   8.536  0.00  0.00     0.256 C 
HETATM   13  O   UNK N   1      33.535  17.468   7.938  0.00  0.00    -0.267 OA
HETATM   14  H   UNK N   1      31.820  15.314   9.354  0.00  0.00     0.169 HD
BRANCH  12  15
HETATM   15  C   UNK N   1      34.343  15.494   8.879  0.00  0.00     0.037 A 
HETATM   16  C   UNK N   1      34.436  15.079  10.194  0.00  0.00     0.046 A 
HETATM   17  C   UNK N   1      35.414  14.190  10.623  0.00  0.00     0.034 A 
HETATM   18  C   UNK N   1      36.341  13.697   9.684  0.00  0.00     0.071 A 
HETATM   19  C   UNK N   1      36.266  14.106   8.342  0.00  0.00     0.119 A 
HETATM   20  F   UNK N   1      37.157  13.627   7.438  0.00  0.00    -0.206 F 
HETATM   21  C   UNK N   1      35.265  15.005   7.935  0.00  0.00     0.059 A 
BRANCH  17  22
HETATM   22  N   UNK N   1      35.426  13.794  11.991  0.00  0.00    -0.377 N 
HETATM   23  C   UNK N   1      36.068  14.636  12.992  0.00  0.00     0.149 C 
HETATM   24  C   UNK N   1      36.085  13.977  14.374  0.00  0.00     0.187 C 
HETATM   25  O   UNK N   1      34.873  13.317  14.604  0.00  0.00    -0.388 OA
HETATM   26  C   UNK N   1      34.953  12.169  13.816  0.00  0.00     0.187 C 
HETATM   27  C   UNK N   1      34.749  12.548  12.356  0.00  0.00     0.149 C 
ENDBRANCH  17  22
ENDBRANCH  12  15
ENDBRANCH   1  11
BRANCH   7  28
HETATM   28  C   UNK N   1      28.753  16.604   4.910  0.00  0.00     0.045 C 
BRANCH  28  29
HETATM   29  C   UNK N   1      29.582  16.779   3.663  0.00  0.00     0.043 C 
BRANCH  29  30
HETATM   30  C   UNK N   1      31.033  16.605   4.097  0.00  0.00    -0.055 A 
HETATM   31  C   UNK N   1      31.877  17.712   4.166  0.00  0.00     0.024 A 
HETATM   32  C   UNK N   1      33.210  17.540   4.567  0.00  0.00     0.088 A 
HETATM   33  N   UNK N   1      33.682  16.302   4.888  0.00  0.00    -0.375 N 
HETATM   34  C   UNK N   1      32.885  15.206   4.831  0.00  0.00     0.088 A 
ATOM     35  HN  UNK N   1      34.654  16.199   5.177  1.00  0.00     0.164 HD
HETATM   36  C   UNK N   1      31.557  15.337   4.438  0.00  0.00     0.024 A 
ENDBRANCH  29  30
ENDBRANCH  28  29
ENDBRANCH   7  28
TORSDOF 6
ENDMDL
MODEL 5
REMARK VINA RESULT:      -8.2     13.052     14.586
REMARK  6 active torsions:
REMARK  status: ('A' for Active; 'I' for Inactive)
REMARK    1  A    between atoms: C_4  and  N_29 
REMARK    2  A    between atoms: C_6  and  C_8 
REMARK       I    between atoms: C_8  and  N_10 
REMARK    3  A    between atoms: N_10  and  C_11 
REMARK    4  A    between atoms: C_17  and  C_18 
REMARK    5  A    between atoms: C_18  and  C_19 
REMARK    6  A    between atoms: C_19  and  C_20 
ROOT
HETATM    1  C   UNK N   1      29.977  26.309  -3.889  0.00  0.00     0.035 A 
HETATM    2  C   UNK N   1      30.836  27.339  -3.392  0.00  0.00     0.032 A 
HETATM    3  C   UNK N   1      30.306  28.600  -3.016  0.00  0.00     0.033 A 
HETATM    4  C   UNK N   1      28.928  28.786  -3.151  0.00  0.00     0.043 A 
HETATM    5  N   UNK N   1      28.185  29.878  -2.867  0.00  0.00    -0.365 N 
HETATM    6  C   UNK N   1      26.895  29.544  -3.176  0.00  0.00     0.096 A 
HETATM    7  C   UNK N   1      26.871  28.234  -3.649  0.00  0.00    -0.030 A 
HETATM    8  C   UNK N   1      28.143  27.794  -3.622  0.00  0.00     0.000 A 
HETATM    9  C   UNK N   1      28.621  26.555  -3.997  0.00  0.00     0.043 A 
HETATM   10  H   UNK N   1      28.506  30.738  -2.511  0.00  0.00     0.165 HD
ENDROOT
BRANCH   1  11
HETATM   11  N   UNK N   1      30.432  25.023  -4.289  0.00  0.00    -0.323 N 
HETATM   12  C   UNK N   1      30.629  23.969  -3.473  0.00  0.00     0.256 C 
HETATM   13  O   UNK N   1      30.413  24.067  -2.269  0.00  0.00    -0.267 OA
HETATM   14  H   UNK N   1      30.619  24.890  -5.246  0.00  0.00     0.169 HD
BRANCH  12  15
HETATM   15  C   UNK N   1      31.101  22.684  -4.013  0.00  0.00     0.037 A 
HETATM   16  C   UNK N   1      30.462  22.187  -5.134  0.00  0.00     0.046 A 
HETATM   17  C   UNK N   1      30.834  20.989  -5.730  0.00  0.00     0.034 A 
HETATM   18  C   UNK N   1      31.897  20.254  -5.171  0.00  0.00     0.071 A 
HETATM   19  C   UNK N   1      32.561  20.739  -4.031  0.00  0.00     0.119 A 
HETATM   20  F   UNK N   1      33.589  20.033  -3.495  0.00  0.00    -0.206 F 
HETATM   21  C   UNK N   1      32.166  21.956  -3.450  0.00  0.00     0.059 A 
BRANCH  17  22
HETATM   22  N   UNK N   1      30.138  20.560  -6.897  0.00  0.00    -0.377 N 
HETATM   23  C   UNK N   1      28.914  21.233  -7.310  0.00  0.00     0.149 C 
HETATM   24  C   UNK N   1      28.254  20.544  -8.508  0.00  0.00     0.187 C 
HETATM   25  O   UNK N   1      29.232  20.125  -9.418  0.00  0.00    -0.388 OA
HETATM   26  C   UNK N   1      29.805  19.006  -8.813  0.00  0.00     0.187 C 
HETATM   27  C   UNK N   1      30.709  19.458  -7.675  0.00  0.00     0.149 C 
ENDBRANCH  17  22
ENDBRANCH  12  15
ENDBRANCH   1  11
BRANCH   7  28
HETATM   28  C   UNK N   1      25.832  27.300  -4.137  0.00  0.00     0.045 C 
BRANCH  28  29
HETATM   29  C   UNK N   1      25.064  27.269  -5.434  0.00  0.00     0.043 C 
BRANCH  29  30
HETATM   30  C   UNK N   1      25.467  25.974  -6.128  0.00  0.00    -0.055 A 
HETATM   31  C   UNK N   1      25.578  24.795  -5.394  0.00  0.00     0.024 A 
HETATM   32  C   UNK N   1      25.949  23.609  -6.043  0.00  0.00     0.088 A 
HETATM   33  N   UNK N   1      26.201  23.603  -7.382  0.00  0.00    -0.375 N 
HETATM   34  C   UNK N   1      26.101  24.734  -8.125  0.00  0.00     0.088 A 
ATOM     35  HN  UNK N   1      26.469  22.730  -7.835  1.00  0.00     0.164 HD
HETATM   36  C   UNK N   1      25.736  25.930  -7.515  0.00  0.00     0.024 A 
ENDBRANCH  29  30
ENDBRANCH  28  29
ENDBRANCH   7  28
TORSDOF 6
ENDMDL
MODEL 6
REMARK VINA RESULT:      -7.9     10.862     15.533
REMARK  6 active torsions:
REMARK  status: ('A' for Active; 'I' for Inactive)
REMARK    1  A    between atoms: C_4  and  N_29 
REMARK    2  A    between atoms: C_6  and  C_8 
REMARK       I    between atoms: C_8  and  N_10 
REMARK    3  A    between atoms: N_10  and  C_11 
REMARK    4  A    between atoms: C_17  and  C_18 
REMARK    5  A    between atoms: C_18  and  C_19 
REMARK    6  A    between atoms: C_19  and  C_20 
ROOT
HETATM    1  C   UNK N   1      35.091  12.830  16.785  0.00  0.00     0.035 A 
HETATM    2  C   UNK N   1      35.114  13.746  17.884  0.00  0.00     0.032 A 
HETATM    3  C   UNK N   1      35.207  13.269  19.218  0.00  0.00     0.033 A 
HETATM    4  C   UNK N   1      35.274  11.886  19.404  0.00  0.00     0.043 A 
HETATM    5  N   UNK N   1      35.366  11.188  20.557  0.00  0.00    -0.365 N 
HETATM    6  C   UNK N   1      35.400   9.869  20.193  0.00  0.00     0.096 A 
HETATM    7  C   UNK N   1      35.329   9.784  18.805  0.00  0.00    -0.030 A 
HETATM    8  C   UNK N   1      35.251  11.048  18.348  0.00  0.00     0.000 A 
HETATM    9  C   UNK N   1      35.162  11.472  17.037  0.00  0.00     0.043 A 
HETATM   10  H   UNK N   1      35.401  11.552  21.471  0.00  0.00     0.165 HD
ENDROOT
BRANCH   1  11
HETATM   11  N   UNK N   1      34.996  13.229  15.424  0.00  0.00    -0.323 N 
HETATM   12  C   UNK N   1      36.032  13.407  14.583  0.00  0.00     0.256 C 
HETATM   13  O   UNK N   1      37.183  13.226  14.968  0.00  0.00    -0.267 OA
HETATM   14  H   UNK N   1      34.093  13.387  15.065  0.00  0.00     0.169 HD
BRANCH  12  15
HETATM   15  C   UNK N   1      35.800  13.820  13.189  0.00  0.00     0.037 A 
HETATM   16  C   UNK N   1      35.231  12.894  12.334  0.00  0.00     0.046 A 
HETATM   17  C   UNK N   1      34.962  13.182  11.002  0.00  0.00     0.034 A 
HETATM   18  C   UNK N   1      35.280  14.462  10.507  0.00  0.00     0.071 A 
HETATM   19  C   UNK N   1      35.860  15.419  11.357  0.00  0.00     0.119 A 
HETATM   20  F   UNK N   1      36.163  16.652  10.880  0.00  0.00    -0.206 F 
HETATM   21  C   UNK N   1      36.120  15.101  12.702  0.00  0.00     0.059 A 
BRANCH  17  22
HETATM   22  N   UNK N   1      34.352  12.179  10.194  0.00  0.00    -0.377 N 
HETATM   23  C   UNK N   1      34.123  10.845  10.732  0.00  0.00     0.149 C 
HETATM   24  C   UNK N   1      33.579   9.883   9.672  0.00  0.00     0.187 C 
HETATM   25  O   UNK N   1      32.650  10.542   8.859  0.00  0.00    -0.388 OA
HETATM   26  C   UNK N   1      33.431  11.354   8.035  0.00  0.00     0.187 C 
HETATM   27  C   UNK N   1      33.938  12.543   8.837  0.00  0.00     0.149 C 
ENDBRANCH  17  22
ENDBRANCH  12  15
ENDBRANCH   1  11
BRANCH   7  28
HETATM   28  C   UNK N   1      35.319   8.691  17.807  0.00  0.00     0.045 C 
BRANCH  28  29
HETATM   29  C   UNK N   1      36.452   7.943  17.153  0.00  0.00     0.043 C 
BRANCH  29  30
HETATM   30  C   UNK N   1      36.668   8.610  15.800  0.00  0.00    -0.055 A 
HETATM   31  C   UNK N   1      37.869   9.263  15.527  0.00  0.00     0.024 A 
HETATM   32  C   UNK N   1      38.056   9.872  14.279  0.00  0.00     0.088 A 
HETATM   33  N   UNK N   1      37.074   9.831  13.334  0.00  0.00    -0.375 N 
HETATM   34  C   UNK N   1      35.894   9.204  13.569  0.00  0.00     0.088 A 
ATOM     35  HN  UNK N   1      37.231  10.281  12.433  1.00  0.00     0.164 HD
HETATM   36  C   UNK N   1      35.672   8.587  14.796  0.00  0.00     0.024 A 
ENDBRANCH  29  30
ENDBRANCH  28  29
ENDBRANCH   7  28
TORSDOF 6
ENDMDL
MODEL 7
REMARK VINA RESULT:      -7.9      9.459     15.253
REMARK  6 active torsions:
REMARK  status: ('A' for Active; 'I' for Inactive)
REMARK    1  A    between atoms: C_4  and  N_29 
REMARK    2  A    between atoms: C_6  and  C_8 
REMARK       I    between atoms: C_8  and  N_10 
REMARK    3  A    between atoms: N_10  and  C_11 
REMARK    4  A    between atoms: C_17  and  C_18 
REMARK    5  A    between atoms: C_18  and  C_19 
REMARK    6  A    between atoms: C_19  and  C_20 
ROOT
HETATM    1  C   UNK N   1      35.877  13.155  16.339  0.00  0.00     0.035 A 
HETATM    2  C   UNK N   1      35.598  14.192  17.284  0.00  0.00     0.032 A 
HETATM    3  C   UNK N   1      35.244  13.873  18.621  0.00  0.00     0.033 A 
HETATM    4  C   UNK N   1      35.181  12.520  18.965  0.00  0.00     0.043 A 
HETATM    5  N   UNK N   1      34.871  11.959  20.154  0.00  0.00    -0.365 N 
HETATM    6  C   UNK N   1      34.953  10.606  19.962  0.00  0.00     0.096 A 
HETATM    7  C   UNK N   1      35.318  10.362  18.641  0.00  0.00    -0.030 A 
HETATM    8  C   UNK N   1      35.450  11.565  18.051  0.00  0.00     0.000 A 
HETATM    9  C   UNK N   1      35.799  11.835  16.743  0.00  0.00     0.043 A 
HETATM   10  H   UNK N   1      34.635  12.427  20.987  0.00  0.00     0.165 HD
ENDROOT
BRANCH   1  11
HETATM   11  N   UNK N   1      36.235  13.394  14.984  0.00  0.00    -0.323 N 
HETATM   12  C   UNK N   1      35.442  13.193  13.914  0.00  0.00     0.256 C 
HETATM   13  O   UNK N   1      34.301  12.767  14.058  0.00  0.00    -0.267 OA
HETATM   14  H   UNK N   1      37.141  13.738  14.814  0.00  0.00     0.169 HD
BRANCH  12  15
HETATM   15  C   UNK N   1      35.932  13.485  12.556  0.00  0.00     0.037 A 
HETATM   16  C   UNK N   1      35.112  14.227  11.727  0.00  0.00     0.046 A 
HETATM   17  C   UNK N   1      35.481  14.566  10.431  0.00  0.00     0.034 A 
HETATM   18  C   UNK N   1      36.732  14.137   9.947  0.00  0.00     0.071 A 
HETATM   19  C   UNK N   1      37.581  13.380  10.772  0.00  0.00     0.119 A 
HETATM   20  F   UNK N   1      38.788  12.971  10.307  0.00  0.00    -0.206 F 
HETATM   21  C   UNK N   1      37.184  13.054  12.081  0.00  0.00     0.059 A 
BRANCH  17  22
HETATM   22  N   UNK N   1      34.587  15.354   9.649  0.00  0.00    -0.377 N 
HETATM   23  C   UNK N   1      33.508  14.718   8.906  0.00  0.00     0.149 C 
HETATM   24  C   UNK N   1      32.744  15.717   8.032  0.00  0.00     0.187 C 
HETATM   25  O   UNK N   1      32.581  16.926   8.718  0.00  0.00    -0.388 OA
HETATM   26  C   UNK N   1      33.844  17.519   8.672  0.00  0.00     0.187 C 
HETATM   27  C   UNK N   1      34.768  16.807   9.649  0.00  0.00     0.149 C 
ENDBRANCH  17  22
ENDBRANCH  12  15
ENDBRANCH   1  11
BRANCH   7  28
HETATM   28  C   UNK N   1      35.569   9.161  17.813  0.00  0.00     0.045 C 
BRANCH  28  29
HETATM   29  C   UNK N   1      36.857   8.477  17.434  0.00  0.00     0.043 C 
BRANCH  29  30
HETATM   30  C   UNK N   1      36.933   8.542  15.913  0.00  0.00    -0.055 A 
HETATM   31  C   UNK N   1      37.960   9.256  15.297  0.00  0.00     0.024 A 
HETATM   32  C   UNK N   1      38.020   9.309  13.897  0.00  0.00     0.088 A 
HETATM   33  N   UNK N   1      37.085   8.670  13.139  0.00  0.00    -0.375 N 
HETATM   34  C   UNK N   1      36.074   7.967  13.709  0.00  0.00     0.088 A 
ATOM     35  HN  UNK N   1      37.147   8.721  12.123  1.00  0.00     0.164 HD
HETATM   36  C   UNK N   1      35.981   7.892  15.095  0.00  0.00     0.024 A 
ENDBRANCH  29  30
ENDBRANCH  28  29
ENDBRANCH   7  28
TORSDOF 6
ENDMDL
MODEL 8
REMARK VINA RESULT:      -7.9      3.260      9.367
REMARK  6 active torsions:
REMARK  status: ('A' for Active; 'I' for Inactive)
REMARK    1  A    between atoms: C_4  and  N_29 
REMARK    2  A    between atoms: C_6  and  C_8 
REMARK       I    between atoms: C_8  and  N_10 
REMARK    3  A    between atoms: N_10  and  C_11 
REMARK    4  A    between atoms: C_17  and  C_18 
REMARK    5  A    between atoms: C_18  and  C_19 
REMARK    6  A    between atoms: C_19  and  C_20 
ROOT
HETATM    1  C   UNK N   1      28.424  18.129   7.288  0.00  0.00     0.035 A 
HETATM    2  C   UNK N   1      28.362  18.017   8.713  0.00  0.00     0.032 A 
HETATM    3  C   UNK N   1      29.486  17.561   9.449  0.00  0.00     0.033 A 
HETATM    4  C   UNK N   1      30.637  17.231   8.729  0.00  0.00     0.043 A 
HETATM    5  N   UNK N   1      31.825  16.777   9.187  0.00  0.00    -0.365 N 
HETATM    6  C   UNK N   1      32.612  16.609   8.080  0.00  0.00     0.096 A 
HETATM    7  C   UNK N   1      31.881  16.969   6.950  0.00  0.00    -0.030 A 
HETATM    8  C   UNK N   1      30.665  17.347   7.386  0.00  0.00     0.000 A 
HETATM    9  C   UNK N   1      29.594  17.788   6.635  0.00  0.00     0.043 A 
HETATM   10  H   UNK N   1      32.073  16.604  10.123  0.00  0.00     0.165 HD
ENDROOT
BRANCH   1  11
HETATM   11  N   UNK N   1      27.342  18.574   6.482  0.00  0.00    -0.323 N 
HETATM   12  C   UNK N   1      26.596  17.801   5.669  0.00  0.00     0.256 C 
HETATM   13  O   UNK N   1      26.823  16.599   5.574  0.00  0.00    -0.267 OA
HETATM   14  H   UNK N   1      27.117  19.532   6.521  0.00  0.00     0.169 HD
BRANCH  12  15
HETATM   15  C   UNK N   1      25.495  18.386   4.885  0.00  0.00     0.037 A 
HETATM   16  C   UNK N   1      24.252  17.788   4.983  0.00  0.00     0.046 A 
HETATM   17  C   UNK N   1      23.144  18.264   4.294  0.00  0.00     0.034 A 
HETATM   18  C   UNK N   1      23.294  19.393   3.466  0.00  0.00     0.071 A 
HETATM   19  C   UNK N   1      24.547  20.017   3.350  0.00  0.00     0.119 A 
HETATM   20  F   UNK N   1      24.690  21.108   2.556  0.00  0.00    -0.206 F 
HETATM   21  C   UNK N   1      25.652  19.516   4.061  0.00  0.00     0.059 A 
BRANCH  17  22
HETATM   22  N   UNK N   1      21.894  17.603   4.469  0.00  0.00    -0.377 N 
HETATM   23  C   UNK N   1      20.939  17.540   3.370  0.00  0.00     0.149 C 
HETATM   24  C   UNK N   1      19.612  16.903   3.797  0.00  0.00     0.187 C 
HETATM   25  O   UNK N   1      19.854  15.824   4.655  0.00  0.00    -0.388 OA
HETATM   26  C   UNK N   1      20.207  16.421   5.865  0.00  0.00     0.187 C 
HETATM   27  C   UNK N   1      21.623  16.969   5.761  0.00  0.00     0.149 C 
ENDBRANCH  17  22
ENDBRANCH  12  15
ENDBRANCH   1  11
BRANCH   7  28
HETATM   28  C   UNK N   1      32.134  17.018   5.493  0.00  0.00     0.045 C 
BRANCH  28  29
HETATM   29  C   UNK N   1      32.255  15.912   4.475  0.00  0.00     0.043 C 
BRANCH  29  30
HETATM   30  C   UNK N   1      30.828  15.535   4.096  0.00  0.00    -0.055 A 
HETATM   31  C   UNK N   1      30.203  14.456   4.720  0.00  0.00     0.024 A 
HETATM   32  C   UNK N   1      28.890  14.118   4.363  0.00  0.00     0.088 A 
HETATM   33  N   UNK N   1      28.225  14.835   3.414  0.00  0.00    -0.375 N 
HETATM   34  C   UNK N   1      28.805  15.890   2.790  0.00  0.00     0.088 A 
ATOM     35  HN  UNK N   1      27.270  14.572   3.170  1.00  0.00     0.164 HD
HETATM   36  C   UNK N   1      30.106  16.255   3.117  0.00  0.00     0.024 A 
ENDBRANCH  29  30
ENDBRANCH  28  29
ENDBRANCH   7  28
TORSDOF 6
ENDMDL
MODEL 9
REMARK VINA RESULT:      -7.8     13.441     14.225
REMARK  6 active torsions:
REMARK  status: ('A' for Active; 'I' for Inactive)
REMARK    1  A    between atoms: C_4  and  N_29 
REMARK    2  A    between atoms: C_6  and  C_8 
REMARK       I    between atoms: C_8  and  N_10 
REMARK    3  A    between atoms: N_10  and  C_11 
REMARK    4  A    between atoms: C_17  and  C_18 
REMARK    5  A    between atoms: C_18  and  C_19 
REMARK    6  A    between atoms: C_19  and  C_20 
ROOT
HETATM    1  C   UNK N   1      29.986  26.340  -4.112  0.00  0.00     0.035 A 
HETATM    2  C   UNK N   1      30.948  27.271  -3.610  0.00  0.00     0.032 A 
HETATM    3  C   UNK N   1      30.534  28.518  -3.073  0.00  0.00     0.033 A 
HETATM    4  C   UNK N   1      29.164  28.789  -3.058  0.00  0.00     0.043 A 
HETATM    5  N   UNK N   1      28.520  29.888  -2.608  0.00  0.00    -0.365 N 
HETATM    6  C   UNK N   1      27.188  29.654  -2.820  0.00  0.00     0.096 A 
HETATM    7  C   UNK N   1      27.040  28.399  -3.404  0.00  0.00    -0.030 A 
HETATM    8  C   UNK N   1      28.280  27.890  -3.539  0.00  0.00     0.000 A 
HETATM    9  C   UNK N   1      28.643  26.669  -4.067  0.00  0.00     0.043 A 
HETATM   10  H   UNK N   1      28.925  30.691  -2.209  0.00  0.00     0.165 HD
ENDROOT
BRANCH   1  11
HETATM   11  N   UNK N   1      30.321  25.076  -4.667  0.00  0.00    -0.323 N 
HETATM   12  C   UNK N   1      30.566  23.950  -3.969  0.00  0.00     0.256 C 
HETATM   13  O   UNK N   1      30.510  23.955  -2.744  0.00  0.00    -0.267 OA
HETATM   14  H   UNK N   1      30.379  25.017  -5.648  0.00  0.00     0.169 HD
BRANCH  12  15
HETATM   15  C   UNK N   1      30.901  22.697  -4.666  0.00  0.00     0.037 A 
HETATM   16  C   UNK N   1      32.218  22.277  -4.628  0.00  0.00     0.046 A 
HETATM   17  C   UNK N   1      32.640  21.105  -5.243  0.00  0.00     0.034 A 
HETATM   18  C   UNK N   1      31.693  20.320  -5.930  0.00  0.00     0.071 A 
HETATM   19  C   UNK N   1      30.349  20.728  -5.982  0.00  0.00     0.119 A 
HETATM   20  F   UNK N   1      29.437  19.969  -6.640  0.00  0.00    -0.206 F 
HETATM   21  C   UNK N   1      29.949  21.917  -5.348  0.00  0.00     0.059 A 
BRANCH  17  22
HETATM   22  N   UNK N   1      34.011  20.731  -5.138  0.00  0.00    -0.377 N 
HETATM   23  C   UNK N   1      34.934  21.544  -4.357  0.00  0.00     0.149 C 
HETATM   24  C   UNK N   1      36.378  21.047  -4.473  0.00  0.00     0.187 C 
HETATM   25  O   UNK N   1      36.405  19.648  -4.462  0.00  0.00    -0.388 OA
HETATM   26  C   UNK N   1      35.949  19.286  -5.730  0.00  0.00     0.187 C 
HETATM   27  C   UNK N   1      34.444  19.499  -5.801  0.00  0.00     0.149 C 
ENDBRANCH  17  22
ENDBRANCH  12  15
ENDBRANCH   1  11
BRANCH   7  28
HETATM   28  C   UNK N   1      25.905  27.572  -3.872  0.00  0.00     0.045 C 
BRANCH  28  29
HETATM   29  C   UNK N   1      25.134  27.599  -5.167  0.00  0.00     0.043 C 
BRANCH  29  30
HETATM   30  C   UNK N   1      25.474  26.298  -5.883  0.00  0.00    -0.055 A 
HETATM   31  C   UNK N   1      25.534  25.103  -5.168  0.00  0.00     0.024 A 
HETATM   32  C   UNK N   1      25.848  23.912  -5.838  0.00  0.00     0.088 A 
HETATM   33  N   UNK N   1      26.094  23.916  -7.178  0.00  0.00    -0.375 N 
HETATM   34  C   UNK N   1      26.044  25.062  -7.902  0.00  0.00     0.088 A 
ATOM     35  HN  UNK N   1      26.321  23.039  -7.646  1.00  0.00     0.164 HD
HETATM   36  C   UNK N   1      25.736  26.263  -7.273  0.00  0.00     0.024 A 
ENDBRANCH  29  30
ENDBRANCH  28  29
ENDBRANCH   7  28
TORSDOF 6
ENDMDL
