MODEL 1
REMARK VINA RESULT:      -7.5      0.000      0.000
REMARK  3 active torsions:
REMARK  status: ('A' for Active; 'I' for Inactive)
REMARK    1  A    between atoms: C_4  and  N_20 
REMARK    2  A    between atoms: C_6  and  C_8 
REMARK       I    between atoms: C_8  and  N_10 
REMARK    3  A    between atoms: N_10  and  C_11 
ROOT
HETATM    1  C   UNK N   1      35.857  13.191  13.344  0.00  0.00     0.256 C 
HETATM    2  O   UNK N   1      34.637  13.132  13.444  0.00  0.00    -0.267 OA
HETATM    3  N   UNK N   1      36.649  12.997  14.432  0.00  0.00    -0.323 N 
HETATM    4  H   UNK N   1      37.624  13.053  14.302  0.00  0.00     0.169 HD
ENDROOT
BRANCH   1   5
HETATM    5  C   UNK N   1      36.442  13.475  12.022  0.00  0.00     0.037 A 
HETATM    6  C   UNK N   1      35.760  14.344  11.176  0.00  0.00     0.046 A 
HETATM    7  C   UNK N   1      36.239  14.662   9.905  0.00  0.00     0.034 A 
HETATM    8  C   UNK N   1      37.448  14.084   9.474  0.00  0.00     0.071 A 
HETATM    9  C   UNK N   1      38.149  13.207  10.317  0.00  0.00     0.119 A 
HETATM   10  F   UNK N   1      39.309  12.648   9.896  0.00  0.00    -0.206 F 
HETATM   11  C   UNK N   1      37.647  12.899  11.590  0.00  0.00     0.059 A 
BRANCH   7  12
HETATM   12  N   UNK N   1      35.480  15.538   9.072  0.00  0.00    -0.377 N 
HETATM   13  C   UNK N   1      35.263  15.202   7.669  0.00  0.00     0.149 C 
HETATM   14  C   UNK N   1      34.284  16.164   6.989  0.00  0.00     0.187 C 
HETATM   15  O   UNK N   1      34.527  17.475   7.414  0.00  0.00    -0.388 OA
HETATM   16  C   UNK N   1      34.015  17.517   8.711  0.00  0.00     0.187 C 
HETATM   17  C   UNK N   1      34.956  16.775   9.652  0.00  0.00     0.149 C 
ENDBRANCH   7  12
ENDBRANCH   1   5
BRANCH   3  18
HETATM   18  C   UNK N   1      36.174  12.719  15.749  0.00  0.00     0.035 A 
HETATM   19  C   UNK N   1      35.706  13.751  16.610  0.00  0.00     0.032 A 
HETATM   20  C   UNK N   1      35.244  13.463  17.903  0.00  0.00     0.033 A 
HETATM   21  C   UNK N   1      35.263  12.136  18.308  0.00  0.00     0.042 A 
HETATM   22  N   UNK N   1      34.870  11.650  19.494  0.00  0.00    -0.365 N 
HETATM   23  C   UNK N   1      35.709  11.138  17.495  0.00  0.00    -0.006 A 
HETATM   24  C   UNK N   1      35.074  10.310  19.429  0.00  0.00     0.089 A 
HETATM   25  H   UNK N   1      34.511  12.161  20.254  0.00  0.00     0.165 HD
HETATM   26  C   UNK N   1      35.599   9.957  18.185  0.00  0.00     0.030 A 
HETATM   27  C   UNK N   1      36.173  11.387  16.206  0.00  0.00     0.043 A 
ENDBRANCH   3  18
TORSDOF 3
ENDMDL
MODEL 2
REMARK VINA RESULT:      -7.4      9.903     13.637
REMARK  3 active torsions:
REMARK  status: ('A' for Active; 'I' for Inactive)
REMARK    1  A    between atoms: C_4  and  N_20 
REMARK    2  A    between atoms: C_6  and  C_8 
REMARK       I    between atoms: C_8  and  N_10 
REMARK    3  A    between atoms: N_10  and  C_11 
ROOT
HETATM    1  C   UNK N   1      27.066  18.192   5.617  0.00  0.00     0.256 C 
HETATM    2  O   UNK N   1      26.701  17.061   5.915  0.00  0.00    -0.267 OA
HETATM    3  N   UNK N   1      28.199  18.717   6.158  0.00  0.00    -0.323 N 
HETATM    4  H   UNK N   1      28.452  19.629   5.887  0.00  0.00     0.169 HD
ENDROOT
BRANCH   1   5
HETATM    5  C   UNK N   1      26.254  18.966   4.662  0.00  0.00     0.037 A 
HETATM    6  C   UNK N   1      24.890  18.700   4.594  0.00  0.00     0.046 A 
HETATM    7  C   UNK N   1      24.050  19.380   3.714  0.00  0.00     0.034 A 
HETATM    8  C   UNK N   1      24.604  20.363   2.874  0.00  0.00     0.071 A 
HETATM    9  C   UNK N   1      25.978  20.645   2.931  0.00  0.00     0.119 A 
HETATM   10  F   UNK N   1      26.509  21.589   2.116  0.00  0.00    -0.206 F 
HETATM   11  C   UNK N   1      26.805  19.946   3.822  0.00  0.00     0.059 A 
BRANCH   7  12
HETATM   12  N   UNK N   1      22.663  19.042   3.671  0.00  0.00    -0.377 N 
HETATM   13  C   UNK N   1      22.196  17.803   4.283  0.00  0.00     0.149 C 
HETATM   14  C   UNK N   1      20.668  17.702   4.292  0.00  0.00     0.187 C 
HETATM   15  O   UNK N   1      20.150  18.178   3.083  0.00  0.00    -0.388 OA
HETATM   16  C   UNK N   1      20.281  19.565   3.174  0.00  0.00     0.187 C 
HETATM   17  C   UNK N   1      21.744  19.949   2.983  0.00  0.00     0.149 C 
ENDBRANCH   7  12
ENDBRANCH   1   5
BRANCH   3  18
HETATM   18  C   UNK N   1      29.046  18.045   7.089  0.00  0.00     0.035 A 
HETATM   19  C   UNK N   1      28.852  18.157   8.494  0.00  0.00     0.032 A 
HETATM   20  C   UNK N   1      29.695  17.492   9.398  0.00  0.00     0.033 A 
HETATM   21  C   UNK N   1      30.723  16.726   8.869  0.00  0.00     0.042 A 
HETATM   22  N   UNK N   1      31.634  16.018   9.551  0.00  0.00    -0.365 N 
HETATM   23  C   UNK N   1      30.922  16.611   7.526  0.00  0.00    -0.006 A 
HETATM   24  C   UNK N   1      32.429  15.440   8.616  0.00  0.00     0.089 A 
HETATM   25  H   UNK N   1      31.710  15.936  10.529  0.00  0.00     0.165 HD
HETATM   26  C   UNK N   1      32.006  15.793   7.332  0.00  0.00     0.030 A 
HETATM   27  C   UNK N   1      30.104  17.255   6.600  0.00  0.00     0.043 A 
ENDBRANCH   3  18
TORSDOF 3
ENDMDL
MODEL 3
REMARK VINA RESULT:      -7.3      3.945      9.520
REMARK  3 active torsions:
REMARK  status: ('A' for Active; 'I' for Inactive)
REMARK    1  A    between atoms: C_4  and  N_20 
REMARK    2  A    between atoms: C_6  and  C_8 
REMARK       I    between atoms: C_8  and  N_10 
REMARK    3  A    between atoms: N_10  and  C_11 
ROOT
HETATM    1  C   UNK N   1      32.925  16.646   8.640  0.00  0.00     0.256 C 
HETATM    2  O   UNK N   1      33.195  17.834   8.512  0.00  0.00    -0.267 OA
HETATM    3  N   UNK N   1      31.637  16.217   8.545  0.00  0.00    -0.323 N 
HETATM    4  H   UNK N   1      31.469  15.253   8.654  0.00  0.00     0.169 HD
ENDROOT
BRANCH   1   5
HETATM    5  C   UNK N   1      34.022  15.697   8.896  0.00  0.00     0.037 A 
HETATM    6  C   UNK N   1      34.185  15.217  10.192  0.00  0.00     0.046 A 
HETATM    7  C   UNK N   1      35.201  14.322  10.523  0.00  0.00     0.034 A 
HETATM    8  C   UNK N   1      36.083  13.896   9.513  0.00  0.00     0.071 A 
HETATM    9  C   UNK N   1      35.931  14.370   8.200  0.00  0.00     0.119 A 
HETATM   10  F   UNK N   1      36.786  13.962   7.231  0.00  0.00    -0.206 F 
HETATM   11  C   UNK N   1      34.903  15.272   7.890  0.00  0.00     0.059 A 
BRANCH   7  12
HETATM   12  N   UNK N   1      35.334  13.887  11.876  0.00  0.00    -0.377 N 
HETATM   13  C   UNK N   1      34.765  12.608  12.290  0.00  0.00     0.149 C 
HETATM   14  C   UNK N   1      35.161  12.235  13.721  0.00  0.00     0.187 C 
HETATM   15  O   UNK N   1      35.123  13.368  14.540  0.00  0.00    -0.388 OA
HETATM   16  C   UNK N   1      36.259  14.094  14.178  0.00  0.00     0.187 C 
HETATM   17  C   UNK N   1      36.025  14.759  12.826  0.00  0.00     0.149 C 
ENDBRANCH   7  12
ENDBRANCH   1   5
BRANCH   3  18
HETATM   18  C   UNK N   1      30.512  17.060   8.302  0.00  0.00     0.035 A 
HETATM   19  C   UNK N   1      29.803  17.689   9.363  0.00  0.00     0.032 A 
HETATM   20  C   UNK N   1      28.696  18.513   9.109  0.00  0.00     0.033 A 
HETATM   21  C   UNK N   1      28.321  18.688   7.785  0.00  0.00     0.042 A 
HETATM   22  N   UNK N   1      27.301  19.428   7.328  0.00  0.00    -0.365 N 
HETATM   23  C   UNK N   1      28.990  18.092   6.758  0.00  0.00    -0.006 A 
HETATM   24  C   UNK N   1      27.324  19.296   5.978  0.00  0.00     0.089 A 
HETATM   25  H   UNK N   1      26.665  19.956   7.862  0.00  0.00     0.165 HD
HETATM   26  C   UNK N   1      28.376  18.463   5.588  0.00  0.00     0.030 A 
HETATM   27  C   UNK N   1      30.092  17.270   6.974  0.00  0.00     0.043 A 
ENDBRANCH   3  18
TORSDOF 3
ENDMDL
MODEL 4
REMARK VINA RESULT:      -7.2      8.716     14.074
REMARK  3 active torsions:
REMARK  status: ('A' for Active; 'I' for Inactive)
REMARK    1  A    between atoms: C_4  and  N_20 
REMARK    2  A    between atoms: C_6  and  C_8 
REMARK       I    between atoms: C_8  and  N_10 
REMARK    3  A    between atoms: N_10  and  C_11 
ROOT
HETATM    1  C   UNK N   1      27.240  18.011   5.645  0.00  0.00     0.256 C 
HETATM    2  O   UNK N   1      27.234  17.336   4.622  0.00  0.00    -0.267 OA
HETATM    3  N   UNK N   1      26.324  19.001   5.824  0.00  0.00    -0.323 N 
HETATM    4  H   UNK N   1      26.368  19.515   6.663  0.00  0.00     0.169 HD
ENDROOT
BRANCH   1   5
HETATM    5  C   UNK N   1      28.256  17.725   6.672  0.00  0.00     0.037 A 
HETATM    6  C   UNK N   1      29.559  17.473   6.253  0.00  0.00     0.046 A 
HETATM    7  C   UNK N   1      30.581  17.186   7.157  0.00  0.00     0.034 A 
HETATM    8  C   UNK N   1      30.279  17.153   8.531  0.00  0.00     0.071 A 
HETATM    9  C   UNK N   1      28.969  17.407   8.970  0.00  0.00     0.119 A 
HETATM   10  F   UNK N   1      28.681  17.369  10.294  0.00  0.00    -0.206 F 
HETATM   11  C   UNK N   1      27.956  17.691   8.042  0.00  0.00     0.059 A 
BRANCH   7  12
HETATM   12  N   UNK N   1      31.891  16.908   6.664  0.00  0.00    -0.377 N 
HETATM   13  C   UNK N   1      32.932  16.450   7.579  0.00  0.00     0.149 C 
HETATM   14  C   UNK N   1      34.209  16.036   6.842  0.00  0.00     0.187 C 
HETATM   15  O   UNK N   1      34.472  16.932   5.800  0.00  0.00    -0.388 OA
HETATM   16  C   UNK N   1      33.535  16.606   4.819  0.00  0.00     0.187 C 
HETATM   17  C   UNK N   1      32.162  17.117   5.241  0.00  0.00     0.149 C 
ENDBRANCH   7  12
ENDBRANCH   1   5
BRANCH   3  18
HETATM   18  C   UNK N   1      25.306  19.351   4.888  0.00  0.00     0.035 A 
HETATM   19  C   UNK N   1      25.518  20.336   3.883  0.00  0.00     0.032 A 
HETATM   20  C   UNK N   1      24.507  20.672   2.970  0.00  0.00     0.033 A 
HETATM   21  C   UNK N   1      23.295  20.008   3.087  0.00  0.00     0.042 A 
HETATM   22  N   UNK N   1      22.206  20.178   2.323  0.00  0.00    -0.365 N 
HETATM   23  C   UNK N   1      23.077  19.062   4.043  0.00  0.00    -0.006 A 
HETATM   24  C   UNK N   1      21.276  19.319   2.809  0.00  0.00     0.089 A 
HETATM   25  H   UNK N   1      22.104  20.799   1.567  0.00  0.00     0.165 HD
HETATM   26  C   UNK N   1      21.793  18.602   3.891  0.00  0.00     0.030 A 
HETATM   27  C   UNK N   1      24.058  18.704   4.964  0.00  0.00     0.043 A 
ENDBRANCH   3  18
TORSDOF 3
ENDMDL
MODEL 5
REMARK VINA RESULT:      -7.2      3.389      5.842
REMARK  3 active torsions:
REMARK  status: ('A' for Active; 'I' for Inactive)
REMARK    1  A    between atoms: C_4  and  N_20 
REMARK    2  A    between atoms: C_6  and  C_8 
REMARK       I    between atoms: C_8  and  N_10 
REMARK    3  A    between atoms: N_10  and  C_11 
ROOT
HETATM    1  C   UNK N   1      34.859  15.721   9.335  0.00  0.00     0.256 C 
HETATM    2  O   UNK N   1      35.644  16.501   9.861  0.00  0.00    -0.267 OA
HETATM    3  N   UNK N   1      34.765  14.435   9.772  0.00  0.00    -0.323 N 
HETATM    4  H   UNK N   1      34.120  13.846   9.319  0.00  0.00     0.169 HD
ENDROOT
BRANCH   1   5
HETATM    5  C   UNK N   1      34.021  16.205   8.225  0.00  0.00     0.037 A 
HETATM    6  C   UNK N   1      32.723  16.615   8.513  0.00  0.00     0.046 A 
HETATM    7  C   UNK N   1      31.859  17.080   7.522  0.00  0.00     0.034 A 
HETATM    8  C   UNK N   1      32.322  17.135   6.194  0.00  0.00     0.071 A 
HETATM    9  C   UNK N   1      33.630  16.727   5.887  0.00  0.00     0.119 A 
HETATM   10  F   UNK N   1      34.069  16.776   4.606  0.00  0.00    -0.206 F 
HETATM   11  C   UNK N   1      34.480  16.260   6.900  0.00  0.00     0.059 A 
BRANCH   7  12
HETATM   12  N   UNK N   1      30.529  17.459   7.876  0.00  0.00    -0.377 N 
HETATM   13  C   UNK N   1      29.407  17.049   7.038  0.00  0.00     0.149 C 
HETATM   14  C   UNK N   1      28.056  17.395   7.671  0.00  0.00     0.187 C 
HETATM   15  O   UNK N   1      28.117  18.657   8.271  0.00  0.00    -0.388 OA
HETATM   16  C   UNK N   1      28.860  18.450   9.434  0.00  0.00     0.187 C 
HETATM   17  C   UNK N   1      30.331  18.279   9.072  0.00  0.00     0.149 C 
ENDBRANCH   7  12
ENDBRANCH   1   5
BRANCH   3  18
HETATM   18  C   UNK N   1      35.534  13.877  10.837  0.00  0.00     0.035 A 
HETATM   19  C   UNK N   1      36.757  13.189  10.597  0.00  0.00     0.032 A 
HETATM   20  C   UNK N   1      37.501  12.643  11.654  0.00  0.00     0.033 A 
HETATM   21  C   UNK N   1      36.999  12.799  12.938  0.00  0.00     0.042 A 
HETATM   22  N   UNK N   1      37.548  12.357  14.077  0.00  0.00    -0.365 N 
HETATM   23  C   UNK N   1      35.830  13.456  13.182  0.00  0.00    -0.006 A 
HETATM   24  C   UNK N   1      36.706  12.743  15.068  0.00  0.00     0.089 A 
HETATM   25  H   UNK N   1      38.389  11.855  14.174  0.00  0.00     0.165 HD
HETATM   26  C   UNK N   1      35.616  13.437  14.537  0.00  0.00     0.030 A 
HETATM   27  C   UNK N   1      35.067  14.011  12.158  0.00  0.00     0.043 A 
ENDBRANCH   3  18
TORSDOF 3
ENDMDL
MODEL 6
REMARK VINA RESULT:      -7.1      9.743     13.694
REMARK  3 active torsions:
REMARK  status: ('A' for Active; 'I' for Inactive)
REMARK    1  A    between atoms: C_4  and  N_20 
REMARK    2  A    between atoms: C_6  and  C_8 
REMARK       I    between atoms: C_8  and  N_10 
REMARK    3  A    between atoms: N_10  and  C_11 
ROOT
HETATM    1  C   UNK N   1      27.197  18.966   5.482  0.00  0.00     0.256 C 
HETATM    2  O   UNK N   1      28.124  19.619   5.016  0.00  0.00    -0.267 OA
HETATM    3  N   UNK N   1      27.391  18.170   6.568  0.00  0.00    -0.323 N 
HETATM    4  H   UNK N   1      26.616  17.665   6.907  0.00  0.00     0.169 HD
ENDROOT
BRANCH   1   5
HETATM    5  C   UNK N   1      25.874  19.065   4.842  0.00  0.00     0.037 A 
HETATM    6  C   UNK N   1      24.979  18.014   5.021  0.00  0.00     0.046 A 
HETATM    7  C   UNK N   1      23.709  18.022   4.445  0.00  0.00     0.034 A 
HETATM    8  C   UNK N   1      23.328  19.128   3.663  0.00  0.00     0.071 A 
HETATM    9  C   UNK N   1      24.219  20.197   3.474  0.00  0.00     0.119 A 
HETATM   10  F   UNK N   1      23.851  21.257   2.715  0.00  0.00    -0.206 F 
HETATM   11  C   UNK N   1      25.493  20.166   4.060  0.00  0.00     0.059 A 
BRANCH   7  12
HETATM   12  N   UNK N   1      22.847  16.902   4.642  0.00  0.00    -0.377 N 
HETATM   13  C   UNK N   1      22.151  16.309   3.505  0.00  0.00     0.149 C 
HETATM   14  C   UNK N   1      21.419  15.019   3.883  0.00  0.00     0.187 C 
HETATM   15  O   UNK N   1      20.814  15.161   5.136  0.00  0.00    -0.388 OA
HETATM   16  C   UNK N   1      21.874  15.088   6.041  0.00  0.00     0.187 C 
HETATM   17  C   UNK N   1      22.664  16.390   6.001  0.00  0.00     0.149 C 
ENDBRANCH   7  12
ENDBRANCH   1   5
BRANCH   3  18
HETATM   18  C   UNK N   1      28.633  18.010   7.252  0.00  0.00     0.035 A 
HETATM   19  C   UNK N   1      28.936  18.742   8.435  0.00  0.00     0.032 A 
HETATM   20  C   UNK N   1      30.163  18.576   9.095  0.00  0.00     0.033 A 
HETATM   21  C   UNK N   1      31.066  17.675   8.551  0.00  0.00     0.042 A 
HETATM   22  N   UNK N   1      32.284  17.372   9.021  0.00  0.00    -0.365 N 
HETATM   23  C   UNK N   1      30.790  16.968   7.419  0.00  0.00    -0.006 A 
HETATM   24  C   UNK N   1      32.791  16.450   8.164  0.00  0.00     0.089 A 
HETATM   25  H   UNK N   1      32.720  17.743   9.821  0.00  0.00     0.165 HD
HETATM   26  C   UNK N   1      31.875  16.174   7.147  0.00  0.00     0.030 A 
HETATM   27  C   UNK N   1      29.583  17.106   6.739  0.00  0.00     0.043 A 
ENDBRANCH   3  18
TORSDOF 3
ENDMDL
MODEL 7
REMARK VINA RESULT:      -7.0     11.140     15.150
REMARK  3 active torsions:
REMARK  status: ('A' for Active; 'I' for Inactive)
REMARK    1  A    between atoms: C_4  and  N_20 
REMARK    2  A    between atoms: C_6  and  C_8 
REMARK       I    between atoms: C_8  and  N_10 
REMARK    3  A    between atoms: N_10  and  C_11 
ROOT
HETATM    1  C   UNK N   1      25.653  18.678   4.767  0.00  0.00     0.256 C 
HETATM    2  O   UNK N   1      26.486  19.418   4.257  0.00  0.00    -0.267 OA
HETATM    3  N   UNK N   1      26.033  17.716   5.651  0.00  0.00    -0.323 N 
HETATM    4  H   UNK N   1      25.328  17.146   6.036  0.00  0.00     0.169 HD
ENDROOT
BRANCH   1   5
HETATM    5  C   UNK N   1      24.236  18.854   4.404  0.00  0.00     0.037 A 
HETATM    6  C   UNK N   1      23.293  18.050   5.036  0.00  0.00     0.046 A 
HETATM    7  C   UNK N   1      21.932  18.145   4.747  0.00  0.00     0.034 A 
HETATM    8  C   UNK N   1      21.508  19.085   3.790  0.00  0.00     0.071 A 
HETATM    9  C   UNK N   1      22.448  19.906   3.145  0.00  0.00     0.119 A 
HETATM   10  F   UNK N   1      22.036  20.806   2.219  0.00  0.00    -0.206 F 
HETATM   11  C   UNK N   1      23.812  19.790   3.449  0.00  0.00     0.059 A 
BRANCH   7  12
HETATM   12  N   UNK N   1      21.015  17.273   5.407  0.00  0.00    -0.377 N 
HETATM   13  C   UNK N   1      21.128  17.049   6.845  0.00  0.00     0.149 C 
HETATM   14  C   UNK N   1      19.957  16.231   7.397  0.00  0.00     0.187 C 
HETATM   15  O   UNK N   1      19.629  15.204   6.506  0.00  0.00    -0.388 OA
HETATM   16  C   UNK N   1      18.972  15.852   5.459  0.00  0.00     0.187 C 
HETATM   17  C   UNK N   1      19.991  16.599   4.607  0.00  0.00     0.149 C 
ENDBRANCH   7  12
ENDBRANCH   1   5
BRANCH   3  18
HETATM   18  C   UNK N   1      27.378  17.470   6.061  0.00  0.00     0.035 A 
HETATM   19  C   UNK N   1      28.225  16.572   5.353  0.00  0.00     0.032 A 
HETATM   20  C   UNK N   1      29.544  16.337   5.770  0.00  0.00     0.033 A 
HETATM   21  C   UNK N   1      29.988  17.014   6.897  0.00  0.00     0.042 A 
HETATM   22  N   UNK N   1      31.203  16.933   7.458  0.00  0.00    -0.365 N 
HETATM   23  C   UNK N   1      29.189  17.877   7.585  0.00  0.00    -0.006 A 
HETATM   24  C   UNK N   1      31.170  17.766   8.529  0.00  0.00     0.089 A 
HETATM   25  H   UNK N   1      31.960  16.382   7.157  0.00  0.00     0.165 HD
HETATM   26  C   UNK N   1      29.918  18.375   8.635  0.00  0.00     0.030 A 
HETATM   27  C   UNK N   1      27.876  18.134   7.199  0.00  0.00     0.043 A 
ENDBRANCH   3  18
TORSDOF 3
ENDMDL
MODEL 8
REMARK VINA RESULT:      -6.9      2.474      9.087
REMARK  3 active torsions:
REMARK  status: ('A' for Active; 'I' for Inactive)
REMARK    1  A    between atoms: C_4  and  N_20 
REMARK    2  A    between atoms: C_6  and  C_8 
REMARK       I    between atoms: C_8  and  N_10 
REMARK    3  A    between atoms: N_10  and  C_11 
ROOT
HETATM    1  C   UNK N   1      34.932  14.304   8.554  0.00  0.00     0.256 C 
HETATM    2  O   UNK N   1      34.471  13.477   7.777  0.00  0.00    -0.267 OA
HETATM    3  N   UNK N   1      34.586  15.616   8.452  0.00  0.00    -0.323 N 
HETATM    4  H   UNK N   1      34.981  16.243   9.100  0.00  0.00     0.169 HD
ENDROOT
BRANCH   1   5
HETATM    5  C   UNK N   1      35.865  13.847   9.599  0.00  0.00     0.037 A 
HETATM    6  C   UNK N   1      35.351  13.569  10.861  0.00  0.00     0.046 A 
HETATM    7  C   UNK N   1      36.163  13.139  11.909  0.00  0.00     0.034 A 
HETATM    8  C   UNK N   1      37.542  12.983  11.676  0.00  0.00     0.071 A 
HETATM    9  C   UNK N   1      38.077  13.257  10.406  0.00  0.00     0.119 A 
HETATM   10  F   UNK N   1      39.406  13.111  10.187  0.00  0.00    -0.206 F 
HETATM   11  C   UNK N   1      37.240  13.692   9.368  0.00  0.00     0.059 A 
BRANCH   7  12
HETATM   12  N   UNK N   1      35.581  12.897  13.190  0.00  0.00    -0.377 N 
HETATM   13  C   UNK N   1      34.551  11.875  13.342  0.00  0.00     0.149 C 
HETATM   14  C   UNK N   1      34.180  11.641  14.809  0.00  0.00     0.187 C 
HETATM   15  O   UNK N   1      34.125  12.861  15.490  0.00  0.00    -0.388 OA
HETATM   16  C   UNK N   1      35.463  13.224  15.655  0.00  0.00     0.187 C 
HETATM   17  C   UNK N   1      36.024  13.711  14.324  0.00  0.00     0.149 C 
ENDBRANCH   7  12
ENDBRANCH   1   5
BRANCH   3  18
HETATM   18  C   UNK N   1      33.693  16.151   7.476  0.00  0.00     0.035 A 
HETATM   19  C   UNK N   1      34.163  16.684   6.242  0.00  0.00     0.032 A 
HETATM   20  C   UNK N   1      33.274  17.209   5.293  0.00  0.00     0.033 A 
HETATM   21  C   UNK N   1      31.922  17.189   5.603  0.00  0.00     0.042 A 
HETATM   22  N   UNK N   1      30.914  17.638   4.842  0.00  0.00    -0.365 N 
HETATM   23  C   UNK N   1      31.457  16.683   6.780  0.00  0.00    -0.006 A 
HETATM   24  C   UNK N   1      29.783  17.411   5.556  0.00  0.00     0.089 A 
HETATM   25  H   UNK N   1      30.982  18.050   3.951  0.00  0.00     0.165 HD
HETATM   26  C   UNK N   1      30.091  16.810   6.778  0.00  0.00     0.030 A 
HETATM   27  C   UNK N   1      32.311  16.153   7.744  0.00  0.00     0.043 A 
ENDBRANCH   3  18
TORSDOF 3
ENDMDL
MODEL 9
REMARK VINA RESULT:      -6.8     18.679     22.803
REMARK  3 active torsions:
REMARK  status: ('A' for Active; 'I' for Inactive)
REMARK    1  A    between atoms: C_4  and  N_20 
REMARK    2  A    between atoms: C_6  and  C_8 
REMARK       I    between atoms: C_8  and  N_10 
REMARK    3  A    between atoms: N_10  and  C_11 
ROOT
HETATM    1  C   UNK N   1      28.455  23.405  -6.379  0.00  0.00     0.256 C 
HETATM    2  O   UNK N   1      28.404  24.138  -7.359  0.00  0.00    -0.267 OA
HETATM    3  N   UNK N   1      27.861  23.770  -5.210  0.00  0.00    -0.323 N 
HETATM    4  H   UNK N   1      27.929  23.147  -4.451  0.00  0.00     0.169 HD
ENDROOT
BRANCH   1   5
HETATM    5  C   UNK N   1      29.171  22.122  -6.495  0.00  0.00     0.037 A 
HETATM    6  C   UNK N   1      30.275  21.910  -5.674  0.00  0.00     0.046 A 
HETATM    7  C   UNK N   1      31.014  20.729  -5.723  0.00  0.00     0.034 A 
HETATM    8  C   UNK N   1      30.626  19.727  -6.632  0.00  0.00     0.071 A 
HETATM    9  C   UNK N   1      29.514  19.925  -7.466  0.00  0.00     0.119 A 
HETATM   10  F   UNK N   1      29.148  18.959  -8.344  0.00  0.00    -0.206 F 
HETATM   11  C   UNK N   1      28.787  21.122  -7.401  0.00  0.00     0.059 A 
BRANCH   7  12
HETATM   12  N   UNK N   1      32.153  20.582  -4.876  0.00  0.00    -0.377 N 
HETATM   13  C   UNK N   1      32.242  21.346  -3.636  0.00  0.00     0.149 C 
HETATM   14  C   UNK N   1      33.441  20.925  -2.781  0.00  0.00     0.187 C 
HETATM   15  O   UNK N   1      34.553  20.695  -3.597  0.00  0.00    -0.388 OA
HETATM   16  C   UNK N   1      34.281  19.473  -4.215  0.00  0.00     0.187 C 
HETATM   17  C   UNK N   1      33.223  19.676  -5.294  0.00  0.00     0.149 C 
ENDBRANCH   7  12
ENDBRANCH   1   5
BRANCH   3  18
HETATM   18  C   UNK N   1      27.149  24.989  -5.003  0.00  0.00     0.035 A 
HETATM   19  C   UNK N   1      25.848  25.197  -5.541  0.00  0.00     0.032 A 
HETATM   20  C   UNK N   1      25.160  26.402  -5.332  0.00  0.00     0.033 A 
HETATM   21  C   UNK N   1      25.798  27.380  -4.582  0.00  0.00     0.042 A 
HETATM   22  N   UNK N   1      25.321  28.592  -4.268  0.00  0.00    -0.365 N 
HETATM   23  C   UNK N   1      27.043  27.195  -4.061  0.00  0.00    -0.006 A 
HETATM   24  C   UNK N   1      26.290  29.190  -3.530  0.00  0.00     0.089 A 
HETATM   25  H   UNK N   1      24.449  28.971  -4.522  0.00  0.00     0.165 HD
HETATM   26  C   UNK N   1      27.385  28.336  -3.381  0.00  0.00     0.030 A 
HETATM   27  C   UNK N   1      27.753  26.012  -4.248  0.00  0.00     0.043 A 
ENDBRANCH   3  18
TORSDOF 3
ENDMDL
