MODEL 1
REMARK VINA RESULT:      -6.7      0.000      0.000
REMARK  4 active torsions:
REMARK  status: ('A' for Active; 'I' for Inactive)
REMARK    1  A    between atoms: C_3  and  O_6 
REMARK    2  A    between atoms: C_4  and  N_7 
REMARK    3  A    between atoms: O_6  and  C_20 
REMARK    4  A    between atoms: C_14  and  C_20 
ROOT
HETATM    1  O   UNK N   1      34.808  13.325  13.108  0.00  0.00    -0.343 OA
ENDROOT
BRANCH   1   2
HETATM    2  C   UNK N   1      35.471  13.657  11.974  0.00  0.00     0.112 A 
HETATM    3  C   UNK N   1      36.783  13.205  11.838  0.00  0.00     0.042 A 
HETATM    4  C   UNK N   1      37.520  13.512  10.697  0.00  0.00     0.020 A 
HETATM    5  C   UNK N   1      36.931  14.275   9.691  0.00  0.00     0.090 A 
HETATM    6  N   UNK N   1      35.653  14.714   9.825  0.00  0.00    -0.350 N 
HETATM    7  C   UNK N   1      34.906  14.432  10.927  0.00  0.00     0.132 A 
ATOM      8  HN  UNK N   1      35.241  15.272   9.077  1.00  0.00     0.166 HD
BRANCH   7   9
HETATM    9  N   UNK N   1      33.586  14.923  10.995  0.00  0.00    -0.383 N 
HETATM   10  H   UNK N   1      33.088  15.113  10.168  0.00  0.00     0.157 HD
HETATM   11  H   UNK N   1      33.161  15.075  11.871  0.00  0.00     0.157 HD
ENDBRANCH   7   9
ENDBRANCH   1   2
BRANCH   1  12
HETATM   12  C   UNK N   1      35.282  13.488  14.385  0.00  0.00     0.215 C 
BRANCH  12  13
HETATM   13  C   UNK N   1      35.198  12.245  15.226  0.00  0.00    -0.023 A 
HETATM   14  C   UNK N   1      35.200  12.220  16.650  0.00  0.00    -0.018 A 
HETATM   15  C   UNK N   1      35.283  13.390  17.424  0.00  0.00     0.013 A 
HETATM   16  C   UNK N   1      35.116  10.973  17.319  0.00  0.00    -0.025 A 
HETATM   17  C   UNK N   1      35.282  13.330  18.819  0.00  0.00     0.001 A 
HETATM   18  C   UNK N   1      35.199  12.096  19.464  0.00  0.00     0.001 A 
HETATM   19  C   UNK N   1      35.115  10.920  18.715  0.00  0.00     0.012 A 
HETATM   20  C   UNK N   1      35.032   9.788  16.588  0.00  0.00     0.012 A 
HETATM   21  C   UNK N   1      35.030   9.820  15.195  0.00  0.00     0.002 A 
HETATM   22  C   UNK N   1      35.113  11.039  14.524  0.00  0.00     0.010 A 
ENDBRANCH  12  13
ENDBRANCH   1  12
TORSDOF 4
ENDMDL
MODEL 2
REMARK VINA RESULT:      -6.7      1.198      1.665
REMARK  4 active torsions:
REMARK  status: ('A' for Active; 'I' for Inactive)
REMARK    1  A    between atoms: C_3  and  O_6 
REMARK    2  A    between atoms: C_4  and  N_7 
REMARK    3  A    between atoms: O_6  and  C_20 
REMARK    4  A    between atoms: C_14  and  C_20 
ROOT
HETATM    1  O   UNK N   1      34.933  13.161  13.419  0.00  0.00    -0.343 OA
ENDROOT
BRANCH   1   2
HETATM    2  C   UNK N   1      35.592  13.729  12.379  0.00  0.00     0.112 A 
HETATM    3  C   UNK N   1      34.941  14.745  11.681  0.00  0.00     0.042 A 
HETATM    4  C   UNK N   1      35.562  15.369  10.602  0.00  0.00     0.020 A 
HETATM    5  C   UNK N   1      36.843  14.968  10.228  0.00  0.00     0.090 A 
HETATM    6  N   UNK N   1      37.476  13.978  10.910  0.00  0.00    -0.350 N 
HETATM    7  C   UNK N   1      36.897  13.348  11.968  0.00  0.00     0.132 A 
ATOM      8  HN  UNK N   1      38.413  13.699  10.620  1.00  0.00     0.166 HD
BRANCH   7   9
HETATM    9  N   UNK N   1      37.615  12.329  12.627  0.00  0.00    -0.383 N 
HETATM   10  H   UNK N   1      37.170  11.480  12.852  0.00  0.00     0.157 HD
HETATM   11  H   UNK N   1      38.561  12.466  12.862  0.00  0.00     0.157 HD
ENDBRANCH   7   9
ENDBRANCH   1   2
BRANCH   1  12
HETATM   12  C   UNK N   1      35.189  13.393  14.746  0.00  0.00     0.215 C 
BRANCH  12  13
HETATM   13  C   UNK N   1      35.170  12.152  15.593  0.00  0.00    -0.023 A 
HETATM   14  C   UNK N   1      35.182  12.134  17.018  0.00  0.00    -0.018 A 
HETATM   15  C   UNK N   1      35.214  13.310  17.786  0.00  0.00     0.013 A 
HETATM   16  C   UNK N   1      35.162  10.887  17.693  0.00  0.00    -0.025 A 
HETATM   17  C   UNK N   1      35.225  13.257  19.180  0.00  0.00     0.001 A 
HETATM   18  C   UNK N   1      35.205  12.023  19.831  0.00  0.00     0.001 A 
HETATM   19  C   UNK N   1      35.174  10.841  19.089  0.00  0.00     0.012 A 
HETATM   20  C   UNK N   1      35.131   9.696  16.967  0.00  0.00     0.012 A 
HETATM   21  C   UNK N   1      35.119   9.722  15.574  0.00  0.00     0.002 A 
HETATM   22  C   UNK N   1      35.139  10.940  14.897  0.00  0.00     0.010 A 
ENDBRANCH  12  13
ENDBRANCH   1  12
TORSDOF 4
ENDMDL
MODEL 3
REMARK VINA RESULT:      -6.7      9.716     12.533
REMARK  4 active torsions:
REMARK  status: ('A' for Active; 'I' for Inactive)
REMARK    1  A    between atoms: C_3  and  O_6 
REMARK    2  A    between atoms: C_4  and  N_7 
REMARK    3  A    between atoms: O_6  and  C_20 
REMARK    4  A    between atoms: C_14  and  C_20 
ROOT
HETATM    1  O   UNK N   1      28.534  18.716   7.285  0.00  0.00    -0.343 OA
ENDROOT
BRANCH   1   2
HETATM    2  C   UNK N   1      27.825  19.346   6.317  0.00  0.00     0.112 A 
HETATM    3  C   UNK N   1      28.144  19.055   4.991  0.00  0.00     0.042 A 
HETATM    4  C   UNK N   1      27.454  19.668   3.949  0.00  0.00     0.020 A 
HETATM    5  C   UNK N   1      26.439  20.576   4.245  0.00  0.00     0.090 A 
HETATM    6  N   UNK N   1      26.129  20.858   5.536  0.00  0.00    -0.350 N 
HETATM    7  C   UNK N   1      26.784  20.276   6.578  0.00  0.00     0.132 A 
ATOM      8  HN  UNK N   1      25.383  21.525   5.731  1.00  0.00     0.166 HD
BRANCH   7   9
HETATM    9  N   UNK N   1      26.407  20.619   7.893  0.00  0.00    -0.383 N 
HETATM   10  H   UNK N   1      26.540  19.976   8.626  0.00  0.00     0.157 HD
HETATM   11  H   UNK N   1      26.011  21.501   8.078  0.00  0.00     0.157 HD
ENDBRANCH   7   9
ENDBRANCH   1   2
BRANCH   1  12
HETATM   12  C   UNK N   1      29.097  17.471   7.177  0.00  0.00     0.215 C 
BRANCH  12  13
HETATM   13  C   UNK N   1      30.599  17.488   7.111  0.00  0.00    -0.023 A 
HETATM   14  C   UNK N   1      31.368  17.279   5.931  0.00  0.00    -0.018 A 
HETATM   15  C   UNK N   1      30.776  17.029   4.680  0.00  0.00     0.013 A 
HETATM   16  C   UNK N   1      32.783  17.322   6.011  0.00  0.00    -0.025 A 
HETATM   17  C   UNK N   1      31.559  16.828   3.542  0.00  0.00     0.001 A 
HETATM   18  C   UNK N   1      32.951  16.873   3.637  0.00  0.00     0.001 A 
HETATM   19  C   UNK N   1      33.560  17.120   4.868  0.00  0.00     0.012 A 
HETATM   20  C   UNK N   1      33.410  17.567   7.233  0.00  0.00     0.012 A 
HETATM   21  C   UNK N   1      32.651  17.771   8.383  0.00  0.00     0.002 A 
HETATM   22  C   UNK N   1      31.259  17.731   8.319  0.00  0.00     0.010 A 
ENDBRANCH  12  13
ENDBRANCH   1  12
TORSDOF 4
ENDMDL
MODEL 4
REMARK VINA RESULT:      -6.5      9.189     11.985
REMARK  4 active torsions:
REMARK  status: ('A' for Active; 'I' for Inactive)
REMARK    1  A    between atoms: C_3  and  O_6 
REMARK    2  A    between atoms: C_4  and  N_7 
REMARK    3  A    between atoms: O_6  and  C_20 
REMARK    4  A    between atoms: C_14  and  C_20 
ROOT
HETATM    1  O   UNK N   1      28.686  17.366   6.507  0.00  0.00    -0.343 OA
ENDROOT
BRANCH   1   2
HETATM    2  C   UNK N   1      28.073  18.556   6.297  0.00  0.00     0.112 A 
HETATM    3  C   UNK N   1      27.976  19.008   4.981  0.00  0.00     0.042 A 
HETATM    4  C   UNK N   1      27.357  20.223   4.697  0.00  0.00     0.020 A 
HETATM    5  C   UNK N   1      26.836  20.983   5.742  0.00  0.00     0.090 A 
HETATM    6  N   UNK N   1      26.931  20.541   7.022  0.00  0.00    -0.350 N 
HETATM    7  C   UNK N   1      27.529  19.359   7.334  0.00  0.00     0.132 A 
ATOM      8  HN  UNK N   1      26.543  21.113   7.772  1.00  0.00     0.166 HD
BRANCH   7   9
HETATM    9  N   UNK N   1      27.591  18.966   8.687  0.00  0.00    -0.383 N 
HETATM   10  H   UNK N   1      28.130  19.485   9.326  0.00  0.00     0.157 HD
HETATM   11  H   UNK N   1      27.094  18.172   8.992  0.00  0.00     0.157 HD
ENDBRANCH   7   9
ENDBRANCH   1   2
BRANCH   1  12
HETATM   12  C   UNK N   1      29.273  16.591   5.540  0.00  0.00     0.215 C 
BRANCH  12  13
HETATM   13  C   UNK N   1      30.719  16.919   5.295  0.00  0.00    -0.023 A 
HETATM   14  C   UNK N   1      31.686  17.167   6.312  0.00  0.00    -0.018 A 
HETATM   15  C   UNK N   1      31.367  17.126   7.680  0.00  0.00     0.013 A 
HETATM   16  C   UNK N   1      33.020  17.466   5.938  0.00  0.00    -0.025 A 
HETATM   17  C   UNK N   1      32.339  17.373   8.651  0.00  0.00     0.001 A 
HETATM   18  C   UNK N   1      33.648  17.667   8.269  0.00  0.00     0.001 A 
HETATM   19  C   UNK N   1      33.988  17.713   6.915  0.00  0.00     0.012 A 
HETATM   20  C   UNK N   1      33.378  17.516   4.591  0.00  0.00     0.012 A 
HETATM   21  C   UNK N   1      32.427  17.273   3.602  0.00  0.00     0.002 A 
HETATM   22  C   UNK N   1      31.111  16.977   3.954  0.00  0.00     0.010 A 
ENDBRANCH  12  13
ENDBRANCH   1  12
TORSDOF 4
ENDMDL
MODEL 5
REMARK VINA RESULT:      -6.5      1.601      2.833
REMARK  4 active torsions:
REMARK  status: ('A' for Active; 'I' for Inactive)
REMARK    1  A    between atoms: C_3  and  O_6 
REMARK    2  A    between atoms: C_4  and  N_7 
REMARK    3  A    between atoms: O_6  and  C_20 
REMARK    4  A    between atoms: C_14  and  C_20 
ROOT
HETATM    1  O   UNK N   1      34.747  12.878  13.946  0.00  0.00    -0.343 OA
ENDROOT
BRANCH   1   2
HETATM    2  C   UNK N   1      35.764  12.711  13.067  0.00  0.00     0.112 A 
HETATM    3  C   UNK N   1      36.039  11.413  12.639  0.00  0.00     0.042 A 
HETATM    4  C   UNK N   1      37.071  11.172  11.735  0.00  0.00     0.020 A 
HETATM    5  C   UNK N   1      37.828  12.243  11.264  0.00  0.00     0.090 A 
HETATM    6  N   UNK N   1      37.559  13.507  11.683  0.00  0.00    -0.350 N 
HETATM    7  C   UNK N   1      36.557  13.776  12.564  0.00  0.00     0.132 A 
ATOM      8  HN  UNK N   1      38.124  14.277  11.326  1.00  0.00     0.166 HD
BRANCH   7   9
HETATM    9  N   UNK N   1      36.337  15.114  12.953  0.00  0.00    -0.383 N 
HETATM   10  H   UNK N   1      35.469  15.378  13.334  0.00  0.00     0.157 HD
HETATM   11  H   UNK N   1      37.051  15.782  12.843  0.00  0.00     0.157 HD
ENDBRANCH   7   9
ENDBRANCH   1   2
BRANCH   1  12
HETATM   12  C   UNK N   1      34.242  11.908  14.774  0.00  0.00     0.215 C 
BRANCH  12  13
HETATM   13  C   UNK N   1      34.672  12.050  16.208  0.00  0.00    -0.023 A 
HETATM   14  C   UNK N   1      35.031  10.970  17.064  0.00  0.00    -0.018 A 
HETATM   15  C   UNK N   1      35.017   9.631  16.635  0.00  0.00     0.013 A 
HETATM   16  C   UNK N   1      35.419  11.247  18.399  0.00  0.00    -0.025 A 
HETATM   17  C   UNK N   1      35.375   8.596  17.500  0.00  0.00     0.001 A 
HETATM   18  C   UNK N   1      35.755   8.884  18.812  0.00  0.00     0.001 A 
HETATM   19  C   UNK N   1      35.776  10.206  19.260  0.00  0.00     0.012 A 
HETATM   20  C   UNK N   1      35.446  12.562  18.864  0.00  0.00     0.012 A 
HETATM   21  C   UNK N   1      35.093  13.613  18.021  0.00  0.00     0.002 A 
HETATM   22  C   UNK N   1      34.710  13.355  16.705  0.00  0.00     0.010 A 
ENDBRANCH  12  13
ENDBRANCH   1  12
TORSDOF 4
ENDMDL
MODEL 6
REMARK VINA RESULT:      -6.5      9.983     12.582
REMARK  4 active torsions:
REMARK  status: ('A' for Active; 'I' for Inactive)
REMARK    1  A    between atoms: C_3  and  O_6 
REMARK    2  A    between atoms: C_4  and  N_7 
REMARK    3  A    between atoms: O_6  and  C_20 
REMARK    4  A    between atoms: C_14  and  C_20 
ROOT
HETATM    1  O   UNK N   1      28.403  17.586   3.863  0.00  0.00    -0.343 OA
ENDROOT
BRANCH   1   2
HETATM    2  C   UNK N   1      27.664  18.512   4.519  0.00  0.00     0.112 A 
HETATM    3  C   UNK N   1      28.273  19.732   4.814  0.00  0.00     0.042 A 
HETATM    4  C   UNK N   1      27.568  20.727   5.487  0.00  0.00     0.020 A 
HETATM    5  C   UNK N   1      26.247  20.491   5.863  0.00  0.00     0.090 A 
HETATM    6  N   UNK N   1      25.656  19.302   5.576  0.00  0.00    -0.350 N 
HETATM    7  C   UNK N   1      26.317  18.309   4.919  0.00  0.00     0.132 A 
ATOM      8  HN  UNK N   1      24.689  19.150   5.860  1.00  0.00     0.166 HD
BRANCH   7   9
HETATM    9  N   UNK N   1      25.638  17.102   4.655  0.00  0.00    -0.383 N 
HETATM   10  H   UNK N   1      24.813  17.109   4.117  0.00  0.00     0.157 HD
HETATM   11  H   UNK N   1      25.988  16.252   5.009  0.00  0.00     0.157 HD
ENDBRANCH   7   9
ENDBRANCH   1   2
BRANCH   1  12
HETATM   12  C   UNK N   1      29.105  16.564   4.450  0.00  0.00     0.215 C 
BRANCH  12  13
HETATM   13  C   UNK N   1      30.568  16.858   4.630  0.00  0.00    -0.023 A 
HETATM   14  C   UNK N   1      31.196  17.158   5.873  0.00  0.00    -0.018 A 
HETATM   15  C   UNK N   1      30.483  17.210   7.083  0.00  0.00     0.013 A 
HETATM   16  C   UNK N   1      32.589  17.416   5.898  0.00  0.00    -0.025 A 
HETATM   17  C   UNK N   1      31.129  17.508   8.284  0.00  0.00     0.001 A 
HETATM   18  C   UNK N   1      32.501  17.759   8.294  0.00  0.00     0.001 A 
HETATM   19  C   UNK N   1      33.229  17.713   7.104  0.00  0.00     0.012 A 
HETATM   20  C   UNK N   1      33.333  17.375   4.719  0.00  0.00     0.012 A 
HETATM   21  C   UNK N   1      32.712  17.080   3.507  0.00  0.00     0.002 A 
HETATM   22  C   UNK N   1      31.343  16.824   3.467  0.00  0.00     0.010 A 
ENDBRANCH  12  13
ENDBRANCH   1  12
TORSDOF 4
ENDMDL
MODEL 7
REMARK VINA RESULT:      -6.4      2.005      3.597
REMARK  4 active torsions:
REMARK  status: ('A' for Active; 'I' for Inactive)
REMARK    1  A    between atoms: C_3  and  O_6 
REMARK    2  A    between atoms: C_4  and  N_7 
REMARK    3  A    between atoms: O_6  and  C_20 
REMARK    4  A    between atoms: C_14  and  C_20 
ROOT
HETATM    1  O   UNK N   1      34.163  14.572  11.470  0.00  0.00    -0.343 OA
ENDROOT
BRANCH   1   2
HETATM    2  C   UNK N   1      34.021  15.118  10.238  0.00  0.00     0.112 A 
HETATM    3  C   UNK N   1      33.334  14.374   9.279  0.00  0.00     0.042 A 
HETATM    4  C   UNK N   1      33.153  14.878   7.993  0.00  0.00     0.020 A 
HETATM    5  C   UNK N   1      33.666  16.134   7.674  0.00  0.00     0.090 A 
HETATM    6  N   UNK N   1      34.335  16.856   8.610  0.00  0.00    -0.350 N 
HETATM    7  C   UNK N   1      34.529  16.393   9.875  0.00  0.00     0.132 A 
ATOM      8  HN  UNK N   1      34.702  17.773   8.357  1.00  0.00     0.166 HD
BRANCH   7   9
HETATM    9  N   UNK N   1      35.233  17.200  10.792  0.00  0.00    -0.383 N 
HETATM   10  H   UNK N   1      35.487  16.839  11.672  0.00  0.00     0.157 HD
HETATM   11  H   UNK N   1      35.470  18.126  10.553  0.00  0.00     0.157 HD
ENDBRANCH   7   9
ENDBRANCH   1   2
BRANCH   1  12
HETATM   12  C   UNK N   1      34.950  13.491  11.776  0.00  0.00     0.215 C 
BRANCH  12  13
HETATM   13  C   UNK N   1      35.447  13.486  13.195  0.00  0.00    -0.023 A 
HETATM   14  C   UNK N   1      35.125  12.499  14.171  0.00  0.00    -0.018 A 
HETATM   15  C   UNK N   1      34.287  11.407  13.889  0.00  0.00     0.013 A 
HETATM   16  C   UNK N   1      35.666  12.617  15.476  0.00  0.00    -0.025 A 
HETATM   17  C   UNK N   1      33.991  10.458  14.869  0.00  0.00     0.001 A 
HETATM   18  C   UNK N   1      34.531  10.586  16.150  0.00  0.00     0.001 A 
HETATM   19  C   UNK N   1      35.366  11.663  16.452  0.00  0.00     0.012 A 
HETATM   20  C   UNK N   1      36.502  13.686  15.796  0.00  0.00     0.012 A 
HETATM   21  C   UNK N   1      36.813  14.647  14.836  0.00  0.00     0.002 A 
HETATM   22  C   UNK N   1      36.288  14.545  13.549  0.00  0.00     0.010 A 
ENDBRANCH  12  13
ENDBRANCH   1  12
TORSDOF 4
ENDMDL
MODEL 8
REMARK VINA RESULT:      -6.4     22.493     26.031
REMARK  4 active torsions:
REMARK  status: ('A' for Active; 'I' for Inactive)
REMARK    1  A    between atoms: C_3  and  O_6 
REMARK    2  A    between atoms: C_4  and  N_7 
REMARK    3  A    between atoms: O_6  and  C_20 
REMARK    4  A    between atoms: C_14  and  C_20 
ROOT
HETATM    1  O   UNK N   1      25.564  24.760  -5.867  0.00  0.00    -0.343 OA
ENDROOT
BRANCH   1   2
HETATM    2  C   UNK N   1      26.612  24.325  -5.126  0.00  0.00     0.112 A 
HETATM    3  C   UNK N   1      26.559  24.535  -3.748  0.00  0.00     0.042 A 
HETATM    4  C   UNK N   1      27.603  24.112  -2.930  0.00  0.00     0.020 A 
HETATM    5  C   UNK N   1      28.703  23.477  -3.503  0.00  0.00     0.090 A 
HETATM    6  N   UNK N   1      28.753  23.273  -4.844  0.00  0.00    -0.350 N 
HETATM    7  C   UNK N   1      27.750  23.674  -5.672  0.00  0.00     0.132 A 
ATOM      8  HN  UNK N   1      29.567  22.806  -5.243  1.00  0.00     0.166 HD
BRANCH   7   9
HETATM    9  N   UNK N   1      27.872  23.428  -7.055  0.00  0.00    -0.383 N 
HETATM   10  H   UNK N   1      28.022  24.176  -7.676  0.00  0.00     0.157 HD
HETATM   11  H   UNK N   1      27.808  22.508  -7.399  0.00  0.00     0.157 HD
ENDBRANCH   7   9
ENDBRANCH   1   2
BRANCH   1  12
HETATM   12  C   UNK N   1      25.118  26.055  -5.932  0.00  0.00     0.215 C 
BRANCH  12  13
HETATM   13  C   UNK N   1      26.185  27.047  -6.303  0.00  0.00    -0.023 A 
HETATM   14  C   UNK N   1      26.569  28.169  -5.514  0.00  0.00    -0.018 A 
HETATM   15  C   UNK N   1      25.967  28.462  -4.278  0.00  0.00     0.013 A 
HETATM   16  C   UNK N   1      27.594  29.027  -5.986  0.00  0.00    -0.025 A 
HETATM   17  C   UNK N   1      26.367  29.570  -3.530  0.00  0.00     0.001 A 
HETATM   18  C   UNK N   1      27.378  30.406  -4.007  0.00  0.00     0.001 A 
HETATM   19  C   UNK N   1      27.990  30.134  -5.232  0.00  0.00     0.012 A 
HETATM   20  C   UNK N   1      28.217  28.772  -7.208  0.00  0.00     0.012 A 
HETATM   21  C   UNK N   1      27.836  27.672  -7.974  0.00  0.00     0.002 A 
HETATM   22  C   UNK N   1      26.829  26.820  -7.523  0.00  0.00     0.010 A 
ENDBRANCH  12  13
ENDBRANCH   1  12
TORSDOF 4
ENDMDL
MODEL 9
REMARK VINA RESULT:      -6.3      5.730      9.769
REMARK  4 active torsions:
REMARK  status: ('A' for Active; 'I' for Inactive)
REMARK    1  A    between atoms: C_3  and  O_6 
REMARK    2  A    between atoms: C_4  and  N_7 
REMARK    3  A    between atoms: O_6  and  C_20 
REMARK    4  A    between atoms: C_14  and  C_20 
ROOT
HETATM    1  O   UNK N   1      33.448  15.906   7.591  0.00  0.00    -0.343 OA
ENDROOT
BRANCH   1   2
HETATM    2  C   UNK N   1      33.864  15.659   8.856  0.00  0.00     0.112 A 
HETATM    3  C   UNK N   1      34.790  16.540   9.414  0.00  0.00     0.042 A 
HETATM    4  C   UNK N   1      35.258  16.343  10.711  0.00  0.00     0.020 A 
HETATM    5  C   UNK N   1      34.792  15.255  11.445  0.00  0.00     0.090 A 
HETATM    6  N   UNK N   1      33.890  14.398  10.901  0.00  0.00    -0.350 N 
HETATM    7  C   UNK N   1      33.412  14.562   9.637  0.00  0.00     0.132 A 
ATOM      8  HN  UNK N   1      33.561  13.608  11.455  1.00  0.00     0.166 HD
BRANCH   7   9
HETATM    9  N   UNK N   1      32.478  13.631   9.138  0.00  0.00    -0.383 N 
HETATM   10  H   UNK N   1      32.048  13.784   8.266  0.00  0.00     0.157 HD
HETATM   11  H   UNK N   1      32.254  12.829   9.663  0.00  0.00     0.157 HD
ENDBRANCH   7   9
ENDBRANCH   1   2
BRANCH   1  12
HETATM   12  C   UNK N   1      33.105  17.136   7.091  0.00  0.00     0.215 C 
BRANCH  12  13
HETATM   13  C   UNK N   1      31.671  17.235   6.650  0.00  0.00    -0.023 A 
HETATM   14  C   UNK N   1      30.582  17.609   7.488  0.00  0.00    -0.018 A 
HETATM   15  C   UNK N   1      30.752  17.930   8.846  0.00  0.00     0.013 A 
HETATM   16  C   UNK N   1      29.275  17.661   6.940  0.00  0.00    -0.025 A 
HETATM   17  C   UNK N   1      29.662  18.293   9.639  0.00  0.00     0.001 A 
HETATM   18  C   UNK N   1      28.382  18.340   9.086  0.00  0.00     0.001 A 
HETATM   19  C   UNK N   1      28.190  18.025   7.740  0.00  0.00     0.012 A 
HETATM   20  C   UNK N   1      29.064  17.349   5.597  0.00  0.00     0.012 A 
HETATM   21  C   UNK N   1      30.135  16.985   4.784  0.00  0.00     0.002 A 
HETATM   22  C   UNK N   1      31.425  16.929   5.309  0.00  0.00     0.010 A 
ENDBRANCH  12  13
ENDBRANCH   1  12
TORSDOF 4
ENDMDL
