REMARK  4 active torsions:
REMARK  status: ('A' for Active; 'I' for Inactive)
REMARK    1  A    between atoms: C_3  and  O_6 
REMARK    2  A    between atoms: C_4  and  N_7 
REMARK    3  A    between atoms: O_6  and  C_20 
REMARK    4  A    between atoms: C_14  and  C_20 
ROOT
HETATM    1  O   UNK N   1       0.338  -0.975  -0.000  0.00  0.00    -0.343 OA
ENDROOT
BRANCH   1   2
HETATM    2  C   UNK N   1       0.587  -2.307  -0.000  0.00  0.00     0.112 A 
HETATM    3  C   UNK N   1      -0.510  -3.168  -0.000  0.00  0.00     0.042 A 
HETATM    4  C   UNK N   1      -0.323  -4.548   0.000  0.00  0.00     0.020 A 
HETATM    5  C   UNK N   1       0.973  -5.060   0.000  0.00  0.00     0.090 A 
HETATM    6  N   UNK N   1       2.040  -4.220   0.000  0.00  0.00    -0.350 N 
HETATM    7  C   UNK N   1       1.892  -2.867  -0.000  0.00  0.00     0.132 A 
ATOM      8  HN  UNK N   1       2.980  -4.615   0.000  1.00  0.00     0.166 HD
BRANCH   7   9
HETATM    9  N   UNK N   1       3.047  -2.058  -0.000  0.00  0.00    -0.383 N 
HETATM   10  H   UNK N   1       3.939  -2.474  -0.000  0.00  0.00     0.157 HD
HETATM   11  H   UNK N   1       2.961  -1.077  -0.000  0.00  0.00     0.157 HD
ENDBRANCH   7   9
ENDBRANCH   1   2
BRANCH   1  12
HETATM   12  C   UNK N   1       1.289   0.013   0.000  0.00  0.00     0.215 C 
BRANCH  12  13
HETATM   13  C   UNK N   1       0.719   1.404   0.000  0.00  0.00    -0.023 A 
HETATM   14  C   UNK N   1      -0.670   1.719   0.000  0.00  0.00    -0.018 A 
HETATM   15  C   UNK N   1      -1.667   0.728   0.000  0.00  0.00     0.013 A 
HETATM   16  C   UNK N   1      -1.070   3.079  -0.000  0.00  0.00    -0.025 A 
HETATM   17  C   UNK N   1      -3.020   1.071   0.000  0.00  0.00     0.001 A 
HETATM   18  C   UNK N   1      -3.399   2.414  -0.000  0.00  0.00     0.001 A 
HETATM   19  C   UNK N   1      -2.426   3.415  -0.000  0.00  0.00     0.012 A 
HETATM   20  C   UNK N   1      -0.112   4.093  -0.000  0.00  0.00     0.012 A 
HETATM   21  C   UNK N   1       1.245   3.777   0.000  0.00  0.00     0.002 A 
HETATM   22  C   UNK N   1       1.653   2.444   0.000  0.00  0.00     0.010 A 
ENDBRANCH  12  13
ENDBRANCH   1  12
TORSDOF 4
