MODEL 1
REMARK VINA RESULT:      -8.2      0.000      0.000
REMARK  6 active torsions:
REMARK  status: ('A' for Active; 'I' for Inactive)
REMARK    1  A    between atoms: N_1  and  S_29 
REMARK    2  A    between atoms: C_4  and  N_7 
REMARK       I    between atoms: N_7  and  C_8 
REMARK    3  A    between atoms: C_12  and  C_16 
REMARK    4  A    between atoms: C_13  and  N_28 
REMARK    5  A    between atoms: C_16  and  C_18 
REMARK    6  A    between atoms: C_23  and  O_24 
ROOT
HETATM    1  N   UNK N   1      33.533  16.058   9.455  0.00  0.00    -0.221 N 
HETATM    2  C   UNK N   1      34.164  15.411  10.538  0.00  0.00     0.679 A 
HETATM    3  N   UNK N   1      35.056  16.086  11.303  0.00  0.00    -0.201 N 
ATOM      4  HN  UNK N   1      35.194  17.086  11.160  1.00  0.00     0.183 HD
HETATM    5  C   UNK N   1      35.767  15.437  12.256  0.00  0.00     0.125 A 
HETATM    6  C   UNK N   1      35.628  14.055  12.423  0.00  0.00     0.075 A 
HETATM    7  C   UNK N   1      34.745  13.371  11.579  0.00  0.00     0.130 A 
HETATM    8  N   UNK N   1      34.021  14.069  10.667  0.00  0.00    -0.176 N 
ATOM      9  HN  UNK N   1      33.360  13.575  10.068  1.00  0.00     0.186 HD
HETATM   10  H   UNK N   1      32.550  16.096   9.415  0.00  0.00     0.178 HD
ENDROOT
BRANCH   1  11
HETATM   11  C   UNK N   1      34.316  16.664   8.404  0.00  0.00     0.101 C 
HETATM   12  C   UNK N   1      34.929  15.536   7.523  0.00  0.00     0.041 C 
HETATM   13  C   UNK N   1      34.706  15.663   6.026  0.00  0.00     0.109 C 
HETATM   14  N   UNK N   1      33.355  16.147   5.781  0.00  0.00    -0.211 NA
HETATM   15  C   UNK N   1      33.430  17.555   6.161  0.00  0.00     0.109 C 
HETATM   16  C   UNK N   1      33.383  17.651   7.680  0.00  0.00     0.041 C 
BRANCH  14  17
HETATM   17  S   UNK N   1      32.981  15.974   4.042  0.00  0.00     0.207 S 
HETATM   18  C   UNK N   1      31.639  16.747   3.101  0.00  0.00     0.180 C 
HETATM   19  O   UNK N   1      31.586  15.731   4.649  0.00  0.00    -0.212 OA
HETATM   20  O   UNK N   1      33.042  17.510   4.111  0.00  0.00    -0.212 OA
ENDBRANCH  14  17
ENDBRANCH   1  11
BRANCH   7  21
HETATM   21  N   UNK N   1      34.549  11.980  11.697  0.00  0.00    -0.384 N 
HETATM   22  H   UNK N   1      34.724  11.179  11.151  0.00  0.00     0.157 HD
HETATM   23  H   UNK N   1      34.127  11.747  12.555  0.00  0.00     0.157 HD
ENDBRANCH   7  21
BRANCH   6  24
HETATM   24  C   UNK N   1      36.392  13.377  13.494  0.00  0.00     0.203 C 
HETATM   25  O   UNK N   1      37.346  12.671  13.199  0.00  0.00    -0.286 OA
BRANCH  24  26
HETATM   26  C   UNK N   1      35.992  13.537  14.925  0.00  0.00     0.090 A 
HETATM   27  C   UNK N   1      36.638  14.489  15.743  0.00  0.00     0.171 A 
HETATM   28  C   UNK N   1      36.266  14.631  17.085  0.00  0.00     0.156 A 
HETATM   29  F   UNK N   1      37.609  15.292  15.238  0.00  0.00    -0.202 F 
HETATM   30  C   UNK N   1      35.265  13.831  17.629  0.00  0.00     0.048 A 
HETATM   31  F   UNK N   1      36.875  15.556  17.864  0.00  0.00    -0.203 F 
HETATM   32  C   UNK N   1      34.635  12.870  16.845  0.00  0.00     0.041 A 
HETATM   33  C   UNK N   1      34.987  12.705  15.499  0.00  0.00     0.085 A 
BRANCH  33  34
HETATM   34  O   UNK N   1      34.408  11.721  14.764  0.00  0.00    -0.355 OA
HETATM   35  C   UNK N   1      34.175  10.444  15.221  0.00  0.00     0.210 C 
ENDBRANCH  33  34
ENDBRANCH  24  26
ENDBRANCH   6  24
TORSDOF 6
ENDMDL
MODEL 2
REMARK VINA RESULT:      -7.7      4.351      9.590
REMARK  6 active torsions:
REMARK  status: ('A' for Active; 'I' for Inactive)
REMARK    1  A    between atoms: N_1  and  S_29 
REMARK    2  A    between atoms: C_4  and  N_7 
REMARK       I    between atoms: N_7  and  C_8 
REMARK    3  A    between atoms: C_12  and  C_16 
REMARK    4  A    between atoms: C_13  and  N_28 
REMARK    5  A    between atoms: C_16  and  C_18 
REMARK    6  A    between atoms: C_23  and  O_24 
ROOT
HETATM    1  N   UNK N   1      35.418  13.027  10.481  0.00  0.00    -0.221 N 
HETATM    2  C   UNK N   1      34.710  14.037   9.797  0.00  0.00     0.679 A 
HETATM    3  N   UNK N   1      35.378  14.929   9.026  0.00  0.00    -0.201 N 
ATOM      4  HN  UNK N   1      36.377  14.808   8.859  1.00  0.00     0.183 HD
HETATM    5  C   UNK N   1      34.726  15.981   8.477  0.00  0.00     0.125 A 
HETATM    6  C   UNK N   1      33.368  16.188   8.745  0.00  0.00     0.075 A 
HETATM    7  C   UNK N   1      32.715  15.287   9.593  0.00  0.00     0.130 A 
HETATM    8  N   UNK N   1      33.398  14.223  10.086  0.00  0.00    -0.176 N 
ATOM      9  HN  UNK N   1      32.917  13.552  10.684  1.00  0.00     0.186 HD
HETATM   10  H   UNK N   1      35.187  12.082  10.331  0.00  0.00     0.178 HD
ENDROOT
BRANCH   1  11
HETATM   11  C   UNK N   1      36.477  13.368  11.401  0.00  0.00     0.101 C 
HETATM   12  C   UNK N   1      35.955  14.454  12.386  0.00  0.00     0.041 C 
HETATM   13  C   UNK N   1      36.158  14.166  13.864  0.00  0.00     0.109 C 
HETATM   14  N   UNK N   1      35.914  12.753  14.116  0.00  0.00    -0.211 NA
HETATM   15  C   UNK N   1      37.095  12.105  13.553  0.00  0.00     0.109 C 
HETATM   16  C   UNK N   1      36.942  12.046  12.039  0.00  0.00     0.041 C 
BRANCH  14  17
HETATM   17  S   UNK N   1      35.819  12.485  15.881  0.00  0.00     0.207 S 
HETATM   18  C   UNK N   1      35.304  13.652  17.167  0.00  0.00     0.180 C 
HETATM   19  O   UNK N   1      36.593  13.817  15.847  0.00  0.00    -0.212 OA
HETATM   20  O   UNK N   1      34.387  12.996  15.651  0.00  0.00    -0.212 OA
ENDBRANCH  14  17
ENDBRANCH   1  11
BRANCH   7  21
HETATM   21  N   UNK N   1      31.346  15.431   9.899  0.00  0.00    -0.384 N 
HETATM   22  H   UNK N   1      30.587  14.837  10.103  0.00  0.00     0.157 HD
HETATM   23  H   UNK N   1      31.078  16.377   9.912  0.00  0.00     0.157 HD
ENDBRANCH   7  21
BRANCH   6  24
HETATM   24  C   UNK N   1      32.673  17.327   8.104  0.00  0.00     0.203 C 
HETATM   25  O   UNK N   1      32.584  18.390   8.701  0.00  0.00    -0.286 OA
BRANCH  24  26
HETATM   26  C   UNK N   1      32.065  17.176   6.747  0.00  0.00     0.090 A 
HETATM   27  C   UNK N   1      32.856  17.347   5.590  0.00  0.00     0.171 A 
HETATM   28  C   UNK N   1      32.284  17.212   4.320  0.00  0.00     0.156 A 
HETATM   29  F   UNK N   1      34.182  17.622   5.691  0.00  0.00    -0.202 F 
HETATM   30  C   UNK N   1      30.930  16.918   4.184  0.00  0.00     0.048 A 
HETATM   31  F   UNK N   1      33.047  17.360   3.212  0.00  0.00    -0.203 F 
HETATM   32  C   UNK N   1      30.129  16.772   5.312  0.00  0.00     0.041 A 
HETATM   33  C   UNK N   1      30.675  16.902   6.596  0.00  0.00     0.085 A 
BRANCH  33  34
HETATM   34  O   UNK N   1      29.869  16.819   7.686  0.00  0.00    -0.355 OA
HETATM   35  C   UNK N   1      28.933  17.765   8.035  0.00  0.00     0.210 C 
ENDBRANCH  33  34
ENDBRANCH  24  26
ENDBRANCH   6  24
TORSDOF 6
ENDMDL
MODEL 3
REMARK VINA RESULT:      -7.6      5.429     10.355
REMARK  6 active torsions:
REMARK  status: ('A' for Active; 'I' for Inactive)
REMARK    1  A    between atoms: N_1  and  S_29 
REMARK    2  A    between atoms: C_4  and  N_7 
REMARK       I    between atoms: N_7  and  C_8 
REMARK    3  A    between atoms: C_12  and  C_16 
REMARK    4  A    between atoms: C_13  and  N_28 
REMARK    5  A    between atoms: C_16  and  C_18 
REMARK    6  A    between atoms: C_23  and  O_24 
ROOT
HETATM    1  N   UNK N   1      33.708  17.294   8.760  0.00  0.00    -0.221 N 
HETATM    2  C   UNK N   1      32.410  17.422   8.225  0.00  0.00     0.679 A 
HETATM    3  N   UNK N   1      31.358  17.658   9.046  0.00  0.00    -0.201 N 
ATOM      4  HN  UNK N   1      31.519  17.844  10.036  1.00  0.00     0.183 HD
HETATM    5  C   UNK N   1      30.094  17.645   8.559  0.00  0.00     0.125 A 
HETATM    6  C   UNK N   1      29.859  17.334   7.215  0.00  0.00     0.075 A 
HETATM    7  C   UNK N   1      30.957  17.035   6.401  0.00  0.00     0.130 A 
HETATM    8  N   UNK N   1      32.209  17.102   6.922  0.00  0.00    -0.176 N 
ATOM      9  HN  UNK N   1      33.011  16.908   6.324  1.00  0.00     0.186 HD
HETATM   10  H   UNK N   1      34.429  17.884   8.440  0.00  0.00     0.178 HD
ENDROOT
BRANCH   1  11
HETATM   11  C   UNK N   1      33.991  16.306   9.774  0.00  0.00     0.101 C 
HETATM   12  C   UNK N   1      33.825  14.889   9.151  0.00  0.00     0.041 C 
HETATM   13  C   UNK N   1      34.988  13.933   9.351  0.00  0.00     0.109 C 
HETATM   14  N   UNK N   1      36.240  14.664   9.215  0.00  0.00    -0.211 NA
HETATM   15  C   UNK N   1      36.312  15.436  10.453  0.00  0.00     0.109 C 
HETATM   16  C   UNK N   1      35.387  16.639  10.330  0.00  0.00     0.041 C 
BRANCH  14  17
HETATM   17  S   UNK N   1      37.589  13.496   9.112  0.00  0.00     0.207 S 
HETATM   18  C   UNK N   1      38.816  13.084  10.380  0.00  0.00     0.180 C 
HETATM   19  O   UNK N   1      38.331  14.725   9.670  0.00  0.00    -0.212 OA
HETATM   20  O   UNK N   1      36.930  12.970  10.398  0.00  0.00    -0.212 OA
ENDBRANCH  14  17
ENDBRANCH   1  11
BRANCH   7  21
HETATM   21  N   UNK N   1      30.793  16.721   5.037  0.00  0.00    -0.384 N 
HETATM   22  H   UNK N   1      31.243  16.154   4.368  0.00  0.00     0.157 HD
HETATM   23  H   UNK N   1      30.022  17.194   4.649  0.00  0.00     0.157 HD
ENDBRANCH   7  21
BRANCH   6  24
HETATM   24  C   UNK N   1      28.470  17.360   6.702  0.00  0.00     0.203 C 
HETATM   25  O   UNK N   1      27.758  16.376   6.841  0.00  0.00    -0.286 OA
BRANCH  24  26
HETATM   26  C   UNK N   1      27.946  18.572   6.001  0.00  0.00     0.090 A 
HETATM   27  C   UNK N   1      27.514  19.692   6.743  0.00  0.00     0.171 A 
HETATM   28  C   UNK N   1      27.016  20.823   6.085  0.00  0.00     0.156 A 
HETATM   29  F   UNK N   1      27.595  19.699   8.099  0.00  0.00    -0.202 F 
HETATM   30  C   UNK N   1      26.933  20.850   4.696  0.00  0.00     0.048 A 
HETATM   31  F   UNK N   1      26.619  21.903   6.797  0.00  0.00    -0.203 F 
HETATM   32  C   UNK N   1      27.329  19.746   3.949  0.00  0.00     0.041 A 
HETATM   33  C   UNK N   1      27.830  18.600   4.581  0.00  0.00     0.085 A 
BRANCH  33  34
HETATM   34  O   UNK N   1      28.155  17.507   3.844  0.00  0.00    -0.355 OA
HETATM   35  C   UNK N   1      27.239  16.618   3.329  0.00  0.00     0.210 C 
ENDBRANCH  33  34
ENDBRANCH  24  26
ENDBRANCH   6  24
TORSDOF 6
ENDMDL
MODEL 4
REMARK VINA RESULT:      -7.4      4.344     10.101
REMARK  6 active torsions:
REMARK  status: ('A' for Active; 'I' for Inactive)
REMARK    1  A    between atoms: N_1  and  S_29 
REMARK    2  A    between atoms: C_4  and  N_7 
REMARK       I    between atoms: N_7  and  C_8 
REMARK    3  A    between atoms: C_12  and  C_16 
REMARK    4  A    between atoms: C_13  and  N_28 
REMARK    5  A    between atoms: C_16  and  C_18 
REMARK    6  A    between atoms: C_23  and  O_24 
ROOT
HETATM    1  N   UNK N   1      33.886  13.890  10.877  0.00  0.00    -0.221 N 
HETATM    2  C   UNK N   1      33.692  14.614   9.683  0.00  0.00     0.679 A 
HETATM    3  N   UNK N   1      34.259  14.185   8.530  0.00  0.00    -0.201 N 
ATOM      4  HN  UNK N   1      34.740  13.286   8.505  1.00  0.00     0.183 HD
HETATM    5  C   UNK N   1      34.192  14.945   7.411  0.00  0.00     0.125 A 
HETATM    6  C   UNK N   1      33.585  16.205   7.448  0.00  0.00     0.075 A 
HETATM    7  C   UNK N   1      33.060  16.652   8.666  0.00  0.00     0.130 A 
HETATM    8  N   UNK N   1      33.111  15.838   9.752  0.00  0.00    -0.176 N 
ATOM      9  HN  UNK N   1      32.707  16.152  10.633  1.00  0.00     0.186 HD
HETATM   10  H   UNK N   1      33.107  13.560  11.381  0.00  0.00     0.178 HD
ENDROOT
BRANCH   1  11
HETATM   11  C   UNK N   1      35.218  13.627  11.368  0.00  0.00     0.101 C 
HETATM   12  C   UNK N   1      35.688  14.845  12.217  0.00  0.00     0.041 C 
HETATM   13  C   UNK N   1      36.223  14.526  13.602  0.00  0.00     0.109 C 
HETATM   14  N   UNK N   1      35.415  13.471  14.198  0.00  0.00    -0.211 NA
HETATM   15  C   UNK N   1      35.833  12.277  13.468  0.00  0.00     0.109 C 
HETATM   16  C   UNK N   1      35.153  12.277  12.106  0.00  0.00     0.041 C 
BRANCH  14  17
HETATM   17  S   UNK N   1      35.823  13.334  15.932  0.00  0.00     0.207 S 
HETATM   18  C   UNK N   1      35.276  12.077  17.117  0.00  0.00     0.180 C 
HETATM   19  O   UNK N   1      34.292  13.175  15.996  0.00  0.00    -0.212 OA
HETATM   20  O   UNK N   1      36.225  11.916  15.491  0.00  0.00    -0.212 OA
ENDBRANCH  14  17
ENDBRANCH   1  11
BRANCH   7  21
HETATM   21  N   UNK N   1      32.427  17.907   8.774  0.00  0.00    -0.384 N 
HETATM   22  H   UNK N   1      32.053  18.466   9.494  0.00  0.00     0.157 HD
HETATM   23  H   UNK N   1      32.334  18.340   7.895  0.00  0.00     0.157 HD
ENDBRANCH   7  21
BRANCH   6  24
HETATM   24  C   UNK N   1      33.496  16.999   6.203  0.00  0.00     0.203 C 
HETATM   25  O   UNK N   1      34.203  17.987   6.067  0.00  0.00    -0.286 OA
BRANCH  24  26
HETATM   26  C   UNK N   1      32.536  16.611   5.125  0.00  0.00     0.090 A 
HETATM   27  C   UNK N   1      31.186  17.016   5.194  0.00  0.00     0.171 A 
HETATM   28  C   UNK N   1      30.287  16.644   4.188  0.00  0.00     0.156 A 
HETATM   29  F   UNK N   1      30.745  17.787   6.221  0.00  0.00    -0.202 F 
HETATM   30  C   UNK N   1      30.712  15.865   3.115  0.00  0.00     0.048 A 
HETATM   31  F   UNK N   1      28.996  17.048   4.247  0.00  0.00    -0.203 F 
HETATM   32  C   UNK N   1      32.032  15.434   3.043  0.00  0.00     0.041 A 
HETATM   33  C   UNK N   1      32.954  15.790   4.037  0.00  0.00     0.085 A 
BRANCH  33  34
HETATM   34  O   UNK N   1      34.224  15.310   3.987  0.00  0.00    -0.355 OA
HETATM   35  C   UNK N   1      34.556  14.030   3.609  0.00  0.00     0.210 C 
ENDBRANCH  33  34
ENDBRANCH  24  26
ENDBRANCH   6  24
TORSDOF 6
ENDMDL
MODEL 5
REMARK VINA RESULT:      -7.3      1.777      2.305
REMARK  6 active torsions:
REMARK  status: ('A' for Active; 'I' for Inactive)
REMARK    1  A    between atoms: N_1  and  S_29 
REMARK    2  A    between atoms: C_4  and  N_7 
REMARK       I    between atoms: N_7  and  C_8 
REMARK    3  A    between atoms: C_12  and  C_16 
REMARK    4  A    between atoms: C_13  and  N_28 
REMARK    5  A    between atoms: C_16  and  C_18 
REMARK    6  A    between atoms: C_23  and  O_24 
ROOT
HETATM    1  N   UNK N   1      33.410  16.085   9.591  0.00  0.00    -0.221 N 
HETATM    2  C   UNK N   1      34.102  15.302  10.539  0.00  0.00     0.679 A 
HETATM    3  N   UNK N   1      35.066  15.864  11.308  0.00  0.00    -0.201 N 
ATOM      4  HN  UNK N   1      35.219  16.872  11.274  1.00  0.00     0.183 HD
HETATM    5  C   UNK N   1      35.828  15.094  12.120  0.00  0.00     0.125 A 
HETATM    6  C   UNK N   1      35.664  13.704  12.133  0.00  0.00     0.075 A 
HETATM    7  C   UNK N   1      34.703  13.142  11.284  0.00  0.00     0.130 A 
HETATM    8  N   UNK N   1      33.933  13.957  10.519  0.00  0.00    -0.176 N 
ATOM      9  HN  UNK N   1      33.216  13.551   9.919  1.00  0.00     0.186 HD
HETATM   10  H   UNK N   1      32.428  16.146   9.632  0.00  0.00     0.178 HD
ENDROOT
BRANCH   1  11
HETATM   11  C   UNK N   1      34.128  16.799   8.563  0.00  0.00     0.101 C 
HETATM   12  C   UNK N   1      34.909  15.770   7.693  0.00  0.00     0.041 C 
HETATM   13  C   UNK N   1      34.707  15.878   6.191  0.00  0.00     0.109 C 
HETATM   14  N   UNK N   1      33.309  16.177   5.915  0.00  0.00    -0.211 NA
HETATM   15  C   UNK N   1      33.185  17.580   6.303  0.00  0.00     0.109 C 
HETATM   16  C   UNK N   1      33.089  17.658   7.820  0.00  0.00     0.041 C 
BRANCH  14  17
HETATM   17  S   UNK N   1      33.003  15.969   4.167  0.00  0.00     0.207 S 
HETATM   18  C   UNK N   1      31.824  16.862   3.119  0.00  0.00     0.180 C 
HETATM   19  O   UNK N   1      31.559  15.939   4.704  0.00  0.00    -0.212 OA
HETATM   20  O   UNK N   1      33.264  17.485   4.173  0.00  0.00    -0.212 OA
ENDBRANCH  14  17
ENDBRANCH   1  11
BRANCH   7  21
HETATM   21  N   UNK N   1      34.480  11.750  11.252  0.00  0.00    -0.384 N 
HETATM   22  H   UNK N   1      33.841  11.133  10.826  0.00  0.00     0.157 HD
HETATM   23  H   UNK N   1      35.138  11.267  11.801  0.00  0.00     0.157 HD
ENDBRANCH   7  21
BRANCH   6  24
HETATM   24  C   UNK N   1      36.487  12.890  13.055  0.00  0.00     0.203 C 
HETATM   25  O   UNK N   1      37.523  12.384  12.649  0.00  0.00    -0.286 OA
BRANCH  24  26
HETATM   26  C   UNK N   1      36.047  12.669  14.466  0.00  0.00     0.090 A 
HETATM   27  C   UNK N   1      35.330  11.504  14.814  0.00  0.00     0.171 A 
HETATM   28  C   UNK N   1      34.912  11.303  16.134  0.00  0.00     0.156 A 
HETATM   29  F   UNK N   1      35.055  10.555  13.883  0.00  0.00    -0.202 F 
HETATM   30  C   UNK N   1      35.190  12.253  17.114  0.00  0.00     0.048 A 
HETATM   31  F   UNK N   1      34.239  10.178  16.470  0.00  0.00    -0.203 F 
HETATM   32  C   UNK N   1      35.872  13.418  16.785  0.00  0.00     0.041 A 
HETATM   33  C   UNK N   1      36.302  13.647  15.471  0.00  0.00     0.085 A 
BRANCH  33  34
HETATM   34  O   UNK N   1      36.912  14.817  15.151  0.00  0.00    -0.355 OA
HETATM   35  C   UNK N   1      37.483  15.671  16.067  0.00  0.00     0.210 C 
ENDBRANCH  33  34
ENDBRANCH  24  26
ENDBRANCH   6  24
TORSDOF 6
ENDMDL
MODEL 6
REMARK VINA RESULT:      -7.2      4.237      8.040
REMARK  6 active torsions:
REMARK  status: ('A' for Active; 'I' for Inactive)
REMARK    1  A    between atoms: N_1  and  S_29 
REMARK    2  A    between atoms: C_4  and  N_7 
REMARK       I    between atoms: N_7  and  C_8 
REMARK    3  A    between atoms: C_12  and  C_16 
REMARK    4  A    between atoms: C_13  and  N_28 
REMARK    5  A    between atoms: C_16  and  C_18 
REMARK    6  A    between atoms: C_23  and  O_24 
ROOT
HETATM    1  N   UNK N   1      35.373  15.425  11.862  0.00  0.00    -0.221 N 
HETATM    2  C   UNK N   1      34.602  15.953  10.805  0.00  0.00     0.679 A 
HETATM    3  N   UNK N   1      33.588  15.226  10.277  0.00  0.00    -0.201 N 
ATOM      4  HN  UNK N   1      33.317  14.343  10.711  1.00  0.00     0.183 HD
HETATM    5  C   UNK N   1      32.933  15.665   9.176  0.00  0.00     0.125 A 
HETATM    6  C   UNK N   1      33.333  16.845   8.541  0.00  0.00     0.075 A 
HETATM    7  C   UNK N   1      34.423  17.547   9.069  0.00  0.00     0.130 A 
HETATM    8  N   UNK N   1      35.021  17.092  10.200  0.00  0.00    -0.176 N 
ATOM      9  HN  UNK N   1      35.800  17.615  10.600  1.00  0.00     0.186 HD
HETATM   10  H   UNK N   1      35.446  15.922  12.709  0.00  0.00     0.178 HD
ENDROOT
BRANCH   1  11
HETATM   11  C   UNK N   1      36.057  14.163  11.713  0.00  0.00     0.101 C 
HETATM   12  C   UNK N   1      35.108  13.021  12.180  0.00  0.00     0.041 C 
HETATM   13  C   UNK N   1      34.925  11.867  11.210  0.00  0.00     0.109 C 
HETATM   14  N   UNK N   1      34.850  12.388   9.852  0.00  0.00    -0.211 NA
HETATM   15  C   UNK N   1      36.231  12.765   9.563  0.00  0.00     0.109 C 
HETATM   16  C   UNK N   1      36.527  14.092  10.249  0.00  0.00     0.041 C 
BRANCH  14  17
HETATM   17  S   UNK N   1      34.301  11.086   8.758  0.00  0.00     0.207 S 
HETATM   18  C   UNK N   1      33.422  11.243   7.181  0.00  0.00     0.180 C 
HETATM   19  O   UNK N   1      33.013  11.927   8.854  0.00  0.00    -0.212 OA
HETATM   20  O   UNK N   1      35.095  11.921   7.738  0.00  0.00    -0.212 OA
ENDBRANCH  14  17
ENDBRANCH   1  11
BRANCH   7  21
HETATM   21  N   UNK N   1      34.874  18.747   8.484  0.00  0.00    -0.384 N 
HETATM   22  H   UNK N   1      35.415  19.009   7.704  0.00  0.00     0.157 HD
HETATM   23  H   UNK N   1      34.565  19.533   8.990  0.00  0.00     0.157 HD
ENDBRANCH   7  21
BRANCH   6  24
HETATM   24  C   UNK N   1      32.578  17.318   7.358  0.00  0.00     0.203 C 
HETATM   25  O   UNK N   1      33.184  17.782   6.403  0.00  0.00    -0.286 OA
BRANCH  24  26
HETATM   26  C   UNK N   1      31.085  17.250   7.338  0.00  0.00     0.090 A 
HETATM   27  C   UNK N   1      30.325  18.005   8.256  0.00  0.00     0.171 A 
HETATM   28  C   UNK N   1      28.928  17.933   8.241  0.00  0.00     0.156 A 
HETATM   29  F   UNK N   1      30.934  18.826   9.151  0.00  0.00    -0.202 F 
HETATM   30  C   UNK N   1      28.274  17.110   7.328  0.00  0.00     0.048 A 
HETATM   31  F   UNK N   1      28.200  18.672   9.111  0.00  0.00    -0.203 F 
HETATM   32  C   UNK N   1      29.006  16.339   6.432  0.00  0.00     0.041 A 
HETATM   33  C   UNK N   1      30.407  16.390   6.426  0.00  0.00     0.085 A 
BRANCH  33  34
HETATM   34  O   UNK N   1      31.110  15.584   5.589  0.00  0.00    -0.355 OA
HETATM   35  C   UNK N   1      31.441  14.278   5.864  0.00  0.00     0.210 C 
ENDBRANCH  33  34
ENDBRANCH  24  26
ENDBRANCH   6  24
TORSDOF 6
ENDMDL
MODEL 7
REMARK VINA RESULT:      -7.1      4.429      9.493
REMARK  6 active torsions:
REMARK  status: ('A' for Active; 'I' for Inactive)
REMARK    1  A    between atoms: N_1  and  S_29 
REMARK    2  A    between atoms: C_4  and  N_7 
REMARK       I    between atoms: N_7  and  C_8 
REMARK    3  A    between atoms: C_12  and  C_16 
REMARK    4  A    between atoms: C_13  and  N_28 
REMARK    5  A    between atoms: C_16  and  C_18 
REMARK    6  A    between atoms: C_23  and  O_24 
ROOT
HETATM    1  N   UNK N   1      34.661  14.159  11.748  0.00  0.00    -0.221 N 
HETATM    2  C   UNK N   1      34.026  14.948  10.767  0.00  0.00     0.679 A 
HETATM    3  N   UNK N   1      32.978  14.448  10.068  0.00  0.00    -0.201 N 
ATOM      4  HN  UNK N   1      32.585  13.541  10.322  1.00  0.00     0.183 HD
HETATM    5  C   UNK N   1      32.451  15.145   9.034  0.00  0.00     0.125 A 
HETATM    6  C   UNK N   1      33.018  16.362   8.641  0.00  0.00     0.075 A 
HETATM    7  C   UNK N   1      34.137  16.829   9.341  0.00  0.00     0.130 A 
HETATM    8  N   UNK N   1      34.604  16.118  10.398  0.00  0.00    -0.176 N 
ATOM      9  HN  UNK N   1      35.404  16.469  10.924  1.00  0.00     0.186 HD
HETATM   10  H   UNK N   1      34.728  14.489  12.673  0.00  0.00     0.178 HD
ENDROOT
BRANCH   1  11
HETATM   11  C   UNK N   1      35.215  12.870  11.408  0.00  0.00     0.101 C 
HETATM   12  C   UNK N   1      36.757  13.014  11.250  0.00  0.00     0.041 C 
HETATM   13  C   UNK N   1      37.603  12.026  12.034  0.00  0.00     0.109 C 
HETATM   14  N   UNK N   1      37.006  11.816  13.345  0.00  0.00    -0.211 NA
HETATM   15  C   UNK N   1      35.836  10.993  13.051  0.00  0.00     0.109 C 
HETATM   16  C   UNK N   1      34.738  11.890  12.495  0.00  0.00     0.041 C 
BRANCH  14  17
HETATM   17  S   UNK N   1      38.165  10.932  14.378  0.00  0.00     0.207 S 
HETATM   18  C   UNK N   1      37.900   9.393  15.299  0.00  0.00     0.180 C 
HETATM   19  O   UNK N   1      36.942  10.979  15.314  0.00  0.00    -0.212 OA
HETATM   20  O   UNK N   1      37.754   9.773  13.454  0.00  0.00    -0.212 OA
ENDBRANCH  14  17
ENDBRANCH   1  11
BRANCH   7  21
HETATM   21  N   UNK N   1      34.753  18.052   9.004  0.00  0.00    -0.384 N 
HETATM   22  H   UNK N   1      35.162  18.808   9.484  0.00  0.00     0.157 HD
HETATM   23  H   UNK N   1      34.782  18.184   8.029  0.00  0.00     0.157 HD
ENDBRANCH   7  21
BRANCH   6  24
HETATM   24  C   UNK N   1      32.401  17.119   7.528  0.00  0.00     0.203 C 
HETATM   25  O   UNK N   1      33.117  17.708   6.732  0.00  0.00    -0.286 OA
BRANCH  24  26
HETATM   26  C   UNK N   1      30.914  17.180   7.389  0.00  0.00     0.090 A 
HETATM   27  C   UNK N   1      30.150  17.983   8.261  0.00  0.00     0.171 A 
HETATM   28  C   UNK N   1      28.757  18.033   8.134  0.00  0.00     0.156 A 
HETATM   29  F   UNK N   1      30.752  18.733   9.220  0.00  0.00    -0.202 F 
HETATM   30  C   UNK N   1      28.111  17.284   7.154  0.00  0.00     0.048 A 
HETATM   31  F   UNK N   1      28.026  18.817   8.961  0.00  0.00    -0.203 F 
HETATM   32  C   UNK N   1      28.845  16.467   6.301  0.00  0.00     0.041 A 
HETATM   33  C   UNK N   1      30.240  16.397   6.407  0.00  0.00     0.085 A 
BRANCH  33  34
HETATM   34  O   UNK N   1      30.938  15.547   5.609  0.00  0.00    -0.355 OA
HETATM   35  C   UNK N   1      31.105  15.714   4.254  0.00  0.00     0.210 C 
ENDBRANCH  33  34
ENDBRANCH  24  26
ENDBRANCH   6  24
TORSDOF 6
ENDMDL
MODEL 8
REMARK VINA RESULT:      -7.1      3.503      4.618
REMARK  6 active torsions:
REMARK  status: ('A' for Active; 'I' for Inactive)
REMARK    1  A    between atoms: N_1  and  S_29 
REMARK    2  A    between atoms: C_4  and  N_7 
REMARK       I    between atoms: N_7  and  C_8 
REMARK    3  A    between atoms: C_12  and  C_16 
REMARK    4  A    between atoms: C_13  and  N_28 
REMARK    5  A    between atoms: C_16  and  C_18 
REMARK    6  A    between atoms: C_23  and  O_24 
ROOT
HETATM    1  N   UNK N   1      31.870  17.254   7.568  0.00  0.00    -0.221 N 
HETATM    2  C   UNK N   1      32.933  16.556   8.176  0.00  0.00     0.679 A 
HETATM    3  N   UNK N   1      33.091  15.229   7.948  0.00  0.00    -0.201 N 
ATOM      4  HN  UNK N   1      32.504  14.760   7.258  1.00  0.00     0.183 HD
HETATM    5  C   UNK N   1      34.024  14.525   8.632  0.00  0.00     0.125 A 
HETATM    6  C   UNK N   1      34.795  15.147   9.619  0.00  0.00     0.075 A 
HETATM    7  C   UNK N   1      34.571  16.504   9.879  0.00  0.00     0.130 A 
HETATM    8  N   UNK N   1      33.656  17.180   9.139  0.00  0.00    -0.176 N 
ATOM      9  HN  UNK N   1      33.509  18.175   9.310  1.00  0.00     0.186 HD
HETATM   10  H   UNK N   1      32.059  18.039   7.004  0.00  0.00     0.178 HD
ENDROOT
BRANCH   1  11
HETATM   11  C   UNK N   1      30.504  16.830   7.766  0.00  0.00     0.101 C 
HETATM   12  C   UNK N   1      29.740  17.945   8.538  0.00  0.00     0.041 C 
HETATM   13  C   UNK N   1      28.428  18.402   7.925  0.00  0.00     0.109 C 
HETATM   14  N   UNK N   1      28.570  18.463   6.477  0.00  0.00    -0.211 NA
HETATM   15  C   UNK N   1      28.575  17.057   6.082  0.00  0.00     0.109 C 
HETATM   16  C   UNK N   1      29.952  16.475   6.374  0.00  0.00     0.041 C 
BRANCH  14  17
HETATM   17  S   UNK N   1      27.158  19.314   5.788  0.00  0.00     0.207 S 
HETATM   18  C   UNK N   1      27.002  21.070   5.366  0.00  0.00     0.180 C 
HETATM   19  O   UNK N   1      27.507  20.259   6.954  0.00  0.00    -0.212 OA
HETATM   20  O   UNK N   1      28.213  19.753   4.758  0.00  0.00    -0.212 OA
ENDBRANCH  14  17
ENDBRANCH   1  11
BRANCH   7  21
HETATM   21  N   UNK N   1      35.317  17.195  10.855  0.00  0.00    -0.384 N 
HETATM   22  H   UNK N   1      35.414  18.126  11.162  0.00  0.00     0.157 HD
HETATM   23  H   UNK N   1      35.897  16.585  11.364  0.00  0.00     0.157 HD
ENDBRANCH   7  21
BRANCH   6  24
HETATM   24  C   UNK N   1      35.829  14.360  10.328  0.00  0.00     0.203 C 
HETATM   25  O   UNK N   1      36.992  14.420   9.956  0.00  0.00    -0.286 OA
BRANCH  24  26
HETATM   26  C   UNK N   1      35.454  13.483  11.480  0.00  0.00     0.090 A 
HETATM   27  C   UNK N   1      35.581  13.953  12.804  0.00  0.00     0.171 A 
HETATM   28  C   UNK N   1      35.237  13.128  13.880  0.00  0.00     0.156 A 
HETATM   29  F   UNK N   1      36.015  15.215  13.053  0.00  0.00    -0.202 F 
HETATM   30  C   UNK N   1      34.776  11.833  13.656  0.00  0.00     0.048 A 
HETATM   31  F   UNK N   1      35.343  13.586  15.149  0.00  0.00    -0.203 F 
HETATM   32  C   UNK N   1      34.670  11.343  12.360  0.00  0.00     0.041 A 
HETATM   33  C   UNK N   1      35.008  12.146  11.263  0.00  0.00     0.085 A 
BRANCH  33  34
HETATM   34  O   UNK N   1      34.959  11.634  10.006  0.00  0.00    -0.355 OA
HETATM   35  C   UNK N   1      34.966  10.290   9.715  0.00  0.00     0.210 C 
ENDBRANCH  33  34
ENDBRANCH  24  26
ENDBRANCH   6  24
TORSDOF 6
ENDMDL
MODEL 9
REMARK VINA RESULT:      -6.8      2.432      2.663
REMARK  6 active torsions:
REMARK  status: ('A' for Active; 'I' for Inactive)
REMARK    1  A    between atoms: N_1  and  S_29 
REMARK    2  A    between atoms: C_4  and  N_7 
REMARK       I    between atoms: N_7  and  C_8 
REMARK    3  A    between atoms: C_12  and  C_16 
REMARK    4  A    between atoms: C_13  and  N_28 
REMARK    5  A    between atoms: C_16  and  C_18 
REMARK    6  A    between atoms: C_23  and  O_24 
ROOT
HETATM    1  N   UNK N   1      32.012  14.345   8.593  0.00  0.00    -0.221 N 
HETATM    2  C   UNK N   1      33.005  14.039   9.546  0.00  0.00     0.679 A 
HETATM    3  N   UNK N   1      33.378  14.968  10.459  0.00  0.00    -0.201 N 
ATOM      4  HN  UNK N   1      32.870  15.850  10.522  1.00  0.00     0.183 HD
HETATM    5  C   UNK N   1      34.423  14.732  11.287  0.00  0.00     0.125 A 
HETATM    6  C   UNK N   1      35.162  13.550  11.171  0.00  0.00     0.075 A 
HETATM    7  C   UNK N   1      34.795  12.632  10.180  0.00  0.00     0.130 A 
HETATM    8  N   UNK N   1      33.714  12.892   9.401  0.00  0.00    -0.176 N 
ATOM      9  HN  UNK N   1      33.431  12.213   8.695  1.00  0.00     0.186 HD
HETATM   10  H   UNK N   1      31.206  13.782   8.528  0.00  0.00     0.178 HD
ENDROOT
BRANCH   1  11
HETATM   11  C   UNK N   1      32.165  15.477   7.709  0.00  0.00     0.101 C 
HETATM   12  C   UNK N   1      31.973  14.995   6.241  0.00  0.00     0.041 C 
HETATM   13  C   UNK N   1      30.978  15.783   5.406  0.00  0.00     0.109 C 
HETATM   14  N   UNK N   1      29.831  16.135   6.231  0.00  0.00    -0.211 NA
HETATM   15  C   UNK N   1      30.352  17.191   7.095  0.00  0.00     0.109 C 
HETATM   16  C   UNK N   1      31.179  16.551   8.201  0.00  0.00     0.041 C 
BRANCH  14  17
HETATM   17  S   UNK N   1      28.526  16.756   5.179  0.00  0.00     0.207 S 
HETATM   18  C   UNK N   1      27.158  17.859   5.621  0.00  0.00     0.180 C 
HETATM   19  O   UNK N   1      27.699  16.258   6.380  0.00  0.00    -0.212 OA
HETATM   20  O   UNK N   1      29.029  18.099   5.735  0.00  0.00    -0.212 OA
ENDBRANCH  14  17
ENDBRANCH   1  11
BRANCH   7  21
HETATM   21  N   UNK N   1      35.491  11.418  10.013  0.00  0.00    -0.384 N 
HETATM   22  H   UNK N   1      36.202  11.070   9.426  0.00  0.00     0.157 HD
HETATM   23  H   UNK N   1      35.186  10.737  10.654  0.00  0.00     0.157 HD
ENDBRANCH   7  21
BRANCH   6  24
HETATM   24  C   UNK N   1      36.279  13.303  12.111  0.00  0.00     0.203 C 
HETATM   25  O   UNK N   1      37.428  13.299  11.694  0.00  0.00    -0.286 OA
BRANCH  24  26
HETATM   26  C   UNK N   1      36.006  13.041  13.557  0.00  0.00     0.090 A 
HETATM   27  C   UNK N   1      36.349  14.002  14.532  0.00  0.00     0.171 A 
HETATM   28  C   UNK N   1      36.099  13.752  15.886  0.00  0.00     0.156 A 
HETATM   29  F   UNK N   1      36.905  15.188  14.172  0.00  0.00    -0.202 F 
HETATM   30  C   UNK N   1      35.519  12.550  16.286  0.00  0.00     0.048 A 
HETATM   31  F   UNK N   1      36.414  14.681  16.819  0.00  0.00    -0.203 F 
HETATM   32  C   UNK N   1      35.198  11.581  15.342  0.00  0.00     0.041 A 
HETATM   33  C   UNK N   1      35.438  11.804  13.980  0.00  0.00     0.085 A 
BRANCH  33  34
HETATM   34  O   UNK N   1      35.177  10.824  13.076  0.00  0.00    -0.355 OA
HETATM   35  C   UNK N   1      33.963  10.190  12.948  0.00  0.00     0.210 C 
ENDBRANCH  33  34
ENDBRANCH  24  26
ENDBRANCH   6  24
TORSDOF 6
ENDMDL
