REMARK  7 active torsions:
REMARK  status: ('A' for Active; 'I' for Inactive)
REMARK       I    between atoms: N_1  and  C_15 
REMARK    1  A    between atoms: N_1  and  C_17 
REMARK    2  A    between atoms: N_1  and  C_20 
REMARK    3  A    between atoms: C_2  and  O_18 
REMARK    4  A    between atoms: C_7  and  N_14 
REMARK       I    between atoms: N_14  and  C_15 
REMARK       I    between atoms: C_25  and  N_28 
REMARK    5  A    between atoms: N_28  and  C_29 
REMARK    6  A    between atoms: C_29  and  C_31 
REMARK    7  A    between atoms: C_31  and  O_34 
ROOT
HETATM    1  N   UNK N   1       0.613  -1.076   0.237  0.00  0.00    -0.249 N 
HETATM    2  N   UNK N   1       2.996  -1.184   0.149  0.00  0.00    -0.307 N 
HETATM    3  C   UNK N   1       1.785  -1.813   0.131  0.00  0.00     0.333 C 
HETATM    4  O   UNK N   1       1.744  -3.028   0.010  0.00  0.00    -0.246 OA
HETATM    5  H   UNK N   1       2.983  -0.215   0.323  0.00  0.00     0.170 HD
ENDROOT
BRANCH   1   6
HETATM    6  C   UNK N   1       0.653   0.382   0.299  0.00  0.00     0.045 A 
HETATM    7  C   UNK N   1      -0.427   1.110   0.838  0.00  0.00     0.033 A 
HETATM    8  C   UNK N   1      -0.450   2.503   0.825  0.00  0.00     0.039 A 
HETATM    9  C   UNK N   1       0.617   3.219   0.271  0.00  0.00     0.068 A 
HETATM   10  C   UNK N   1       1.713   2.520  -0.242  0.00  0.00     0.039 A 
HETATM   11  C   UNK N   1       1.730   1.122  -0.227  0.00  0.00     0.033 A 
BRANCH   9  12
HETATM   12  O   UNK N   1       0.608   4.572   0.211  0.00  0.00    -0.356 OA
HETATM   13  C   UNK N   1      -0.455   5.336   0.640  0.00  0.00     0.210 C 
ENDBRANCH   9  12
ENDBRANCH   1   6
BRANCH   1  14
HETATM   14  C   UNK N   1      -0.689  -1.728   0.190  0.00  0.00     0.133 A 
HETATM   15  C   UNK N   1      -0.862  -3.120   0.271  0.00  0.00     0.067 A 
HETATM   16  C   UNK N   1      -2.151  -3.653   0.144  0.00  0.00     0.110 A 
HETATM   17  N   UNK N   1      -3.217  -2.832  -0.070  0.00  0.00    -0.202 N 
HETATM   18  C   UNK N   1      -3.038  -1.488  -0.148  0.00  0.00     0.679 A 
ATOM     19  HN  UNK N   1      -4.151  -3.227  -0.172  1.00  0.00     0.183 HD
HETATM   20  N   UNK N   1      -1.794  -0.973  -0.024  0.00  0.00    -0.176 N 
HETATM   21  N   UNK N   1      -4.132  -0.622  -0.416  0.00  0.00    -0.219 N 
ATOM     22  HN  UNK N   1      -1.681   0.039  -0.096  1.00  0.00     0.186 HD
HETATM   23  H   UNK N   1      -5.022  -1.007  -0.583  0.00  0.00     0.178 HD
BRANCH  21  24
HETATM   24  C   UNK N   1      -3.963   0.825  -0.448  0.00  0.00     0.129 C 
HETATM   25  C   UNK N   1      -3.830   1.279  -1.896  0.00  0.00     0.036 C 
BRANCH  24  26
HETATM   26  C   UNK N   1      -5.111   1.545   0.284  0.00  0.00     0.071 C 
HETATM   27  C   UNK N   1      -6.443   1.314  -0.410  0.00  0.00     0.047 C 
HETATM   28  C   UNK N   1      -4.844   3.043   0.336  0.00  0.00     0.047 C 
BRANCH  26  29
HETATM   29  O   UNK N   1      -5.198   1.072   1.595  0.00  0.00    -0.389 OA
HETATM   30  H   UNK N   1      -5.513   0.960   2.505  0.00  0.00     0.210 HD
ENDBRANCH  26  29
ENDBRANCH  24  26
ENDBRANCH  21  24
ENDBRANCH   1  14
BRANCH   2  31
HETATM   31  C   UNK N   1       4.278  -1.773  -0.054  0.00  0.00     0.058 A 
HETATM   32  C   UNK N   1       5.423  -0.959   0.014  0.00  0.00     0.060 A 
HETATM   33 Cl   UNK N   1       5.291   0.754   0.381  0.00  0.00    -0.082 Cl
HETATM   34  C   UNK N   1       6.689  -1.505  -0.221  0.00  0.00     0.026 A 
HETATM   35  C   UNK N   1       6.824  -2.860  -0.525  0.00  0.00     0.002 A 
HETATM   36  C   UNK N   1       5.694  -3.676  -0.594  0.00  0.00     0.002 A 
HETATM   37  C   UNK N   1       4.427  -3.136  -0.362  0.00  0.00     0.031 A 
ENDBRANCH   2  31
TORSDOF 7
