MODEL 1
REMARK VINA RESULT:      -7.4      0.000      0.000
REMARK  7 active torsions:
REMARK  status: ('A' for Active; 'I' for Inactive)
REMARK       I    between atoms: N_1  and  C_15 
REMARK    1  A    between atoms: N_1  and  C_17 
REMARK    2  A    between atoms: N_1  and  C_20 
REMARK    3  A    between atoms: C_2  and  O_18 
REMARK    4  A    between atoms: C_7  and  N_14 
REMARK       I    between atoms: N_14  and  C_15 
REMARK       I    between atoms: C_25  and  N_28 
REMARK    5  A    between atoms: N_28  and  C_29 
REMARK    6  A    between atoms: C_29  and  C_31 
REMARK    7  A    between atoms: C_31  and  O_34 
ROOT
HETATM    1  N   UNK N   1      28.751  17.160   5.663  0.00  0.00    -0.249 N 
HETATM    2  N   UNK N   1      28.888  15.777   3.722  0.00  0.00    -0.307 N 
HETATM    3  C   UNK N   1      29.239  16.032   5.016  0.00  0.00     0.333 C 
HETATM    4  O   UNK N   1      29.976  15.253   5.601  0.00  0.00    -0.246 OA
HETATM    5  H   UNK N   1      28.355  16.469   3.269  0.00  0.00     0.170 HD
ENDROOT
BRANCH   1   6
HETATM    6  C   UNK N   1      27.805  18.050   4.996  0.00  0.00     0.045 A 
HETATM    7  C   UNK N   1      26.499  17.616   4.691  0.00  0.00     0.033 A 
HETATM    8  C   UNK N   1      25.610  18.415   3.976  0.00  0.00     0.039 A 
HETATM    9  C   UNK N   1      26.001  19.687   3.542  0.00  0.00     0.068 A 
HETATM   10  C   UNK N   1      27.280  20.152   3.859  0.00  0.00     0.039 A 
HETATM   11  C   UNK N   1      28.168  19.345   4.576  0.00  0.00     0.033 A 
BRANCH   9  12
HETATM   12  O   UNK N   1      25.172  20.473   2.814  0.00  0.00    -0.356 OA
HETATM   13  C   UNK N   1      23.806  20.493   2.992  0.00  0.00     0.210 C 
ENDBRANCH   9  12
ENDBRANCH   1   6
BRANCH   1  14
HETATM   14  C   UNK N   1      29.091  17.432   7.053  0.00  0.00     0.133 A 
HETATM   15  C   UNK N   1      28.140  17.769   8.032  0.00  0.00     0.067 A 
HETATM   16  C   UNK N   1      28.578  18.082   9.325  0.00  0.00     0.110 A 
HETATM   17  N   UNK N   1      29.907  18.075   9.621  0.00  0.00    -0.202 N 
HETATM   18  C   UNK N   1      30.818  17.750   8.667  0.00  0.00     0.679 A 
ATOM     19  HN  UNK N   1      30.220  18.315  10.562  1.00  0.00     0.183 HD
HETATM   20  N   UNK N   1      30.395  17.446   7.420  0.00  0.00    -0.176 N 
HETATM   21  N   UNK N   1      32.210  17.782   8.948  0.00  0.00    -0.219 N 
ATOM     22  HN  UNK N   1      31.097  17.214   6.715  1.00  0.00     0.186 HD
HETATM   23  H   UNK N   1      32.516  18.080   9.835  0.00  0.00     0.178 HD
BRANCH  21  24
HETATM   24  C   UNK N   1      33.194  17.383   7.950  0.00  0.00     0.129 C 
HETATM   25  C   UNK N   1      34.444  18.239   8.113  0.00  0.00     0.036 C 
BRANCH  24  26
HETATM   26  C   UNK N   1      33.506  15.877   8.034  0.00  0.00     0.071 C 
HETATM   27  C   UNK N   1      33.571  15.403   9.476  0.00  0.00     0.047 C 
HETATM   28  C   UNK N   1      34.840  15.579   7.364  0.00  0.00     0.047 C 
BRANCH  26  29
HETATM   29  O   UNK N   1      32.512  15.157   7.367  0.00  0.00    -0.389 OA
HETATM   30  H   UNK N   1      31.731  14.602   7.220  0.00  0.00     0.210 HD
ENDBRANCH  26  29
ENDBRANCH  24  26
ENDBRANCH  21  24
ENDBRANCH   1  14
BRANCH   2  31
HETATM   31  C   UNK N   1      29.210  14.621   2.952  0.00  0.00     0.058 A 
HETATM   32  C   UNK N   1      28.183  13.948   2.267  0.00  0.00     0.060 A 
HETATM   33 Cl   UNK N   1      26.528  14.536   2.320  0.00  0.00    -0.082 Cl
HETATM   34  C   UNK N   1      28.466  12.789   1.537  0.00  0.00     0.026 A 
HETATM   35  C   UNK N   1      29.769  12.292   1.486  0.00  0.00     0.002 A 
HETATM   36  C   UNK N   1      30.795  12.953   2.162  0.00  0.00     0.002 A 
HETATM   37  C   UNK N   1      30.518  14.110   2.894  0.00  0.00     0.031 A 
ENDBRANCH   2  31
TORSDOF 7
ENDMDL
MODEL 2
REMARK VINA RESULT:      -7.4      7.699     13.520
REMARK  7 active torsions:
REMARK  status: ('A' for Active; 'I' for Inactive)
REMARK       I    between atoms: N_1  and  C_15 
REMARK    1  A    between atoms: N_1  and  C_17 
REMARK    2  A    between atoms: N_1  and  C_20 
REMARK    3  A    between atoms: C_2  and  O_18 
REMARK    4  A    between atoms: C_7  and  N_14 
REMARK       I    between atoms: N_14  and  C_15 
REMARK       I    between atoms: C_25  and  N_28 
REMARK    5  A    between atoms: N_28  and  C_29 
REMARK    6  A    between atoms: C_29  and  C_31 
REMARK    7  A    between atoms: C_31  and  O_34 
ROOT
HETATM    1  N   UNK N   1      35.508  11.238  13.022  0.00  0.00    -0.249 N 
HETATM    2  N   UNK N   1      36.398  12.532  14.819  0.00  0.00    -0.307 N 
HETATM    3  C   UNK N   1      35.532  12.406  13.772  0.00  0.00     0.333 C 
HETATM    4  O   UNK N   1      34.773  13.326  13.510  0.00  0.00    -0.246 OA
HETATM    5  H   UNK N   1      37.040  11.797  14.947  0.00  0.00     0.170 HD
ENDROOT
BRANCH   1   6
HETATM    6  C   UNK N   1      36.354  10.104  13.382  0.00  0.00     0.045 A 
HETATM    7  C   UNK N   1      37.548   9.845  12.678  0.00  0.00     0.033 A 
HETATM    8  C   UNK N   1      38.324   8.719  12.944  0.00  0.00     0.039 A 
HETATM    9  C   UNK N   1      37.931   7.810  13.933  0.00  0.00     0.068 A 
HETATM   10  C   UNK N   1      36.767   8.062  14.664  0.00  0.00     0.039 A 
HETATM   11  C   UNK N   1      35.991   9.193  14.393  0.00  0.00     0.033 A 
BRANCH   9  12
HETATM   12  O   UNK N   1      38.644   6.688  14.190  0.00  0.00    -0.356 OA
HETATM   13  C   UNK N   1      39.446   6.546  15.301  0.00  0.00     0.210 C 
ENDBRANCH   9  12
ENDBRANCH   1   6
BRANCH   1  14
HETATM   14  C   UNK N   1      34.570  11.074  11.920  0.00  0.00     0.133 A 
HETATM   15  C   UNK N   1      33.772   9.931  11.744  0.00  0.00     0.067 A 
HETATM   16  C   UNK N   1      32.954   9.841  10.610  0.00  0.00     0.110 A 
HETATM   17  N   UNK N   1      32.945  10.843   9.687  0.00  0.00    -0.202 N 
HETATM   18  C   UNK N   1      33.721  11.943   9.866  0.00  0.00     0.679 A 
ATOM     19  HN  UNK N   1      32.356  10.767   8.859  1.00  0.00     0.183 HD
HETATM   20  N   UNK N   1      34.510  12.031  10.961  0.00  0.00    -0.176 N 
HETATM   21  N   UNK N   1      33.759  12.975   8.891  0.00  0.00    -0.219 N 
ATOM     22  HN  UNK N   1      35.093  12.861  11.071  1.00  0.00     0.186 HD
HETATM   23  H   UNK N   1      33.243  12.871   8.059  0.00  0.00     0.178 HD
BRANCH  21  24
HETATM   24  C   UNK N   1      34.545  14.185   9.096  0.00  0.00     0.129 C 
HETATM   25  C   UNK N   1      35.120  14.638   7.761  0.00  0.00     0.036 C 
BRANCH  24  26
HETATM   26  C   UNK N   1      33.715  15.289   9.777  0.00  0.00     0.071 C 
HETATM   27  C   UNK N   1      32.328  15.398   9.165  0.00  0.00     0.047 C 
HETATM   28  C   UNK N   1      34.414  16.634   9.637  0.00  0.00     0.047 C 
BRANCH  26  29
HETATM   29  O   UNK N   1      33.586  15.005  11.138  0.00  0.00    -0.389 OA
HETATM   30  H   UNK N   1      33.595  15.126  12.100  0.00  0.00     0.210 HD
ENDBRANCH  26  29
ENDBRANCH  24  26
ENDBRANCH  21  24
ENDBRANCH   1  14
BRANCH   2  31
HETATM   31  C   UNK N   1      36.478  13.610  15.749  0.00  0.00     0.058 A 
HETATM   32  C   UNK N   1      35.763  13.525  16.957  0.00  0.00     0.060 A 
HETATM   33 Cl   UNK N   1      34.813  12.099  17.345  0.00  0.00    -0.082 Cl
HETATM   34  C   UNK N   1      35.793  14.586  17.868  0.00  0.00     0.026 A 
HETATM   35  C   UNK N   1      36.531  15.736  17.583  0.00  0.00     0.002 A 
HETATM   36  C   UNK N   1      37.243  15.829  16.386  0.00  0.00     0.002 A 
HETATM   37  C   UNK N   1      37.216  14.773  15.473  0.00  0.00     0.031 A 
ENDBRANCH   2  31
TORSDOF 7
ENDMDL
MODEL 3
REMARK VINA RESULT:      -7.1      5.818      8.626
REMARK  7 active torsions:
REMARK  status: ('A' for Active; 'I' for Inactive)
REMARK       I    between atoms: N_1  and  C_15 
REMARK    1  A    between atoms: N_1  and  C_17 
REMARK    2  A    between atoms: N_1  and  C_20 
REMARK    3  A    between atoms: C_2  and  O_18 
REMARK    4  A    between atoms: C_7  and  N_14 
REMARK       I    between atoms: N_14  and  C_15 
REMARK       I    between atoms: C_25  and  N_28 
REMARK    5  A    between atoms: N_28  and  C_29 
REMARK    6  A    between atoms: C_29  and  C_31 
REMARK    7  A    between atoms: C_31  and  O_34 
ROOT
HETATM    1  N   UNK N   1      21.959  16.760   4.265  0.00  0.00    -0.249 N 
HETATM    2  N   UNK N   1      21.576  15.161   5.996  0.00  0.00    -0.307 N 
HETATM    3  C   UNK N   1      21.984  16.404   5.607  0.00  0.00     0.333 C 
HETATM    4  O   UNK N   1      22.361  17.201   6.453  0.00  0.00    -0.246 OA
HETATM    5  H   UNK N   1      21.352  14.529   5.275  0.00  0.00     0.170 HD
ENDROOT
BRANCH   1   6
HETATM    6  C   UNK N   1      21.432  15.841   3.260  0.00  0.00     0.045 A 
HETATM    7  C   UNK N   1      20.053  15.557   3.196  0.00  0.00     0.033 A 
HETATM    8  C   UNK N   1      19.540  14.616   2.306  0.00  0.00     0.039 A 
HETATM    9  C   UNK N   1      20.397  13.925   1.442  0.00  0.00     0.068 A 
HETATM   10  C   UNK N   1      21.765  14.212   1.466  0.00  0.00     0.039 A 
HETATM   11  C   UNK N   1      22.274  15.157   2.362  0.00  0.00     0.033 A 
BRANCH   9  12
HETATM   12  O   UNK N   1      19.934  12.979   0.590  0.00  0.00    -0.356 OA
HETATM   13  C   UNK N   1      18.604  12.858   0.253  0.00  0.00     0.210 C 
ENDBRANCH   9  12
ENDBRANCH   1   6
BRANCH   1  14
HETATM   14  C   UNK N   1      22.363  18.093   3.836  0.00  0.00     0.133 A 
HETATM   15  C   UNK N   1      21.517  18.973   3.140  0.00  0.00     0.067 A 
HETATM   16  C   UNK N   1      22.025  20.205   2.709  0.00  0.00     0.110 A 
HETATM   17  N   UNK N   1      23.325  20.535   2.949  0.00  0.00    -0.202 N 
HETATM   18  C   UNK N   1      24.134  19.676   3.621  0.00  0.00     0.679 A 
ATOM     19  HN  UNK N   1      23.691  21.429   2.623  1.00  0.00     0.183 HD
HETATM   20  N   UNK N   1      23.644  18.487   4.039  0.00  0.00    -0.176 N 
HETATM   21  N   UNK N   1      25.503  19.986   3.839  0.00  0.00    -0.219 N 
ATOM     22  HN  UNK N   1      24.272  17.853   4.533  1.00  0.00     0.186 HD
HETATM   23  H   UNK N   1      25.875  20.817   3.466  0.00  0.00     0.178 HD
BRANCH  21  24
HETATM   24  C   UNK N   1      26.368  19.098   4.606  0.00  0.00     0.129 C 
HETATM   25  C   UNK N   1      26.900  18.005   3.687  0.00  0.00     0.036 C 
BRANCH  24  26
HETATM   26  C   UNK N   1      27.501  19.875   5.302  0.00  0.00     0.071 C 
HETATM   27  C   UNK N   1      27.979  19.156   6.553  0.00  0.00     0.047 C 
HETATM   28  C   UNK N   1      27.022  21.265   5.695  0.00  0.00     0.047 C 
BRANCH  26  29
HETATM   29  O   UNK N   1      28.578  20.017   4.424  0.00  0.00    -0.389 OA
HETATM   30  H   UNK N   1      29.397  20.357   4.034  0.00  0.00     0.210 HD
ENDBRANCH  26  29
ENDBRANCH  24  26
ENDBRANCH  21  24
ENDBRANCH   1  14
BRANCH   2  31
HETATM   31  C   UNK N   1      21.438  14.675   7.328  0.00  0.00     0.058 A 
HETATM   32  C   UNK N   1      22.430  13.826   7.852  0.00  0.00     0.060 A 
HETATM   33 Cl   UNK N   1      23.841  13.393   6.899  0.00  0.00    -0.082 Cl
HETATM   34  C   UNK N   1      22.298  13.303   9.142  0.00  0.00     0.026 A 
HETATM   35  C   UNK N   1      21.183  13.621   9.918  0.00  0.00     0.002 A 
HETATM   36  C   UNK N   1      20.194  14.463   9.408  0.00  0.00     0.002 A 
HETATM   37  C   UNK N   1      20.319  14.987   8.119  0.00  0.00     0.031 A 
ENDBRANCH   2  31
TORSDOF 7
ENDMDL
MODEL 4
REMARK VINA RESULT:      -7.0      4.771      7.473
REMARK  7 active torsions:
REMARK  status: ('A' for Active; 'I' for Inactive)
REMARK       I    between atoms: N_1  and  C_15 
REMARK    1  A    between atoms: N_1  and  C_17 
REMARK    2  A    between atoms: N_1  and  C_20 
REMARK    3  A    between atoms: C_2  and  O_18 
REMARK    4  A    between atoms: C_7  and  N_14 
REMARK       I    between atoms: N_14  and  C_15 
REMARK       I    between atoms: C_25  and  N_28 
REMARK    5  A    between atoms: N_28  and  C_29 
REMARK    6  A    between atoms: C_29  and  C_31 
REMARK    7  A    between atoms: C_31  and  O_34 
ROOT
HETATM    1  N   UNK N   1      24.732  16.084   5.629  0.00  0.00    -0.249 N 
HETATM    2  N   UNK N   1      26.720  17.162   6.392  0.00  0.00    -0.307 N 
HETATM    3  C   UNK N   1      25.951  16.039   6.291  0.00  0.00     0.333 C 
HETATM    4  O   UNK N   1      26.353  14.993   6.780  0.00  0.00    -0.246 OA
HETATM    5  H   UNK N   1      26.324  17.995   6.049  0.00  0.00     0.170 HD
ENDROOT
BRANCH   1   6
HETATM    6  C   UNK N   1      24.285  17.309   4.972  0.00  0.00     0.045 A 
HETATM    7  C   UNK N   1      22.967  17.777   5.140  0.00  0.00     0.033 A 
HETATM    8  C   UNK N   1      22.492  18.892   4.453  0.00  0.00     0.039 A 
HETATM    9  C   UNK N   1      23.330  19.583   3.570  0.00  0.00     0.068 A 
HETATM   10  C   UNK N   1      24.651  19.156   3.410  0.00  0.00     0.039 A 
HETATM   11  C   UNK N   1      25.121  18.036   4.102  0.00  0.00     0.033 A 
BRANCH   9  12
HETATM   12  O   UNK N   1      22.888  20.648   2.860  0.00  0.00    -0.356 OA
HETATM   13  C   UNK N   1      21.570  20.814   2.497  0.00  0.00     0.210 C 
ENDBRANCH   9  12
ENDBRANCH   1   6
BRANCH   1  14
HETATM   14  C   UNK N   1      23.912  14.888   5.487  0.00  0.00     0.133 A 
HETATM   15  C   UNK N   1      23.584  14.316   4.246  0.00  0.00     0.067 A 
HETATM   16  C   UNK N   1      22.729  13.207   4.213  0.00  0.00     0.110 A 
HETATM   17  N   UNK N   1      22.214  12.702   5.368  0.00  0.00    -0.202 N 
HETATM   18  C   UNK N   1      22.536  13.263   6.562  0.00  0.00     0.679 A 
ATOM     19  HN  UNK N   1      21.584  11.901   5.337  1.00  0.00     0.183 HD
HETATM   20  N   UNK N   1      23.362  14.333   6.594  0.00  0.00    -0.176 N 
HETATM   21  N   UNK N   1      21.971  12.777   7.772  0.00  0.00    -0.219 N 
ATOM     22  HN  UNK N   1      23.583  14.745   7.502  1.00  0.00     0.186 HD
HETATM   23  H   UNK N   1      21.311  12.048   7.737  0.00  0.00     0.178 HD
BRANCH  21  24
HETATM   24  C   UNK N   1      22.351  13.334   9.064  0.00  0.00     0.129 C 
HETATM   25  C   UNK N   1      21.091  13.645   9.861  0.00  0.00     0.036 C 
BRANCH  24  26
HETATM   26  C   UNK N   1      23.306  12.396   9.826  0.00  0.00     0.071 C 
HETATM   27  C   UNK N   1      22.880  12.230  11.275  0.00  0.00     0.047 C 
HETATM   28  C   UNK N   1      24.723  12.952   9.797  0.00  0.00     0.047 C 
BRANCH  26  29
HETATM   29  O   UNK N   1      23.316  11.142   9.212  0.00  0.00    -0.389 OA
HETATM   30  H   UNK N   1      23.247  10.463   8.524  0.00  0.00     0.210 HD
ENDBRANCH  26  29
ENDBRANCH  24  26
ENDBRANCH  21  24
ENDBRANCH   1  14
BRANCH   2  31
HETATM   31  C   UNK N   1      28.032  17.263   6.939  0.00  0.00     0.058 A 
HETATM   32  C   UNK N   1      29.142  17.084   6.093  0.00  0.00     0.060 A 
HETATM   33 Cl   UNK N   1      28.926  16.777   4.377  0.00  0.00    -0.082 Cl
HETATM   34  C   UNK N   1      30.439  17.140   6.613  0.00  0.00     0.026 A 
HETATM   35  C   UNK N   1      30.641  17.372   7.974  0.00  0.00     0.002 A 
HETATM   36  C   UNK N   1      29.546  17.551   8.821  0.00  0.00     0.002 A 
HETATM   37  C   UNK N   1      28.249  17.496   8.308  0.00  0.00     0.031 A 
ENDBRANCH   2  31
TORSDOF 7
ENDMDL
MODEL 5
REMARK VINA RESULT:      -7.0      3.828      5.590
REMARK  7 active torsions:
REMARK  status: ('A' for Active; 'I' for Inactive)
REMARK       I    between atoms: N_1  and  C_15 
REMARK    1  A    between atoms: N_1  and  C_17 
REMARK    2  A    between atoms: N_1  and  C_20 
REMARK    3  A    between atoms: C_2  and  O_18 
REMARK    4  A    between atoms: C_7  and  N_14 
REMARK       I    between atoms: N_14  and  C_15 
REMARK       I    between atoms: C_25  and  N_28 
REMARK    5  A    between atoms: N_28  and  C_29 
REMARK    6  A    between atoms: C_29  and  C_31 
REMARK    7  A    between atoms: C_31  and  O_34 
ROOT
HETATM    1  N   UNK N   1      24.623  17.181   3.975  0.00  0.00    -0.249 N 
HETATM    2  N   UNK N   1      23.934  15.168   2.892  0.00  0.00    -0.307 N 
HETATM    3  C   UNK N   1      24.827  16.192   3.022  0.00  0.00     0.333 C 
HETATM    4  O   UNK N   1      25.811  16.222   2.299  0.00  0.00    -0.246 OA
HETATM    5  H   UNK N   1      23.120  15.226   3.443  0.00  0.00     0.170 HD
ENDROOT
BRANCH   1   6
HETATM    6  C   UNK N   1      23.493  17.105   4.897  0.00  0.00     0.045 A 
HETATM    7  C   UNK N   1      22.527  18.131   4.938  0.00  0.00     0.033 A 
HETATM    8  C   UNK N   1      21.492  18.125   5.870  0.00  0.00     0.039 A 
HETATM    9  C   UNK N   1      21.386  17.082   6.797  0.00  0.00     0.068 A 
HETATM   10  C   UNK N   1      22.314  16.038   6.756  0.00  0.00     0.039 A 
HETATM   11  C   UNK N   1      23.351  16.050   5.819  0.00  0.00     0.033 A 
BRANCH   9  12
HETATM   12  O   UNK N   1      20.413  17.066   7.738  0.00  0.00    -0.356 OA
HETATM   13  C   UNK N   1      19.214  16.409   7.568  0.00  0.00     0.210 C 
ENDBRANCH   9  12
ENDBRANCH   1   6
BRANCH   1  14
HETATM   14  C   UNK N   1      25.581  18.264   4.148  0.00  0.00     0.133 A 
HETATM   15  C   UNK N   1      25.617  19.405   3.328  0.00  0.00     0.067 A 
HETATM   16  C   UNK N   1      26.624  20.357   3.532  0.00  0.00     0.110 A 
HETATM   17  N   UNK N   1      27.562  20.169   4.502  0.00  0.00    -0.202 N 
HETATM   18  C   UNK N   1      27.519  19.062   5.287  0.00  0.00     0.679 A 
ATOM     19  HN  UNK N   1      28.299  20.860   4.638  1.00  0.00     0.183 HD
HETATM   20  N   UNK N   1      26.546  18.144   5.092  0.00  0.00    -0.176 N 
HETATM   21  N   UNK N   1      28.516  18.829   6.272  0.00  0.00    -0.219 N 
ATOM     22  HN  UNK N   1      26.539  17.314   5.687  1.00  0.00     0.186 HD
HETATM   23  H   UNK N   1      29.266  19.460   6.359  0.00  0.00     0.178 HD
BRANCH  21  24
HETATM   24  C   UNK N   1      28.451  17.673   7.158  0.00  0.00     0.129 C 
HETATM   25  C   UNK N   1      29.644  16.767   6.884  0.00  0.00     0.036 C 
BRANCH  24  26
HETATM   26  C   UNK N   1      28.370  18.098   8.636  0.00  0.00     0.071 C 
HETATM   27  C   UNK N   1      29.709  18.610   9.140  0.00  0.00     0.047 C 
HETATM   28  C   UNK N   1      27.946  16.918   9.500  0.00  0.00     0.047 C 
BRANCH  26  29
HETATM   29  O   UNK N   1      27.417  19.108   8.781  0.00  0.00    -0.389 OA
HETATM   30  H   UNK N   1      26.583  19.594   8.693  0.00  0.00     0.210 HD
ENDBRANCH  26  29
ENDBRANCH  24  26
ENDBRANCH  21  24
ENDBRANCH   1  14
BRANCH   2  31
HETATM   31  C   UNK N   1      24.046  14.027   2.046  0.00  0.00     0.058 A 
HETATM   32  C   UNK N   1      24.743  12.897   2.511  0.00  0.00     0.060 A 
HETATM   33 Cl   UNK N   1      25.437  12.867   4.125  0.00  0.00    -0.082 Cl
HETATM   34  C   UNK N   1      24.901  11.779   1.686  0.00  0.00     0.026 A 
HETATM   35  C   UNK N   1      24.370  11.778   0.395  0.00  0.00     0.002 A 
HETATM   36  C   UNK N   1      23.676  12.894  -0.075  0.00  0.00     0.002 A 
HETATM   37  C   UNK N   1      23.516  14.014   0.744  0.00  0.00     0.031 A 
ENDBRANCH   2  31
TORSDOF 7
ENDMDL
MODEL 6
REMARK VINA RESULT:      -6.9      4.960      7.512
REMARK  7 active torsions:
REMARK  status: ('A' for Active; 'I' for Inactive)
REMARK       I    between atoms: N_1  and  C_15 
REMARK    1  A    between atoms: N_1  and  C_17 
REMARK    2  A    between atoms: N_1  and  C_20 
REMARK    3  A    between atoms: C_2  and  O_18 
REMARK    4  A    between atoms: C_7  and  N_14 
REMARK       I    between atoms: N_14  and  C_15 
REMARK       I    between atoms: C_25  and  N_28 
REMARK    5  A    between atoms: N_28  and  C_29 
REMARK    6  A    between atoms: C_29  and  C_31 
REMARK    7  A    between atoms: C_31  and  O_34 
ROOT
HETATM    1  N   UNK N   1      23.994  15.343   4.410  0.00  0.00    -0.249 N 
HETATM    2  N   UNK N   1      22.441  14.585   6.057  0.00  0.00    -0.307 N 
HETATM    3  C   UNK N   1      23.730  14.785   5.654  0.00  0.00     0.333 C 
HETATM    4  O   UNK N   1      24.645  14.480   6.403  0.00  0.00    -0.246 OA
HETATM    5  H   UNK N   1      21.741  14.776   5.392  0.00  0.00     0.170 HD
ENDROOT
BRANCH   1   6
HETATM    6  C   UNK N   1      22.905  15.786   3.545  0.00  0.00     0.045 A 
HETATM    7  C   UNK N   1      22.312  17.052   3.725  0.00  0.00     0.033 A 
HETATM    8  C   UNK N   1      21.212  17.459   2.971  0.00  0.00     0.039 A 
HETATM    9  C   UNK N   1      20.669  16.607   2.004  0.00  0.00     0.068 A 
HETATM   10  C   UNK N   1      21.258  15.358   1.786  0.00  0.00     0.039 A 
HETATM   11  C   UNK N   1      22.361  14.955   2.546  0.00  0.00     0.033 A 
BRANCH   9  12
HETATM   12  O   UNK N   1      19.579  16.959   1.281  0.00  0.00    -0.356 OA
HETATM   13  C   UNK N   1      19.341  16.494   0.006  0.00  0.00     0.210 C 
ENDBRANCH   9  12
ENDBRANCH   1   6
BRANCH   1  14
HETATM   14  C   UNK N   1      25.363  15.591   3.976  0.00  0.00     0.133 A 
HETATM   15  C   UNK N   1      25.976  14.903   2.916  0.00  0.00     0.067 A 
HETATM   16  C   UNK N   1      27.321  15.165   2.623  0.00  0.00     0.110 A 
HETATM   17  N   UNK N   1      28.024  16.064   3.366  0.00  0.00    -0.202 N 
HETATM   18  C   UNK N   1      27.421  16.723   4.390  0.00  0.00     0.679 A 
ATOM     19  HN  UNK N   1      29.005  16.243   3.155  1.00  0.00     0.183 HD
HETATM   20  N   UNK N   1      26.123  16.471   4.672  0.00  0.00    -0.176 N 
HETATM   21  N   UNK N   1      28.152  17.630   5.203  0.00  0.00    -0.219 N 
ATOM     22  HN  UNK N   1      25.693  16.970   5.451  1.00  0.00     0.186 HD
HETATM   23  H   UNK N   1      29.115  17.752   5.044  0.00  0.00     0.178 HD
BRANCH  21  24
HETATM   24  C   UNK N   1      27.504  18.384   6.269  0.00  0.00     0.129 C 
HETATM   25  C   UNK N   1      28.514  18.643   7.380  0.00  0.00     0.036 C 
BRANCH  24  26
HETATM   26  C   UNK N   1      26.875  19.686   5.739  0.00  0.00     0.071 C 
HETATM   27  C   UNK N   1      27.553  20.150   4.461  0.00  0.00     0.047 C 
HETATM   28  C   UNK N   1      26.996  20.790   6.781  0.00  0.00     0.047 C 
BRANCH  26  29
HETATM   29  O   UNK N   1      25.519  19.478   5.480  0.00  0.00    -0.389 OA
HETATM   30  H   UNK N   1      24.644  19.061   5.483  0.00  0.00     0.210 HD
ENDBRANCH  26  29
ENDBRANCH  24  26
ENDBRANCH  21  24
ENDBRANCH   1  14
BRANCH   2  31
HETATM   31  C   UNK N   1      21.997  14.128   7.331  0.00  0.00     0.058 A 
HETATM   32  C   UNK N   1      21.289  15.011   8.166  0.00  0.00     0.060 A 
HETATM   33 Cl   UNK N   1      20.918  16.646   7.640  0.00  0.00    -0.082 Cl
HETATM   34  C   UNK N   1      20.876  14.599   9.437  0.00  0.00     0.026 A 
HETATM   35  C   UNK N   1      21.165  13.310   9.886  0.00  0.00     0.002 A 
HETATM   36  C   UNK N   1      21.866  12.426   9.065  0.00  0.00     0.002 A 
HETATM   37  C   UNK N   1      22.282  12.832   7.795  0.00  0.00     0.031 A 
ENDBRANCH   2  31
TORSDOF 7
ENDMDL
MODEL 7
REMARK VINA RESULT:      -6.9      2.823      5.276
REMARK  7 active torsions:
REMARK  status: ('A' for Active; 'I' for Inactive)
REMARK       I    between atoms: N_1  and  C_15 
REMARK    1  A    between atoms: N_1  and  C_17 
REMARK    2  A    between atoms: N_1  and  C_20 
REMARK    3  A    between atoms: C_2  and  O_18 
REMARK    4  A    between atoms: C_7  and  N_14 
REMARK       I    between atoms: N_14  and  C_15 
REMARK       I    between atoms: C_25  and  N_28 
REMARK    5  A    between atoms: N_28  and  C_29 
REMARK    6  A    between atoms: C_29  and  C_31 
REMARK    7  A    between atoms: C_31  and  O_34 
ROOT
HETATM    1  N   UNK N   1      27.376  17.010   6.803  0.00  0.00    -0.249 N 
HETATM    2  N   UNK N   1      25.854  17.893   5.190  0.00  0.00    -0.307 N 
HETATM    3  C   UNK N   1      26.856  18.086   6.096  0.00  0.00     0.333 C 
HETATM    4  O   UNK N   1      27.296  19.212   6.270  0.00  0.00    -0.246 OA
HETATM    5  H   UNK N   1      25.481  16.984   5.137  0.00  0.00     0.170 HD
ENDROOT
BRANCH   1   6
HETATM    6  C   UNK N   1      26.910  15.651   6.539  0.00  0.00     0.045 A 
HETATM    7  C   UNK N   1      27.498  14.874   5.520  0.00  0.00     0.033 A 
HETATM    8  C   UNK N   1      27.011  13.611   5.191  0.00  0.00     0.039 A 
HETATM    9  C   UNK N   1      25.915  13.078   5.879  0.00  0.00     0.068 A 
HETATM   10  C   UNK N   1      25.335  13.817   6.913  0.00  0.00     0.039 A 
HETATM   11  C   UNK N   1      25.827  15.085   7.238  0.00  0.00     0.033 A 
BRANCH   9  12
HETATM   12  O   UNK N   1      25.396  11.869   5.558  0.00  0.00    -0.356 OA
HETATM   13  C   UNK N   1      24.298  11.330   6.192  0.00  0.00     0.210 C 
ENDBRANCH   9  12
ENDBRANCH   1   6
BRANCH   1  14
HETATM   14  C   UNK N   1      28.465  17.193   7.753  0.00  0.00     0.133 A 
HETATM   15  C   UNK N   1      28.273  17.610   9.081  0.00  0.00     0.067 A 
HETATM   16  C   UNK N   1      29.393  17.825   9.894  0.00  0.00     0.110 A 
HETATM   17  N   UNK N   1      30.649  17.647   9.396  0.00  0.00    -0.202 N 
HETATM   18  C   UNK N   1      30.823  17.245   8.110  0.00  0.00     0.679 A 
ATOM     19  HN  UNK N   1      31.460  17.815   9.990  1.00  0.00     0.183 HD
HETATM   20  N   UNK N   1      29.742  17.036   7.326  0.00  0.00    -0.176 N 
HETATM   21  N   UNK N   1      32.125  17.099   7.563  0.00  0.00    -0.219 N 
ATOM     22  HN  UNK N   1      29.895  16.744   6.360  1.00  0.00     0.186 HD
HETATM   23  H   UNK N   1      32.908  17.327   8.113  0.00  0.00     0.178 HD
BRANCH  21  24
HETATM   24  C   UNK N   1      32.326  16.616   6.202  0.00  0.00     0.129 C 
HETATM   25  C   UNK N   1      33.466  17.396   5.560  0.00  0.00     0.036 C 
BRANCH  24  26
HETATM   26  C   UNK N   1      32.571  15.096   6.172  0.00  0.00     0.071 C 
HETATM   27  C   UNK N   1      33.631  14.684   7.180  0.00  0.00     0.047 C 
HETATM   28  C   UNK N   1      33.028  14.665   4.785  0.00  0.00     0.047 C 
BRANCH  26  29
HETATM   29  O   UNK N   1      31.383  14.425   6.467  0.00  0.00    -0.389 OA
HETATM   30  H   UNK N   1      30.699  13.962   6.975  0.00  0.00     0.210 HD
ENDBRANCH  26  29
ENDBRANCH  24  26
ENDBRANCH  21  24
ENDBRANCH   1  14
BRANCH   2  31
HETATM   31  C   UNK N   1      25.286  18.862   4.311  0.00  0.00     0.058 A 
HETATM   32  C   UNK N   1      23.887  19.002   4.260  0.00  0.00     0.060 A 
HETATM   33 Cl   UNK N   1      22.846  18.029   5.288  0.00  0.00    -0.082 Cl
HETATM   34  C   UNK N   1      23.304  19.917   3.378  0.00  0.00     0.026 A 
HETATM   35  C   UNK N   1      24.105  20.695   2.543  0.00  0.00     0.002 A 
HETATM   36  C   UNK N   1      25.494  20.564   2.586  0.00  0.00     0.002 A 
HETATM   37  C   UNK N   1      26.082  19.651   3.464  0.00  0.00     0.031 A 
ENDBRANCH   2  31
TORSDOF 7
ENDMDL
MODEL 8
REMARK VINA RESULT:      -6.7      2.827      3.992
REMARK  7 active torsions:
REMARK  status: ('A' for Active; 'I' for Inactive)
REMARK       I    between atoms: N_1  and  C_15 
REMARK    1  A    between atoms: N_1  and  C_17 
REMARK    2  A    between atoms: N_1  and  C_20 
REMARK    3  A    between atoms: C_2  and  O_18 
REMARK    4  A    between atoms: C_7  and  N_14 
REMARK       I    between atoms: N_14  and  C_15 
REMARK       I    between atoms: C_25  and  N_28 
REMARK    5  A    between atoms: N_28  and  C_29 
REMARK    6  A    between atoms: C_29  and  C_31 
REMARK    7  A    between atoms: C_31  and  O_34 
ROOT
HETATM    1  N   UNK N   1      29.092  16.766   4.896  0.00  0.00    -0.249 N 
HETATM    2  N   UNK N   1      26.983  15.704   5.245  0.00  0.00    -0.307 N 
HETATM    3  C   UNK N   1      28.300  15.625   4.898  0.00  0.00     0.333 C 
HETATM    4  O   UNK N   1      28.776  14.540   4.600  0.00  0.00    -0.246 OA
HETATM    5  H   UNK N   1      26.626  16.608   5.405  0.00  0.00     0.170 HD
ENDROOT
BRANCH   1   6
HETATM    6  C   UNK N   1      28.549  18.050   5.330  0.00  0.00     0.045 A 
HETATM    7  C   UNK N   1      28.467  18.371   6.700  0.00  0.00     0.033 A 
HETATM    8  C   UNK N   1      27.871  19.550   7.142  0.00  0.00     0.039 A 
HETATM    9  C   UNK N   1      27.336  20.456   6.219  0.00  0.00     0.068 A 
HETATM   10  C   UNK N   1      27.433  20.175   4.853  0.00  0.00     0.039 A 
HETATM   11  C   UNK N   1      28.032  18.989   4.417  0.00  0.00     0.033 A 
BRANCH   9  12
HETATM   12  O   UNK N   1      26.719  21.594   6.618  0.00  0.00    -0.356 OA
HETATM   13  C   UNK N   1      25.915  21.660   7.735  0.00  0.00     0.210 C 
ENDBRANCH   9  12
ENDBRANCH   1   6
BRANCH   1  14
HETATM   14  C   UNK N   1      30.507  16.696   4.556  0.00  0.00     0.133 A 
HETATM   15  C   UNK N   1      30.993  16.784   3.241  0.00  0.00     0.067 A 
HETATM   16  C   UNK N   1      32.367  16.633   3.013  0.00  0.00     0.110 A 
HETATM   17  N   UNK N   1      33.214  16.389   4.052  0.00  0.00    -0.202 N 
HETATM   18  C   UNK N   1      32.732  16.303   5.319  0.00  0.00     0.679 A 
ATOM     19  HN  UNK N   1      34.211  16.269   3.878  1.00  0.00     0.183 HD
HETATM   20  N   UNK N   1      31.406  16.451   5.540  0.00  0.00    -0.176 N 
HETATM   21  N   UNK N   1      33.595  16.004   6.408  0.00  0.00    -0.219 N 
ATOM     22  HN  UNK N   1      31.065  16.373   6.498  1.00  0.00     0.186 HD
HETATM   23  H   UNK N   1      34.546  15.820   6.233  0.00  0.00     0.178 HD
BRANCH  21  24
HETATM   24  C   UNK N   1      33.101  15.963   7.778  0.00  0.00     0.129 C 
HETATM   25  C   UNK N   1      33.763  14.804   8.512  0.00  0.00     0.036 C 
BRANCH  24  26
HETATM   26  C   UNK N   1      33.318  17.307   8.497  0.00  0.00     0.071 C 
HETATM   27  C   UNK N   1      32.035  18.119   8.557  0.00  0.00     0.047 C 
HETATM   28  C   UNK N   1      34.378  18.127   7.773  0.00  0.00     0.047 C 
BRANCH  26  29
HETATM   29  O   UNK N   1      33.763  17.073   9.800  0.00  0.00    -0.389 OA
HETATM   30  H   UNK N   1      33.998  17.235  10.727  0.00  0.00     0.210 HD
ENDBRANCH  26  29
ENDBRANCH  24  26
ENDBRANCH  21  24
ENDBRANCH   1  14
BRANCH   2  31
HETATM   31  C   UNK N   1      26.065  14.625   5.401  0.00  0.00     0.058 A 
HETATM   32  C   UNK N   1      25.315  14.198   4.290  0.00  0.00     0.060 A 
HETATM   33 Cl   UNK N   1      25.526  14.952   2.717  0.00  0.00    -0.082 Cl
HETATM   34  C   UNK N   1      24.379  13.168   4.426  0.00  0.00     0.026 A 
HETATM   35  C   UNK N   1      24.182  12.558   5.665  0.00  0.00     0.002 A 
HETATM   36  C   UNK N   1      24.922  12.973   6.773  0.00  0.00     0.002 A 
HETATM   37  C   UNK N   1      25.856  14.003   6.644  0.00  0.00     0.031 A 
ENDBRANCH   2  31
TORSDOF 7
ENDMDL
MODEL 9
REMARK VINA RESULT:      -6.6      3.737      5.326
REMARK  7 active torsions:
REMARK  status: ('A' for Active; 'I' for Inactive)
REMARK       I    between atoms: N_1  and  C_15 
REMARK    1  A    between atoms: N_1  and  C_17 
REMARK    2  A    between atoms: N_1  and  C_20 
REMARK    3  A    between atoms: C_2  and  O_18 
REMARK    4  A    between atoms: C_7  and  N_14 
REMARK       I    between atoms: N_14  and  C_15 
REMARK       I    between atoms: C_25  and  N_28 
REMARK    5  A    between atoms: N_28  and  C_29 
REMARK    6  A    between atoms: C_29  and  C_31 
REMARK    7  A    between atoms: C_31  and  O_34 
ROOT
HETATM    1  N   UNK N   1      24.961  16.683   3.775  0.00  0.00    -0.249 N 
HETATM    2  N   UNK N   1      24.122  14.721   2.704  0.00  0.00    -0.307 N 
HETATM    3  C   UNK N   1      25.020  15.748   2.750  0.00  0.00     0.333 C 
HETATM    4  O   UNK N   1      25.882  15.829   1.888  0.00  0.00    -0.246 OA
HETATM    5  H   UNK N   1      23.403  14.739   3.375  0.00  0.00     0.170 HD
ENDROOT
BRANCH   1   6
HETATM    6  C   UNK N   1      23.986  16.545   4.854  0.00  0.00     0.045 A 
HETATM    7  C   UNK N   1      24.131  15.541   5.832  0.00  0.00     0.033 A 
HETATM    8  C   UNK N   1      23.168  15.333   6.816  0.00  0.00     0.039 A 
HETATM    9  C   UNK N   1      22.019  16.131   6.856  0.00  0.00     0.068 A 
HETATM   10  C   UNK N   1      21.867  17.153   5.915  0.00  0.00     0.039 A 
HETATM   11  C   UNK N   1      22.837  17.357   4.929  0.00  0.00     0.033 A 
BRANCH   9  12
HETATM   12  O   UNK N   1      21.048  15.931   7.778  0.00  0.00    -0.356 OA
HETATM   13  C   UNK N   1      19.912  16.707   7.854  0.00  0.00     0.210 C 
ENDBRANCH   9  12
ENDBRANCH   1   6
BRANCH   1  14
HETATM   14  C   UNK N   1      25.929  17.768   3.857  0.00  0.00     0.133 A 
HETATM   15  C   UNK N   1      25.617  19.108   3.574  0.00  0.00     0.067 A 
HETATM   16  C   UNK N   1      26.638  20.067   3.612  0.00  0.00     0.110 A 
HETATM   17  N   UNK N   1      27.916  19.699   3.906  0.00  0.00    -0.202 N 
HETATM   18  C   UNK N   1      28.207  18.400   4.176  0.00  0.00     0.679 A 
ATOM     19  HN  UNK N   1      28.656  20.399   3.922  1.00  0.00     0.183 HD
HETATM   20  N   UNK N   1      27.222  17.475   4.141  0.00  0.00    -0.176 N 
HETATM   21  N   UNK N   1      29.542  17.993   4.439  0.00  0.00    -0.219 N 
ATOM     22  HN  UNK N   1      27.464  16.503   4.338  1.00  0.00     0.186 HD
HETATM   23  H   UNK N   1      30.268  18.655   4.388  0.00  0.00     0.178 HD
BRANCH  21  24
HETATM   24  C   UNK N   1      29.860  16.613   4.785  0.00  0.00     0.129 C 
HETATM   25  C   UNK N   1      30.497  15.932   3.581  0.00  0.00     0.036 C 
BRANCH  24  26
HETATM   26  C   UNK N   1      30.753  16.534   6.037  0.00  0.00     0.071 C 
HETATM   27  C   UNK N   1      30.124  17.261   7.214  0.00  0.00     0.047 C 
HETATM   28  C   UNK N   1      32.113  17.157   5.753  0.00  0.00     0.047 C 
BRANCH  26  29
HETATM   29  O   UNK N   1      30.950  15.197   6.387  0.00  0.00    -0.389 OA
HETATM   30  H   UNK N   1      31.013  14.396   6.930  0.00  0.00     0.210 HD
ENDBRANCH  26  29
ENDBRANCH  24  26
ENDBRANCH  21  24
ENDBRANCH   1  14
BRANCH   2  31
HETATM   31  C   UNK N   1      24.109  13.627   1.791  0.00  0.00     0.058 A 
HETATM   32  C   UNK N   1      24.795  12.447   2.128  0.00  0.00     0.060 A 
HETATM   33 Cl   UNK N   1      25.629  12.297   3.667  0.00  0.00    -0.082 Cl
HETATM   34  C   UNK N   1      24.830  11.373   1.232  0.00  0.00     0.026 A 
HETATM   35  C   UNK N   1      24.186  11.467  -0.002  0.00  0.00     0.002 A 
HETATM   36  C   UNK N   1      23.501  12.634  -0.345  0.00  0.00     0.002 A 
HETATM   37  C   UNK N   1      23.464  13.709   0.545  0.00  0.00     0.031 A 
ENDBRANCH   2  31
TORSDOF 7
ENDMDL
