MODEL 1
REMARK VINA RESULT:      -8.8      0.000      0.000
REMARK  3 active torsions:
REMARK  status: ('A' for Active; 'I' for Inactive)
REMARK       I    between atoms: C_1  and  N_17 
REMARK       I    between atoms: C_2  and  N_4 
REMARK    1  A    between atoms: C_3  and  N_23 
REMARK    2  A    between atoms: N_4  and  C_5 
REMARK    3  A    between atoms: C_6  and  N_17 
ROOT
HETATM    1  C   UNK N   1      33.642  15.124   9.838  0.00  0.00     0.684 A 
HETATM    2  C   UNK N   1      36.163  14.119  13.331  0.00  0.00     0.687 A 
HETATM    3  N   UNK N   1      36.890  13.638  14.464  0.00  0.00    -0.190 N 
HETATM    4  N   UNK N   1      32.589  14.949   8.901  0.00  0.00    -0.185 N 
HETATM    5  N   UNK N   1      34.365  16.294   9.917  0.00  0.00    -0.199 N 
ATOM      6  HN  UNK N   1      34.172  17.045   9.255  1.00  0.00     0.183 HD
HETATM    7  N   UNK N   1      33.875  14.122  10.736  0.00  0.00    -0.173 N 
ATOM      8  HN  UNK N   1      33.342  13.253  10.696  1.00  0.00     0.186 HD
HETATM    9  C   UNK N   1      34.826  14.304  11.678  0.00  0.00     0.167 A 
HETATM   10  N   UNK N   1      35.188  13.451  12.643  0.00  0.00    -0.166 N 
HETATM   11  C   UNK N   1      35.553  15.433  11.763  0.00  0.00     0.110 A 
HETATM   12  C   UNK N   1      35.340  16.469  10.866  0.00  0.00     0.140 A 
HETATM   13  N   UNK N   1      36.418  15.345  12.792  0.00  0.00    -0.186 N 
ATOM     14  HN  UNK N   1      37.104  16.035  13.097  1.00  0.00     0.184 HD
HETATM   15  H   UNK N   1      37.798  14.004  14.571  0.00  0.00     0.184 HD
HETATM   16  H   UNK N   1      32.021  14.163   9.075  0.00  0.00     0.184 HD
ENDROOT
BRANCH   4  17
HETATM   17  C   UNK N   1      32.204  15.705   7.754  0.00  0.00     0.126 A 
HETATM   18  C   UNK N   1      31.091  16.551   7.889  0.00  0.00     0.146 A 
HETATM   19  C   UNK N   1      30.629  17.304   6.808  0.00  0.00     0.045 A 
HETATM   20  F   UNK N   1      30.448  16.643   9.081  0.00  0.00    -0.204 F 
HETATM   21  C   UNK N   1      31.270  17.219   5.574  0.00  0.00     0.006 A 
HETATM   22  C   UNK N   1      32.369  16.375   5.418  0.00  0.00     0.045 A 
HETATM   23  C   UNK N   1      32.844  15.615   6.492  0.00  0.00     0.146 A 
HETATM   24  F   UNK N   1      33.883  14.782   6.268  0.00  0.00    -0.204 F 
ENDBRANCH   4  17
BRANCH  10  25
HETATM   25  C   UNK N   1      34.643  12.109  12.818  0.00  0.00     0.145 C 
HETATM   26  C   UNK N   1      35.364  11.120  11.916  0.00  0.00     0.027 C 
ENDBRANCH  10  25
BRANCH   3  27
HETATM   27  C   UNK N   1      36.480  12.703  15.460  0.00  0.00     0.070 A 
HETATM   28  C   UNK N   1      35.602  13.059  16.492  0.00  0.00     0.032 A 
HETATM   29  C   UNK N   1      35.231  12.134  17.470  0.00  0.00     0.002 A 
HETATM   30  C   UNK N   1      35.753  10.841  17.438  0.00  0.00     0.002 A 
HETATM   31  C   UNK N   1      36.654  10.479  16.435  0.00  0.00     0.026 A 
HETATM   32  C   UNK N   1      37.020  11.402  15.449  0.00  0.00     0.061 A 
HETATM   33 Cl   UNK N   1      38.174  10.914  14.218  0.00  0.00    -0.082 Cl
ENDBRANCH   3  27
TORSDOF 3
ENDMDL
MODEL 2
REMARK VINA RESULT:      -8.8      0.169      1.578
REMARK  3 active torsions:
REMARK  status: ('A' for Active; 'I' for Inactive)
REMARK       I    between atoms: C_1  and  N_17 
REMARK       I    between atoms: C_2  and  N_4 
REMARK    1  A    between atoms: C_3  and  N_23 
REMARK    2  A    between atoms: N_4  and  C_5 
REMARK    3  A    between atoms: C_6  and  N_17 
ROOT
HETATM    1  C   UNK N   1      33.650  15.114   9.848  0.00  0.00     0.684 A 
HETATM    2  C   UNK N   1      36.166  14.104  13.343  0.00  0.00     0.687 A 
HETATM    3  N   UNK N   1      36.892  13.621  14.476  0.00  0.00    -0.190 N 
HETATM    4  N   UNK N   1      32.599  14.938   8.908  0.00  0.00    -0.185 N 
HETATM    5  N   UNK N   1      34.367  16.287   9.935  0.00  0.00    -0.199 N 
ATOM      6  HN  UNK N   1      34.171  17.041   9.277  1.00  0.00     0.183 HD
HETATM    7  N   UNK N   1      33.885  14.108  10.742  0.00  0.00    -0.173 N 
ATOM      8  HN  UNK N   1      33.357  13.237  10.696  1.00  0.00     0.186 HD
HETATM    9  C   UNK N   1      34.832  14.291  11.688  0.00  0.00     0.167 A 
HETATM   10  N   UNK N   1      35.195  13.435  12.650  0.00  0.00    -0.166 N 
HETATM   11  C   UNK N   1      35.553  15.423  11.781  0.00  0.00     0.110 A 
HETATM   12  C   UNK N   1      35.337  16.463  10.888  0.00  0.00     0.140 A 
HETATM   13  N   UNK N   1      36.416  15.335  12.811  0.00  0.00    -0.186 N 
ATOM     14  HN  UNK N   1      37.097  16.027  13.122  1.00  0.00     0.184 HD
HETATM   15  H   UNK N   1      37.797  13.991  14.588  0.00  0.00     0.184 HD
HETATM   16  H   UNK N   1      32.035  14.149   9.076  0.00  0.00     0.184 HD
ENDROOT
BRANCH   4  17
HETATM   17  C   UNK N   1      32.215  15.698   7.763  0.00  0.00     0.126 A 
HETATM   18  C   UNK N   1      33.033  15.600   6.626  0.00  0.00     0.146 A 
HETATM   19  C   UNK N   1      32.746  16.334   5.473  0.00  0.00     0.045 A 
HETATM   20  F   UNK N   1      34.120  14.787   6.639  0.00  0.00    -0.204 F 
HETATM   21  C   UNK N   1      31.640  17.179   5.441  0.00  0.00     0.006 A 
HETATM   22  C   UNK N   1      30.823  17.299   6.565  0.00  0.00     0.045 A 
HETATM   23  C   UNK N   1      31.098  16.570   7.727  0.00  0.00     0.146 A 
HETATM   24  F   UNK N   1      30.297  16.762   8.798  0.00  0.00    -0.204 F 
ENDBRANCH   4  17
BRANCH  10  25
HETATM   25  C   UNK N   1      34.658  12.090  12.816  0.00  0.00     0.145 C 
HETATM   26  C   UNK N   1      35.385  11.109  11.909  0.00  0.00     0.027 C 
ENDBRANCH  10  25
BRANCH   3  27
HETATM   27  C   UNK N   1      36.484  12.679  15.466  0.00  0.00     0.070 A 
HETATM   28  C   UNK N   1      35.602  13.026  16.498  0.00  0.00     0.032 A 
HETATM   29  C   UNK N   1      35.233  12.093  17.470  0.00  0.00     0.002 A 
HETATM   30  C   UNK N   1      35.761  10.803  17.433  0.00  0.00     0.002 A 
HETATM   31  C   UNK N   1      36.666  10.451  16.429  0.00  0.00     0.026 A 
HETATM   32  C   UNK N   1      37.030  11.381  15.450  0.00  0.00     0.061 A 
HETATM   33 Cl   UNK N   1      38.188  10.905  14.219  0.00  0.00    -0.082 Cl
ENDBRANCH   3  27
TORSDOF 3
ENDMDL
MODEL 3
REMARK VINA RESULT:      -8.6      3.489      8.890
REMARK  3 active torsions:
REMARK  status: ('A' for Active; 'I' for Inactive)
REMARK       I    between atoms: C_1  and  N_17 
REMARK       I    between atoms: C_2  and  N_4 
REMARK    1  A    between atoms: C_3  and  N_23 
REMARK    2  A    between atoms: N_4  and  C_5 
REMARK    3  A    between atoms: C_6  and  N_17 
ROOT
HETATM    1  C   UNK N   1      34.974  13.138  12.316  0.00  0.00     0.684 A 
HETATM    2  C   UNK N   1      34.058  16.567   9.677  0.00  0.00     0.687 A 
HETATM    3  N   UNK N   1      33.646  17.567   8.741  0.00  0.00    -0.190 N 
HETATM    4  N   UNK N   1      34.926  11.789  12.760  0.00  0.00    -0.185 N 
HETATM    5  N   UNK N   1      35.848  14.056  12.856  0.00  0.00    -0.199 N 
ATOM      6  HN  UNK N   1      36.451  13.775  13.629  1.00  0.00     0.183 HD
HETATM    7  N   UNK N   1      34.180  13.496  11.263  0.00  0.00    -0.173 N 
ATOM      8  HN  UNK N   1      33.534  12.825  10.847  1.00  0.00     0.186 HD
HETATM    9  C   UNK N   1      34.268  14.755  10.785  0.00  0.00     0.167 A 
HETATM   10  N   UNK N   1      33.588  15.286   9.762  0.00  0.00    -0.166 N 
HETATM   11  C   UNK N   1      35.104  15.671  11.308  0.00  0.00     0.110 A 
HETATM   12  C   UNK N   1      35.923  15.338  12.377  0.00  0.00     0.140 A 
HETATM   13  N   UNK N   1      34.989  16.834  10.637  0.00  0.00    -0.186 N 
ATOM     14  HN  UNK N   1      35.483  17.709  10.807  1.00  0.00     0.184 HD
HETATM   15  H   UNK N   1      33.727  18.497   9.052  0.00  0.00     0.184 HD
HETATM   16  H   UNK N   1      34.417  11.188  12.169  0.00  0.00     0.184 HD
ENDROOT
BRANCH   4  17
HETATM   17  C   UNK N   1      35.482  11.147  13.906  0.00  0.00     0.126 A 
HETATM   18  C   UNK N   1      34.581  10.673  14.874  0.00  0.00     0.146 A 
HETATM   19  C   UNK N   1      35.042  10.059  16.040  0.00  0.00     0.045 A 
HETATM   20  F   UNK N   1      33.244  10.810  14.682  0.00  0.00    -0.204 F 
HETATM   21  C   UNK N   1      36.410   9.914  16.259  0.00  0.00     0.006 A 
HETATM   22  C   UNK N   1      37.319  10.391  15.315  0.00  0.00     0.045 A 
HETATM   23  C   UNK N   1      36.873  11.007  14.142  0.00  0.00     0.146 A 
HETATM   24  F   UNK N   1      37.801  11.488  13.287  0.00  0.00    -0.204 F 
ENDBRANCH   4  17
BRANCH  10  25
HETATM   25  C   UNK N   1      32.558  14.593   8.997  0.00  0.00     0.145 C 
HETATM   26  C   UNK N   1      33.174  13.857   7.817  0.00  0.00     0.027 C 
ENDBRANCH  10  25
BRANCH   3  27
HETATM   27  C   UNK N   1      33.137  17.400   7.419  0.00  0.00     0.070 A 
HETATM   28  C   UNK N   1      33.983  17.284   6.309  0.00  0.00     0.032 A 
HETATM   29  C   UNK N   1      33.462  17.145   5.021  0.00  0.00     0.002 A 
HETATM   30  C   UNK N   1      32.082  17.140   4.825  0.00  0.00     0.002 A 
HETATM   31  C   UNK N   1      31.224  17.286   5.918  0.00  0.00     0.026 A 
HETATM   32  C   UNK N   1      31.744  17.418   7.210  0.00  0.00     0.061 A 
HETATM   33 Cl   UNK N   1      30.631  17.623   8.553  0.00  0.00    -0.082 Cl
ENDBRANCH   3  27
TORSDOF 3
ENDMDL
MODEL 4
REMARK VINA RESULT:      -7.9      5.758      8.620
REMARK  3 active torsions:
REMARK  status: ('A' for Active; 'I' for Inactive)
REMARK       I    between atoms: C_1  and  N_17 
REMARK       I    between atoms: C_2  and  N_4 
REMARK    1  A    between atoms: C_3  and  N_23 
REMARK    2  A    between atoms: N_4  and  C_5 
REMARK    3  A    between atoms: C_6  and  N_17 
ROOT
HETATM    1  C   UNK N   1      27.513  18.394   5.552  0.00  0.00     0.684 A 
HETATM    2  C   UNK N   1      30.886  17.546   8.285  0.00  0.00     0.687 A 
HETATM    3  N   UNK N   1      32.049  17.182   9.032  0.00  0.00    -0.190 N 
HETATM    4  N   UNK N   1      26.743  18.283   4.362  0.00  0.00    -0.185 N 
HETATM    5  N   UNK N   1      27.040  19.039   6.673  0.00  0.00    -0.199 N 
ATOM      6  HN  UNK N   1      26.127  19.492   6.640  1.00  0.00     0.183 HD
HETATM    7  N   UNK N   1      28.723  17.761   5.594  0.00  0.00    -0.173 N 
ATOM      8  HN  UNK N   1      29.083  17.272   4.774  1.00  0.00     0.186 HD
HETATM    9  C   UNK N   1      29.433  17.797   6.742  0.00  0.00     0.167 A 
HETATM   10  N   UNK N   1      30.623  17.233   6.980  0.00  0.00    -0.166 N 
HETATM   11  C   UNK N   1      28.996  18.435   7.844  0.00  0.00     0.110 A 
HETATM   12  C   UNK N   1      27.771  19.086   7.832  0.00  0.00     0.140 A 
HETATM   13  N   UNK N   1      29.897  18.306   8.837  0.00  0.00    -0.186 N 
ATOM     14  HN  UNK N   1      29.849  18.687   9.781  1.00  0.00     0.184 HD
HETATM   15  H   UNK N   1      32.299  17.801   9.756  0.00  0.00     0.184 HD
HETATM   16  H   UNK N   1      27.097  17.634   3.712  0.00  0.00     0.184 HD
ENDROOT
BRANCH   4  17
HETATM   17  C   UNK N   1      25.551  18.942   3.940  0.00  0.00     0.126 A 
HETATM   18  C   UNK N   1      24.330  18.341   4.290  0.00  0.00     0.146 A 
HETATM   19  C   UNK N   1      23.116  18.904   3.891  0.00  0.00     0.045 A 
HETATM   20  F   UNK N   1      24.320  17.198   5.022  0.00  0.00    -0.204 F 
HETATM   21  C   UNK N   1      23.103  20.073   3.134  0.00  0.00     0.006 A 
HETATM   22  C   UNK N   1      24.306  20.676   2.767  0.00  0.00     0.045 A 
HETATM   23  C   UNK N   1      25.530  20.125   3.159  0.00  0.00     0.146 A 
HETATM   24  F   UNK N   1      26.661  20.729   2.735  0.00  0.00    -0.204 F 
ENDBRANCH   4  17
BRANCH  10  25
HETATM   25  C   UNK N   1      31.414  16.506   5.994  0.00  0.00     0.145 C 
HETATM   26  C   UNK N   1      32.499  17.402   5.416  0.00  0.00     0.027 C 
ENDBRANCH  10  25
BRANCH   3  27
HETATM   27  C   UNK N   1      32.895  16.044   8.874  0.00  0.00     0.070 A 
HETATM   28  C   UNK N   1      32.446  14.745   9.148  0.00  0.00     0.032 A 
HETATM   29  C   UNK N   1      33.299  13.648   9.007  0.00  0.00     0.002 A 
HETATM   30  C   UNK N   1      34.621  13.840   8.610  0.00  0.00     0.002 A 
HETATM   31  C   UNK N   1      35.093  15.131   8.365  0.00  0.00     0.026 A 
HETATM   32  C   UNK N   1      34.238  16.231   8.496  0.00  0.00     0.061 A 
HETATM   33 Cl   UNK N   1      34.878  17.840   8.200  0.00  0.00    -0.082 Cl
ENDBRANCH   3  27
TORSDOF 3
ENDMDL
MODEL 5
REMARK VINA RESULT:      -7.6      1.909      2.202
REMARK  3 active torsions:
REMARK  status: ('A' for Active; 'I' for Inactive)
REMARK       I    between atoms: C_1  and  N_17 
REMARK       I    between atoms: C_2  and  N_4 
REMARK    1  A    between atoms: C_3  and  N_23 
REMARK    2  A    between atoms: N_4  and  C_5 
REMARK    3  A    between atoms: C_6  and  N_17 
ROOT
HETATM    1  C   UNK N   1      34.695  14.316  10.081  0.00  0.00     0.684 A 
HETATM    2  C   UNK N   1      36.716  12.122  13.347  0.00  0.00     0.687 A 
HETATM    3  N   UNK N   1      37.206  11.354  14.449  0.00  0.00    -0.190 N 
HETATM    4  N   UNK N   1      33.592  14.820   9.341  0.00  0.00    -0.185 N 
HETATM    5  N   UNK N   1      35.988  14.723   9.837  0.00  0.00    -0.199 N 
ATOM      6  HN  UNK N   1      36.171  15.372   9.072  1.00  0.00     0.183 HD
HETATM    7  N   UNK N   1      34.436  13.468  11.120  0.00  0.00    -0.173 N 
ATOM      8  HN  UNK N   1      33.483  13.165  11.319  1.00  0.00     0.186 HD
HETATM    9  C   UNK N   1      35.468  13.038  11.877  0.00  0.00     0.167 A 
HETATM   10  N   UNK N   1      35.415  12.221  12.935  0.00  0.00    -0.166 N 
HETATM   11  C   UNK N   1      36.741  13.411  11.646  0.00  0.00     0.110 A 
HETATM   12  C   UNK N   1      37.035  14.272  10.599  0.00  0.00     0.140 A 
HETATM   13  N   UNK N   1      37.558  12.840  12.551  0.00  0.00    -0.186 N 
ATOM     14  HN  UNK N   1      38.571  12.925  12.625  1.00  0.00     0.184 HD
HETATM   15  H   UNK N   1      38.134  11.037  14.365  0.00  0.00     0.184 HD
HETATM   16  H   UNK N   1      32.713  14.617   9.737  0.00  0.00     0.184 HD
ENDROOT
BRANCH   4  17
HETATM   17  C   UNK N   1      33.527  15.568   8.128  0.00  0.00     0.126 A 
HETATM   18  C   UNK N   1      33.766  16.950   8.215  0.00  0.00     0.146 A 
HETATM   19  C   UNK N   1      33.692  17.761   7.081  0.00  0.00     0.045 A 
HETATM   20  F   UNK N   1      34.070  17.513   9.412  0.00  0.00    -0.204 F 
HETATM   21  C   UNK N   1      33.374  17.206   5.844  0.00  0.00     0.006 A 
HETATM   22  C   UNK N   1      33.121  15.838   5.741  0.00  0.00     0.045 A 
HETATM   23  C   UNK N   1      33.192  15.012   6.868  0.00  0.00     0.146 A 
HETATM   24  F   UNK N   1      32.893  13.704   6.714  0.00  0.00    -0.204 F 
ENDBRANCH   4  17
BRANCH  10  25
HETATM   25  C   UNK N   1      34.203  11.584  13.437  0.00  0.00     0.145 C 
HETATM   26  C   UNK N   1      34.074  10.173  12.885  0.00  0.00     0.027 C 
ENDBRANCH  10  25
BRANCH   3  27
HETATM   27  C   UNK N   1      36.535  10.985  15.653  0.00  0.00     0.070 A 
HETATM   28  C   UNK N   1      36.312   9.645  15.995  0.00  0.00     0.032 A 
HETATM   29  C   UNK N   1      35.633   9.307  17.168  0.00  0.00     0.002 A 
HETATM   30  C   UNK N   1      35.149  10.312  18.005  0.00  0.00     0.002 A 
HETATM   31  C   UNK N   1      35.335  11.653  17.663  0.00  0.00     0.026 A 
HETATM   32  C   UNK N   1      36.022  11.993  16.492  0.00  0.00     0.061 A 
HETATM   33 Cl   UNK N   1      36.214  13.691  16.087  0.00  0.00    -0.082 Cl
ENDBRANCH   3  27
TORSDOF 3
ENDMDL
MODEL 6
REMARK VINA RESULT:      -7.5      5.688      8.887
REMARK  3 active torsions:
REMARK  status: ('A' for Active; 'I' for Inactive)
REMARK       I    between atoms: C_1  and  N_17 
REMARK       I    between atoms: C_2  and  N_4 
REMARK    1  A    between atoms: C_3  and  N_23 
REMARK    2  A    between atoms: N_4  and  C_5 
REMARK    3  A    between atoms: C_6  and  N_17 
ROOT
HETATM    1  C   UNK N   1      27.400  17.913   5.388  0.00  0.00     0.684 A 
HETATM    2  C   UNK N   1      31.128  15.783   6.451  0.00  0.00     0.687 A 
HETATM    3  N   UNK N   1      32.309  15.159   6.961  0.00  0.00    -0.190 N 
HETATM    4  N   UNK N   1      26.301  18.790   5.589  0.00  0.00    -0.185 N 
HETATM    5  N   UNK N   1      27.698  17.382   4.151  0.00  0.00    -0.199 N 
ATOM      6  HN  UNK N   1      27.087  17.587   3.361  1.00  0.00     0.183 HD
HETATM    7  N   UNK N   1      28.226  17.666   6.447  0.00  0.00    -0.173 N 
ATOM      8  HN  UNK N   1      28.024  18.058   7.367  1.00  0.00     0.186 HD
HETATM    9  C   UNK N   1      29.315  16.891   6.253  0.00  0.00     0.167 A 
HETATM   10  N   UNK N   1      30.241  16.548   7.156  0.00  0.00    -0.166 N 
HETATM   11  C   UNK N   1      29.615  16.351   5.057  0.00  0.00     0.110 A 
HETATM   12  C   UNK N   1      28.796  16.584   3.962  0.00  0.00     0.140 A 
HETATM   13  N   UNK N   1      30.751  15.633   5.150  0.00  0.00    -0.186 N 
ATOM     14  HN  UNK N   1      31.220  15.103   4.417  1.00  0.00     0.184 HD
HETATM   15  H   UNK N   1      32.588  14.337   6.497  0.00  0.00     0.184 HD
HETATM   16  H   UNK N   1      26.313  19.259   6.455  0.00  0.00     0.184 HD
ENDROOT
BRANCH   4  17
HETATM   17  C   UNK N   1      25.184  19.116   4.763  0.00  0.00     0.126 A 
HETATM   18  C   UNK N   1      25.331  20.207   3.890  0.00  0.00     0.146 A 
HETATM   19  C   UNK N   1      24.277  20.612   3.068  0.00  0.00     0.045 A 
HETATM   20  F   UNK N   1      26.507  20.883   3.839  0.00  0.00    -0.204 F 
HETATM   21  C   UNK N   1      23.060  19.936   3.110  0.00  0.00     0.006 A 
HETATM   22  C   UNK N   1      22.892  18.859   3.979  0.00  0.00     0.045 A 
HETATM   23  C   UNK N   1      23.939  18.441   4.808  0.00  0.00     0.146 A 
HETATM   24  F   UNK N   1      23.702  17.420   5.661  0.00  0.00    -0.204 F 
ENDBRANCH   4  17
BRANCH  10  25
HETATM   25  C   UNK N   1      30.205  16.914   8.568  0.00  0.00     0.145 C 
HETATM   26  C   UNK N   1      30.759  18.316   8.769  0.00  0.00     0.027 C 
ENDBRANCH  10  25
BRANCH   3  27
HETATM   27  C   UNK N   1      33.140  15.565   8.047  0.00  0.00     0.070 A 
HETATM   28  C   UNK N   1      33.181  14.853   9.253  0.00  0.00     0.032 A 
HETATM   29  C   UNK N   1      33.985  15.282  10.312  0.00  0.00     0.002 A 
HETATM   30  C   UNK N   1      34.743  16.445  10.183  0.00  0.00     0.002 A 
HETATM   31  C   UNK N   1      34.688  17.184   9.000  0.00  0.00     0.026 A 
HETATM   32  C   UNK N   1      33.891  16.752   7.935  0.00  0.00     0.061 A 
HETATM   33 Cl   UNK N   1      33.832  17.722   6.472  0.00  0.00    -0.082 Cl
ENDBRANCH   3  27
TORSDOF 3
ENDMDL
MODEL 7
REMARK VINA RESULT:      -7.4      7.486     10.973
REMARK  3 active torsions:
REMARK  status: ('A' for Active; 'I' for Inactive)
REMARK       I    between atoms: C_1  and  N_17 
REMARK       I    between atoms: C_2  and  N_4 
REMARK    1  A    between atoms: C_3  and  N_23 
REMARK    2  A    between atoms: N_4  and  C_5 
REMARK    3  A    between atoms: C_6  and  N_17 
ROOT
HETATM    1  C   UNK N   1      25.355  17.982   4.502  0.00  0.00     0.684 A 
HETATM    2  C   UNK N   1      29.181  16.043   5.582  0.00  0.00     0.687 A 
HETATM    3  N   UNK N   1      30.435  15.545   6.056  0.00  0.00    -0.190 N 
HETATM    4  N   UNK N   1      24.352  18.988   4.534  0.00  0.00    -0.185 N 
HETATM    5  N   UNK N   1      25.346  16.967   3.570  0.00  0.00    -0.199 N 
ATOM      6  HN  UNK N   1      24.573  16.906   2.908  1.00  0.00     0.183 HD
HETATM    7  N   UNK N   1      26.400  18.089   5.376  0.00  0.00    -0.173 N 
ATOM      8  HN  UNK N   1      26.425  18.840   6.066  1.00  0.00     0.186 HD
HETATM    9  C   UNK N   1      27.396  17.181   5.309  0.00  0.00     0.167 A 
HETATM   10  N   UNK N   1      28.499  17.126   6.065  0.00  0.00    -0.166 N 
HETATM   11  C   UNK N   1      27.398  16.173   4.416  0.00  0.00     0.110 A 
HETATM   12  C   UNK N   1      26.353  16.038   3.515  0.00  0.00     0.140 A 
HETATM   13  N   UNK N   1      28.509  15.427   4.569  0.00  0.00    -0.186 N 
ATOM     14  HN  UNK N   1      28.783  14.595   4.048  1.00  0.00     0.184 HD
HETATM   15  H   UNK N   1      30.580  14.579   5.934  0.00  0.00     0.184 HD
HETATM   16  H   UNK N   1      24.575  19.761   5.102  0.00  0.00     0.184 HD
ENDROOT
BRANCH   4  17
HETATM   17  C   UNK N   1      23.082  19.081   3.892  0.00  0.00     0.126 A 
HETATM   18  C   UNK N   1      22.876  20.176   3.036  0.00  0.00     0.146 A 
HETATM   19  C   UNK N   1      21.651  20.359   2.392  0.00  0.00     0.045 A 
HETATM   20  F   UNK N   1      23.873  21.073   2.829  0.00  0.00    -0.204 F 
HETATM   21  C   UNK N   1      20.612  19.454   2.596  0.00  0.00     0.006 A 
HETATM   22  C   UNK N   1      20.794  18.368   3.452  0.00  0.00     0.045 A 
HETATM   23  C   UNK N   1      22.016  18.171   4.104  0.00  0.00     0.146 A 
HETATM   24  F   UNK N   1      22.117  17.127   4.956  0.00  0.00    -0.204 F 
ENDBRANCH   4  17
BRANCH  10  25
HETATM   25  C   UNK N   1      28.800  18.031   7.168  0.00  0.00     0.145 C 
HETATM   26  C   UNK N   1      28.195  17.512   8.464  0.00  0.00     0.027 C 
ENDBRANCH  10  25
BRANCH   3  27
HETATM   27  C   UNK N   1      31.503  16.255   6.679  0.00  0.00     0.070 A 
HETATM   28  C   UNK N   1      31.674  16.263   8.070  0.00  0.00     0.032 A 
HETATM   29  C   UNK N   1      32.715  16.983   8.660  0.00  0.00     0.002 A 
HETATM   30  C   UNK N   1      33.587  17.725   7.865  0.00  0.00     0.002 A 
HETATM   31  C   UNK N   1      33.411  17.753   6.480  0.00  0.00     0.026 A 
HETATM   32  C   UNK N   1      32.375  17.025   5.885  0.00  0.00     0.061 A 
HETATM   33 Cl   UNK N   1      32.174  17.107   4.143  0.00  0.00    -0.082 Cl
ENDBRANCH   3  27
TORSDOF 3
ENDMDL
MODEL 8
REMARK VINA RESULT:      -7.4      1.990      2.426
REMARK  3 active torsions:
REMARK  status: ('A' for Active; 'I' for Inactive)
REMARK       I    between atoms: C_1  and  N_17 
REMARK       I    between atoms: C_2  and  N_4 
REMARK    1  A    between atoms: C_3  and  N_23 
REMARK    2  A    between atoms: N_4  and  C_5 
REMARK    3  A    between atoms: C_6  and  N_17 
ROOT
HETATM    1  C   UNK N   1      34.751  14.370  10.435  0.00  0.00     0.684 A 
HETATM    2  C   UNK N   1      36.669  11.803  13.484  0.00  0.00     0.687 A 
HETATM    3  N   UNK N   1      37.124  10.920  14.512  0.00  0.00    -0.190 N 
HETATM    4  N   UNK N   1      33.672  14.995   9.753  0.00  0.00    -0.185 N 
HETATM    5  N   UNK N   1      36.064  14.721  10.207  0.00  0.00    -0.199 N 
ATOM      6  HN  UNK N   1      36.277  15.419   9.496  1.00  0.00     0.183 HD
HETATM    7  N   UNK N   1      34.453  13.455  11.404  0.00  0.00    -0.173 N 
ATOM      8  HN  UNK N   1      33.485  13.191  11.590  1.00  0.00     0.186 HD
HETATM    9  C   UNK N   1      35.464  12.906  12.110  0.00  0.00     0.167 A 
HETATM   10  N   UNK N   1      35.373  12.009  13.098  0.00  0.00    -0.166 N 
HETATM   11  C   UNK N   1      36.754  13.224  11.893  0.00  0.00     0.110 A 
HETATM   12  C   UNK N   1      37.089  14.150  10.916  0.00  0.00     0.140 A 
HETATM   13  N   UNK N   1      37.545  12.535  12.738  0.00  0.00    -0.186 N 
ATOM     14  HN  UNK N   1      38.562  12.556  12.804  1.00  0.00     0.184 HD
HETATM   15  H   UNK N   1      38.031  10.559  14.390  0.00  0.00     0.184 HD
HETATM   16  H   UNK N   1      32.787  14.810  10.142  0.00  0.00     0.184 HD
ENDROOT
BRANCH   4  17
HETATM   17  C   UNK N   1      33.640  15.843   8.606  0.00  0.00     0.126 A 
HETATM   18  C   UNK N   1      33.013  15.337   7.454  0.00  0.00     0.146 A 
HETATM   19  C   UNK N   1      32.963  16.090   6.279  0.00  0.00     0.045 A 
HETATM   20  F   UNK N   1      32.449  14.103   7.475  0.00  0.00    -0.204 F 
HETATM   21  C   UNK N   1      33.543  17.355   6.235  0.00  0.00     0.006 A 
HETATM   22  C   UNK N   1      34.180  17.868   7.364  0.00  0.00     0.045 A 
HETATM   23  C   UNK N   1      34.237  17.127   8.550  0.00  0.00     0.146 A 
HETATM   24  F   UNK N   1      34.907  17.657   9.596  0.00  0.00    -0.204 F 
ENDBRANCH   4  17
BRANCH  10  25
HETATM   25  C   UNK N   1      34.130  11.403  13.563  0.00  0.00     0.145 C 
HETATM   26  C   UNK N   1      33.890  10.075  12.861  0.00  0.00     0.027 C 
ENDBRANCH  10  25
BRANCH   3  27
HETATM   27  C   UNK N   1      36.443  10.492  15.691  0.00  0.00     0.070 A 
HETATM   28  C   UNK N   1      36.121  11.383  16.723  0.00  0.00     0.032 A 
HETATM   29  C   UNK N   1      35.474  10.938  17.878  0.00  0.00     0.002 A 
HETATM   30  C   UNK N   1      35.159   9.588  18.024  0.00  0.00     0.002 A 
HETATM   31  C   UNK N   1      35.502   8.682  17.018  0.00  0.00     0.026 A 
HETATM   32  C   UNK N   1      36.142   9.126  15.856  0.00  0.00     0.061 A 
HETATM   33 Cl   UNK N   1      36.577   7.951  14.626  0.00  0.00    -0.082 Cl
ENDBRANCH   3  27
TORSDOF 3
ENDMDL
MODEL 9
REMARK VINA RESULT:      -7.1      5.556      8.480
REMARK  3 active torsions:
REMARK  status: ('A' for Active; 'I' for Inactive)
REMARK       I    between atoms: C_1  and  N_17 
REMARK       I    between atoms: C_2  and  N_4 
REMARK    1  A    between atoms: C_3  and  N_23 
REMARK    2  A    between atoms: N_4  and  C_5 
REMARK    3  A    between atoms: C_6  and  N_17 
ROOT
HETATM    1  C   UNK N   1      27.728  18.219   5.643  0.00  0.00     0.684 A 
HETATM    2  C   UNK N   1      31.268  17.657   8.235  0.00  0.00     0.687 A 
HETATM    3  N   UNK N   1      32.479  17.376   8.940  0.00  0.00    -0.190 N 
HETATM    4  N   UNK N   1      26.896  18.000   4.513  0.00  0.00    -0.185 N 
HETATM    5  N   UNK N   1      27.303  18.941   6.737  0.00  0.00    -0.199 N 
ATOM      6  HN  UNK N   1      26.378  19.371   6.721  1.00  0.00     0.183 HD
HETATM    7  N   UNK N   1      28.953  17.616   5.665  0.00  0.00    -0.173 N 
ATOM      8  HN  UNK N   1      29.279  17.071   4.866  1.00  0.00     0.186 HD
HETATM    9  C   UNK N   1      29.726  17.756   6.764  0.00  0.00     0.167 A 
HETATM   10  N   UNK N   1      30.940  17.237   6.976  0.00  0.00    -0.166 N 
HETATM   11  C   UNK N   1      29.335  18.470   7.836  0.00  0.00     0.110 A 
HETATM   12  C   UNK N   1      28.096  19.093   7.845  0.00  0.00     0.140 A 
HETATM   13  N   UNK N   1      30.293  18.437   8.782  0.00  0.00    -0.186 N 
ATOM     14  HN  UNK N   1      30.290  18.890   9.695  1.00  0.00     0.184 HD
HETATM   15  H   UNK N   1      32.754  18.054   9.598  0.00  0.00     0.184 HD
HETATM   16  H   UNK N   1      27.228  17.308   3.895  0.00  0.00     0.184 HD
ENDROOT
BRANCH   4  17
HETATM   17  C   UNK N   1      25.666  18.599   4.110  0.00  0.00     0.126 A 
HETATM   18  C   UNK N   1      25.747  19.799   3.384  0.00  0.00     0.146 A 
HETATM   19  C   UNK N   1      24.591  20.468   2.977  0.00  0.00     0.045 A 
HETATM   20  F   UNK N   1      26.959  20.323   3.071  0.00  0.00    -0.204 F 
HETATM   21  C   UNK N   1      23.337  19.951   3.293  0.00  0.00     0.006 A 
HETATM   22  C   UNK N   1      23.237  18.768   4.025  0.00  0.00     0.045 A 
HETATM   23  C   UNK N   1      24.386  18.086   4.439  0.00  0.00     0.146 A 
HETATM   24  F   UNK N   1      24.226  16.970   5.183  0.00  0.00    -0.204 F 
ENDBRANCH   4  17
BRANCH  10  25
HETATM   25  C   UNK N   1      31.692  16.450   6.004  0.00  0.00     0.145 C 
HETATM   26  C   UNK N   1      32.594  17.350   5.174  0.00  0.00     0.027 C 
ENDBRANCH  10  25
BRANCH   3  27
HETATM   27  C   UNK N   1      33.343  16.246   8.822  0.00  0.00     0.070 A 
HETATM   28  C   UNK N   1      34.562  16.316   8.136  0.00  0.00     0.032 A 
HETATM   29  C   UNK N   1      35.382  15.191   8.013  0.00  0.00     0.002 A 
HETATM   30  C   UNK N   1      34.979  13.974   8.560  0.00  0.00     0.002 A 
HETATM   31  C   UNK N   1      33.751  13.880   9.219  0.00  0.00     0.026 A 
HETATM   32  C   UNK N   1      32.933  15.007   9.350  0.00  0.00     0.061 A 
HETATM   33 Cl   UNK N   1      31.387  14.840  10.167  0.00  0.00    -0.082 Cl
ENDBRANCH   3  27
TORSDOF 3
ENDMDL
