MODEL 1
REMARK VINA RESULT:      -8.0      0.000      0.000
REMARK  4 active torsions:
REMARK  status: ('A' for Active; 'I' for Inactive)
REMARK    1  A    between atoms: C_1  and  O_27 
REMARK    2  A    between atoms: C_3  and  N_21 
REMARK       I    between atoms: C_4  and  N_5 
REMARK    3  A    between atoms: N_5  and  C_16 
REMARK    4  A    between atoms: C_6  and  O_27 
ROOT
HETATM    1  C   UNK N   1      27.739  18.487   7.309  0.00  0.00     0.230 A 
HETATM    2  C   UNK N   1      29.861  17.492   7.435  0.00  0.00     0.156 A 
HETATM    3  C   UNK N   1      31.708  16.726   8.171  0.00  0.00     0.687 A 
HETATM    4  N   UNK N   1      32.990  16.117   8.181  0.00  0.00    -0.188 N 
HETATM    5  N   UNK N   1      31.065  17.206   9.270  0.00  0.00    -0.186 N 
ATOM      6  HN  UNK N   1      31.384  17.206  10.239  1.00  0.00     0.184 HD
HETATM    7  C   UNK N   1      29.904  17.682   8.772  0.00  0.00     0.109 A 
HETATM    8  C   UNK N   1      28.850  18.292   9.427  0.00  0.00     0.125 A 
HETATM    9  N   UNK N   1      30.993  16.888   7.026  0.00  0.00    -0.162 N 
HETATM   10  N   UNK N   1      28.799  17.882   6.685  0.00  0.00    -0.305 N 
ATOM     11  HN  UNK N   1      28.789  17.727   5.678  1.00  0.00     0.171 HD
HETATM   12  N   UNK N   1      27.779  18.685   8.671  0.00  0.00    -0.330 N 
ATOM     13  HN  UNK N   1      26.988  19.138   9.129  1.00  0.00     0.168 HD
HETATM   14  H   UNK N   1      33.329  15.815   7.307  0.00  0.00     0.184 HD
ENDROOT
BRANCH   1  15
HETATM   15  O   UNK N   1      26.632  18.907   6.626  0.00  0.00    -0.273 OA
BRANCH  15  16
HETATM   16  C   UNK N   1      26.376  19.355   5.354  0.00  0.00     0.156 A 
HETATM   17  C   UNK N   1      25.238  18.829   4.712  0.00  0.00     0.153 A 
HETATM   18  F   UNK N   1      24.456  17.927   5.351  0.00  0.00    -0.203 F 
HETATM   19  C   UNK N   1      24.894  19.225   3.416  0.00  0.00     0.045 A 
HETATM   20  C   UNK N   1      25.676  20.150   2.732  0.00  0.00     0.006 A 
HETATM   21  C   UNK N   1      26.804  20.683   3.344  0.00  0.00     0.045 A 
HETATM   22  C   UNK N   1      27.160  20.298   4.638  0.00  0.00     0.153 A 
HETATM   23  F   UNK N   1      28.255  20.862   5.143  0.00  0.00    -0.203 F 
ENDBRANCH  15  16
ENDBRANCH   1  15
BRANCH   9  24
HETATM   24  C   UNK N   1      31.412  16.487   5.670  0.00  0.00     0.101 C 
HETATM   25  C   UNK N   1      32.238  17.424   4.804  0.00  0.00     0.033 C 
HETATM   26  C   UNK N   1      31.126  15.109   5.140  0.00  0.00     0.033 C 
ENDBRANCH   9  24
BRANCH   4  27
HETATM   27  C   UNK N   1      33.842  15.884   9.286  0.00  0.00     0.087 A 
HETATM   28  C   UNK N   1      34.784  16.868   9.613  0.00  0.00     0.143 A 
HETATM   29  F   UNK N   1      34.864  18.006   8.877  0.00  0.00    -0.204 F 
HETATM   30  C   UNK N   1      35.646  16.685  10.696  0.00  0.00     0.044 A 
HETATM   31  C   UNK N   1      35.569  15.517  11.457  0.00  0.00     0.003 A 
HETATM   32  C   UNK N   1      34.630  14.531  11.136  0.00  0.00     0.002 A 
HETATM   33  C   UNK N   1      33.766  14.713  10.051  0.00  0.00     0.033 A 
ENDBRANCH   4  27
TORSDOF 4
ENDMDL
MODEL 2
REMARK VINA RESULT:      -8.0      0.667      1.544
REMARK  4 active torsions:
REMARK  status: ('A' for Active; 'I' for Inactive)
REMARK    1  A    between atoms: C_1  and  O_27 
REMARK    2  A    between atoms: C_3  and  N_21 
REMARK       I    between atoms: C_4  and  N_5 
REMARK    3  A    between atoms: N_5  and  C_16 
REMARK    4  A    between atoms: C_6  and  O_27 
ROOT
HETATM    1  C   UNK N   1      28.153  18.766   7.472  0.00  0.00     0.230 A 
HETATM    2  C   UNK N   1      30.180  17.585   7.507  0.00  0.00     0.156 A 
HETATM    3  C   UNK N   1      31.953  16.604   8.169  0.00  0.00     0.687 A 
HETATM    4  N   UNK N   1      33.177  15.888   8.124  0.00  0.00    -0.188 N 
HETATM    5  N   UNK N   1      31.352  17.049   9.307  0.00  0.00    -0.186 N 
ATOM      6  HN  UNK N   1      31.668  16.943  10.271  1.00  0.00     0.184 HD
HETATM    7  C   UNK N   1      30.238  17.662   8.855  0.00  0.00     0.109 A 
HETATM    8  C   UNK N   1      29.239  18.306   9.562  0.00  0.00     0.125 A 
HETATM    9  N   UNK N   1      31.257  16.919   7.045  0.00  0.00    -0.162 N 
HETATM   10  N   UNK N   1      29.157  18.124   6.797  0.00  0.00    -0.305 N 
ATOM     11  HN  UNK N   1      29.136  18.052   5.780  1.00  0.00     0.171 HD
HETATM   12  N   UNK N   1      28.208  18.850   8.845  0.00  0.00    -0.330 N 
ATOM     13  HN  UNK N   1      27.458  19.331   9.343  1.00  0.00     0.168 HD
HETATM   14  H   UNK N   1      33.490  15.629   7.226  0.00  0.00     0.184 HD
ENDROOT
BRANCH   1  15
HETATM   15  O   UNK N   1      27.088  19.334   6.831  0.00  0.00    -0.273 OA
BRANCH  15  16
HETATM   16  C   UNK N   1      26.586  19.310   5.554  0.00  0.00     0.156 A 
HETATM   17  C   UNK N   1      26.671  20.505   4.815  0.00  0.00     0.153 A 
HETATM   18  F   UNK N   1      27.230  21.607   5.371  0.00  0.00    -0.203 F 
HETATM   19  C   UNK N   1      26.187  20.580   3.505  0.00  0.00     0.045 A 
HETATM   20  C   UNK N   1      25.608  19.466   2.905  0.00  0.00     0.006 A 
HETATM   21  C   UNK N   1      25.512  18.275   3.614  0.00  0.00     0.045 A 
HETATM   22  C   UNK N   1      25.991  18.185   4.922  0.00  0.00     0.153 A 
HETATM   23  F   UNK N   1      25.857  17.004   5.521  0.00  0.00    -0.203 F 
ENDBRANCH  15  16
ENDBRANCH   1  15
BRANCH   9  24
HETATM   24  C   UNK N   1      31.641  16.594   5.659  0.00  0.00     0.101 C 
HETATM   25  C   UNK N   1      32.629  17.467   4.902  0.00  0.00     0.033 C 
HETATM   26  C   UNK N   1      31.152  15.341   4.987  0.00  0.00     0.033 C 
ENDBRANCH   9  24
BRANCH   4  27
HETATM   27  C   UNK N   1      34.003  15.494   9.201  0.00  0.00     0.087 A 
HETATM   28  C   UNK N   1      34.873  16.446   9.750  0.00  0.00     0.143 A 
HETATM   29  F   UNK N   1      34.910  17.706   9.246  0.00  0.00    -0.204 F 
HETATM   30  C   UNK N   1      35.707  16.106  10.817  0.00  0.00     0.044 A 
HETATM   31  C   UNK N   1      35.676  14.812  11.339  0.00  0.00     0.003 A 
HETATM   32  C   UNK N   1      34.809  13.857  10.797  0.00  0.00     0.002 A 
HETATM   33  C   UNK N   1      33.973  14.196   9.729  0.00  0.00     0.033 A 
ENDBRANCH   4  27
TORSDOF 4
ENDMDL
MODEL 3
REMARK VINA RESULT:      -7.8      2.050      8.908
REMARK  4 active torsions:
REMARK  status: ('A' for Active; 'I' for Inactive)
REMARK    1  A    between atoms: C_1  and  O_27 
REMARK    2  A    between atoms: C_3  and  N_21 
REMARK       I    between atoms: C_4  and  N_5 
REMARK    3  A    between atoms: N_5  and  C_16 
REMARK    4  A    between atoms: C_6  and  O_27 
ROOT
HETATM    1  C   UNK N   1      32.793  15.900   7.100  0.00  0.00     0.230 A 
HETATM    2  C   UNK N   1      30.720  16.995   6.994  0.00  0.00     0.156 A 
HETATM    3  C   UNK N   1      28.953  17.938   6.268  0.00  0.00     0.687 A 
HETATM    4  N   UNK N   1      27.698  18.603   6.270  0.00  0.00    -0.188 N 
HETATM    5  N   UNK N   1      29.647  17.587   5.151  0.00  0.00    -0.186 N 
ATOM      6  HN  UNK N   1      29.389  17.736   4.175  1.00  0.00     0.184 HD
HETATM    7  C   UNK N   1      30.755  16.994   5.643  0.00  0.00     0.109 A 
HETATM    8  C   UNK N   1      31.828  16.440   4.970  0.00  0.00     0.125 A 
HETATM    9  N   UNK N   1      29.588  17.589   7.418  0.00  0.00    -0.162 N 
HETATM   10  N   UNK N   1      31.718  16.458   7.741  0.00  0.00    -0.305 N 
ATOM     11  HN  UNK N   1      31.669  16.470   8.759  1.00  0.00     0.171 HD
HETATM   12  N   UNK N   1      32.835  15.899   5.724  0.00  0.00    -0.330 N 
ATOM     13  HN  UNK N   1      33.639  15.483   5.253  1.00  0.00     0.168 HD
HETATM   14  H   UNK N   1      27.314  18.792   7.158  0.00  0.00     0.184 HD
ENDROOT
BRANCH   1  15
HETATM   15  O   UNK N   1      33.838  15.338   7.780  0.00  0.00    -0.273 OA
BRANCH  15  16
HETATM   16  C   UNK N   1      34.358  15.449   9.045  0.00  0.00     0.156 A 
HETATM   17  C   UNK N   1      34.335  14.292   9.846  0.00  0.00     0.153 A 
HETATM   18  F   UNK N   1      33.816  13.140   9.357  0.00  0.00    -0.203 F 
HETATM   19  C   UNK N   1      34.842  14.307  11.149  0.00  0.00     0.045 A 
HETATM   20  C   UNK N   1      35.381  15.473  11.680  0.00  0.00     0.006 A 
HETATM   21  C   UNK N   1      35.416  16.629  10.910  0.00  0.00     0.045 A 
HETATM   22  C   UNK N   1      34.914  16.629   9.607  0.00  0.00     0.153 A 
HETATM   23  F   UNK N   1      34.990  17.782   8.944  0.00  0.00    -0.203 F 
ENDBRANCH  15  16
ENDBRANCH   1  15
BRANCH   9  24
HETATM   24  C   UNK N   1      29.110  17.836   8.791  0.00  0.00     0.101 C 
HETATM   25  C   UNK N   1      29.797  18.859   9.680  0.00  0.00     0.033 C 
HETATM   26  C   UNK N   1      27.872  17.164   9.319  0.00  0.00     0.033 C 
ENDBRANCH   9  24
BRANCH   4  27
HETATM   27  C   UNK N   1      26.928  19.025   5.163  0.00  0.00     0.087 A 
HETATM   28  C   UNK N   1      25.803  18.267   4.810  0.00  0.00     0.143 A 
HETATM   29  F   UNK N   1      25.479  17.158   5.524  0.00  0.00    -0.204 F 
HETATM   30  C   UNK N   1      25.010  18.645   3.726  0.00  0.00     0.044 A 
HETATM   31  C   UNK N   1      25.338  19.784   2.987  0.00  0.00     0.003 A 
HETATM   32  C   UNK N   1      26.459  20.546   3.334  0.00  0.00     0.002 A 
HETATM   33  C   UNK N   1      27.254  20.168   4.421  0.00  0.00     0.033 A 
ENDBRANCH   4  27
TORSDOF 4
ENDMDL
MODEL 4
REMARK VINA RESULT:      -7.8      2.020      8.909
REMARK  4 active torsions:
REMARK  status: ('A' for Active; 'I' for Inactive)
REMARK    1  A    between atoms: C_1  and  O_27 
REMARK    2  A    between atoms: C_3  and  N_21 
REMARK       I    between atoms: C_4  and  N_5 
REMARK    3  A    between atoms: N_5  and  C_16 
REMARK    4  A    between atoms: C_6  and  O_27 
ROOT
HETATM    1  C   UNK N   1      32.728  16.020   7.050  0.00  0.00     0.230 A 
HETATM    2  C   UNK N   1      30.624  17.060   7.012  0.00  0.00     0.156 A 
HETATM    3  C   UNK N   1      28.802  17.940   6.344  0.00  0.00     0.687 A 
HETATM    4  N   UNK N   1      27.532  18.572   6.387  0.00  0.00    -0.188 N 
HETATM    5  N   UNK N   1      29.455  17.580   5.206  0.00  0.00    -0.186 N 
ATOM      6  HN  UNK N   1      29.151  17.699   4.239  1.00  0.00     0.184 HD
HETATM    7  C   UNK N   1      30.599  17.028   5.661  0.00  0.00     0.109 A 
HETATM    8  C   UNK N   1      31.656  16.485   4.953  0.00  0.00     0.125 A 
HETATM    9  N   UNK N   1      29.496  17.634   7.472  0.00  0.00    -0.162 N 
HETATM   10  N   UNK N   1      31.668  16.566   7.725  0.00  0.00    -0.305 N 
ATOM     11  HN  UNK N   1      31.663  16.601   8.744  1.00  0.00     0.171 HD
HETATM   12  N   UNK N   1      32.709  15.988   5.673  0.00  0.00    -0.330 N 
ATOM     13  HN  UNK N   1      33.502  15.581   5.176  1.00  0.00     0.168 HD
HETATM   14  H   UNK N   1      27.183  18.773   7.286  0.00  0.00     0.184 HD
ENDROOT
BRANCH   1  15
HETATM   15  O   UNK N   1      33.816  15.501   7.694  0.00  0.00    -0.273 OA
BRANCH  15  16
HETATM   16  C   UNK N   1      34.269  15.477   8.990  0.00  0.00     0.156 A 
HETATM   17  C   UNK N   1      34.854  16.660   9.481  0.00  0.00     0.153 A 
HETATM   18  F   UNK N   1      34.948  17.750   8.683  0.00  0.00    -0.203 F 
HETATM   19  C   UNK N   1      35.345  16.733  10.787  0.00  0.00     0.045 A 
HETATM   20  C   UNK N   1      35.263  15.631  11.632  0.00  0.00     0.006 A 
HETATM   21  C   UNK N   1      34.690  14.452  11.172  0.00  0.00     0.045 A 
HETATM   22  C   UNK N   1      34.195  14.364   9.869  0.00  0.00     0.153 A 
HETATM   23  F   UNK N   1      33.662  13.195   9.517  0.00  0.00    -0.203 F 
ENDBRANCH  15  16
ENDBRANCH   1  15
BRANCH   9  24
HETATM   24  C   UNK N   1      29.073  17.902   8.859  0.00  0.00     0.101 C 
HETATM   25  C   UNK N   1      27.931  17.120   9.487  0.00  0.00     0.033 C 
HETATM   26  C   UNK N   1      29.816  18.880   9.727  0.00  0.00     0.033 C 
ENDBRANCH   9  24
BRANCH   4  27
HETATM   27  C   UNK N   1      26.702  18.948   5.306  0.00  0.00     0.087 A 
HETATM   28  C   UNK N   1      26.843  20.240   4.781  0.00  0.00     0.143 A 
HETATM   29  F   UNK N   1      27.756  21.094   5.312  0.00  0.00    -0.204 F 
HETATM   30  C   UNK N   1      26.048  20.657   3.712  0.00  0.00     0.044 A 
HETATM   31  C   UNK N   1      25.108  19.784   3.162  0.00  0.00     0.003 A 
HETATM   32  C   UNK N   1      24.963  18.493   3.680  0.00  0.00     0.002 A 
HETATM   33  C   UNK N   1      25.758  18.073   4.751  0.00  0.00     0.033 A 
ENDBRANCH   4  27
TORSDOF 4
ENDMDL
MODEL 5
REMARK VINA RESULT:      -7.6      2.409      8.836
REMARK  4 active torsions:
REMARK  status: ('A' for Active; 'I' for Inactive)
REMARK    1  A    between atoms: C_1  and  O_27 
REMARK    2  A    between atoms: C_3  and  N_21 
REMARK       I    between atoms: C_4  and  N_5 
REMARK    3  A    between atoms: N_5  and  C_16 
REMARK    4  A    between atoms: C_6  and  O_27 
ROOT
HETATM    1  C   UNK N   1      33.059  15.993   8.099  0.00  0.00     0.230 A 
HETATM    2  C   UNK N   1      31.608  16.596   6.357  0.00  0.00     0.156 A 
HETATM    3  C   UNK N   1      29.963  17.399   5.266  0.00  0.00     0.687 A 
HETATM    4  N   UNK N   1      29.125  17.733   4.170  0.00  0.00    -0.188 N 
HETATM    5  N   UNK N   1      29.713  17.722   6.564  0.00  0.00    -0.186 N 
ATOM      6  HN  UNK N   1      28.917  18.235   6.945  1.00  0.00     0.184 HD
HETATM    7  C   UNK N   1      30.768  17.202   7.226  0.00  0.00     0.109 A 
HETATM    8  C   UNK N   1      31.052  17.219   8.579  0.00  0.00     0.125 A 
HETATM    9  N   UNK N   1      31.121  16.706   5.106  0.00  0.00    -0.162 N 
HETATM   10  N   UNK N   1      32.751  15.990   6.765  0.00  0.00    -0.305 N 
ATOM     11  HN  UNK N   1      33.369  15.540   6.090  1.00  0.00     0.171 HD
HETATM   12  N   UNK N   1      32.206  16.606   8.989  0.00  0.00    -0.330 N 
ATOM     13  HN  UNK N   1      32.440  16.604   9.982  1.00  0.00     0.168 HD
HETATM   14  H   UNK N   1      29.437  17.433   3.284  0.00  0.00     0.184 HD
ENDROOT
BRANCH   1  15
HETATM   15  O   UNK N   1      34.192  15.406   8.590  0.00  0.00    -0.273 OA
BRANCH  15  16
HETATM   16  C   UNK N   1      34.690  15.125   9.838  0.00  0.00     0.156 A 
HETATM   17  C   UNK N   1      34.509  13.813  10.314  0.00  0.00     0.153 A 
HETATM   18  F   UNK N   1      33.870  12.897   9.548  0.00  0.00    -0.203 F 
HETATM   19  C   UNK N   1      34.980  13.431  11.573  0.00  0.00     0.045 A 
HETATM   20  C   UNK N   1      35.641  14.348  12.384  0.00  0.00     0.006 A 
HETATM   21  C   UNK N   1      35.832  15.649  11.938  0.00  0.00     0.045 A 
HETATM   22  C   UNK N   1      35.367  16.045  10.682  0.00  0.00     0.153 A 
HETATM   23  F   UNK N   1      35.597  17.311  10.338  0.00  0.00    -0.203 F 
ENDBRANCH  15  16
ENDBRANCH   1  15
BRANCH   9  24
HETATM   24  C   UNK N   1      31.669  16.201   3.834  0.00  0.00     0.101 C 
HETATM   25  C   UNK N   1      32.671  17.022   3.038  0.00  0.00     0.033 C 
HETATM   26  C   UNK N   1      31.337  14.822   3.334  0.00  0.00     0.033 C 
ENDBRANCH   9  24
BRANCH   4  27
HETATM   27  C   UNK N   1      27.902  18.442   4.184  0.00  0.00     0.087 A 
HETATM   28  C   UNK N   1      26.721  17.730   3.938  0.00  0.00     0.143 A 
HETATM   29  F   UNK N   1      26.769  16.396   3.691  0.00  0.00    -0.204 F 
HETATM   30  C   UNK N   1      25.489  18.387   3.945  0.00  0.00     0.044 A 
HETATM   31  C   UNK N   1      25.432  19.758   4.197  0.00  0.00     0.003 A 
HETATM   32  C   UNK N   1      26.608  20.475   4.444  0.00  0.00     0.002 A 
HETATM   33  C   UNK N   1      27.843  19.819   4.439  0.00  0.00     0.033 A 
ENDBRANCH   4  27
TORSDOF 4
ENDMDL
MODEL 6
REMARK VINA RESULT:      -7.6      2.302      8.791
REMARK  4 active torsions:
REMARK  status: ('A' for Active; 'I' for Inactive)
REMARK    1  A    between atoms: C_1  and  O_27 
REMARK    2  A    between atoms: C_3  and  N_21 
REMARK       I    between atoms: C_4  and  N_5 
REMARK    3  A    between atoms: N_5  and  C_16 
REMARK    4  A    between atoms: C_6  and  O_27 
ROOT
HETATM    1  C   UNK N   1      32.836  16.479   8.268  0.00  0.00     0.230 A 
HETATM    2  C   UNK N   1      31.417  16.809   6.429  0.00  0.00     0.156 A 
HETATM    3  C   UNK N   1      29.749  17.349   5.218  0.00  0.00     0.687 A 
HETATM    4  N   UNK N   1      28.936  17.520   4.067  0.00  0.00    -0.188 N 
HETATM    5  N   UNK N   1      29.395  17.709   6.482  0.00  0.00    -0.186 N 
ATOM      6  HN  UNK N   1      28.526  18.142   6.795  1.00  0.00     0.184 HD
HETATM    7  C   UNK N   1      30.468  17.356   7.220  0.00  0.00     0.109 A 
HETATM    8  C   UNK N   1      30.677  17.479   8.582  0.00  0.00     0.125 A 
HETATM    9  N   UNK N   1      30.987  16.792   5.152  0.00  0.00    -0.162 N 
HETATM   10  N   UNK N   1      32.601  16.367   6.923  0.00  0.00    -0.305 N 
ATOM     11  HN  UNK N   1      33.302  15.959   6.305  1.00  0.00     0.171 HD
HETATM   12  N   UNK N   1      31.872  17.032   9.080  0.00  0.00    -0.330 N 
ATOM     13  HN  UNK N   1      32.053  17.112  10.081  1.00  0.00     0.168 HD
HETATM   14  H   UNK N   1      29.326  17.213   3.216  0.00  0.00     0.184 HD
ENDROOT
BRANCH   1  15
HETATM   15  O   UNK N   1      34.003  16.059   8.843  0.00  0.00    -0.273 OA
BRANCH  15  16
HETATM   16  C   UNK N   1      34.362  15.068   9.722  0.00  0.00     0.156 A 
HETATM   17  C   UNK N   1      34.878  15.478  10.966  0.00  0.00     0.153 A 
HETATM   18  F   UNK N   1      34.999  16.797  11.247  0.00  0.00    -0.203 F 
HETATM   19  C   UNK N   1      35.270  14.542  11.928  0.00  0.00     0.045 A 
HETATM   20  C   UNK N   1      35.158  13.179  11.670  0.00  0.00     0.006 A 
HETATM   21  C   UNK N   1      34.652  12.750  10.450  0.00  0.00     0.045 A 
HETATM   22  C   UNK N   1      34.255  13.672   9.480  0.00  0.00     0.153 A 
HETATM   23  F   UNK N   1      33.781  13.168   8.342  0.00  0.00    -0.203 F 
ENDBRANCH  15  16
ENDBRANCH   1  15
BRANCH   9  24
HETATM   24  C   UNK N   1      31.656  16.289   3.939  0.00  0.00     0.101 C 
HETATM   25  C   UNK N   1      31.401  14.876   3.440  0.00  0.00     0.033 C 
HETATM   26  C   UNK N   1      32.528  17.183   3.101  0.00  0.00     0.033 C 
ENDBRANCH   9  24
BRANCH   4  27
HETATM   27  C   UNK N   1      27.639  18.078   3.984  0.00  0.00     0.087 A 
HETATM   28  C   UNK N   1      27.500  19.460   4.164  0.00  0.00     0.143 A 
HETATM   29  F   UNK N   1      28.592  20.228   4.414  0.00  0.00    -0.204 F 
HETATM   30  C   UNK N   1      26.240  20.057   4.090  0.00  0.00     0.044 A 
HETATM   31  C   UNK N   1      25.113  19.274   3.834  0.00  0.00     0.003 A 
HETATM   32  C   UNK N   1      25.245  17.893   3.652  0.00  0.00     0.002 A 
HETATM   33  C   UNK N   1      26.506  17.294   3.727  0.00  0.00     0.033 A 
ENDBRANCH   4  27
TORSDOF 4
ENDMDL
MODEL 7
REMARK VINA RESULT:      -7.6      4.915      7.635
REMARK  4 active torsions:
REMARK  status: ('A' for Active; 'I' for Inactive)
REMARK    1  A    between atoms: C_1  and  O_27 
REMARK    2  A    between atoms: C_3  and  N_21 
REMARK       I    between atoms: C_4  and  N_5 
REMARK    3  A    between atoms: N_5  and  C_16 
REMARK    4  A    between atoms: C_6  and  O_27 
ROOT
HETATM    1  C   UNK N   1      34.803  16.138   9.364  0.00  0.00     0.230 A 
HETATM    2  C   UNK N   1      34.911  14.065  10.459  0.00  0.00     0.156 A 
HETATM    3  C   UNK N   1      35.129  12.564  11.955  0.00  0.00     0.687 A 
HETATM    4  N   UNK N   1      35.183  11.280  12.559  0.00  0.00    -0.188 N 
HETATM    5  N   UNK N   1      35.321  13.741  12.610  0.00  0.00    -0.186 N 
ATOM      6  HN  UNK N   1      35.525  13.888  13.599  1.00  0.00     0.184 HD
HETATM    7  C   UNK N   1      35.176  14.668  11.639  0.00  0.00     0.109 A 
HETATM    8  C   UNK N   1      35.267  16.045  11.717  0.00  0.00     0.125 A 
HETATM    9  N   UNK N   1      34.876  12.730  10.630  0.00  0.00    -0.162 N 
HETATM   10  N   UNK N   1      34.721  14.771   9.316  0.00  0.00    -0.305 N 
ATOM     11  HN  UNK N   1      34.521  14.294   8.437  1.00  0.00     0.171 HD
HETATM   12  N   UNK N   1      35.077  16.757  10.564  0.00  0.00    -0.330 N 
ATOM     13  HN  UNK N   1      35.138  17.775  10.593  1.00  0.00     0.168 HD
HETATM   14  H   UNK N   1      35.023  10.516  11.958  0.00  0.00     0.184 HD
ENDROOT
BRANCH   1  15
HETATM   15  O   UNK N   1      34.623  16.921   8.258  0.00  0.00    -0.273 OA
BRANCH  15  16
HETATM   16  C   UNK N   1      34.011  16.770   7.039  0.00  0.00     0.156 A 
HETATM   17  C   UNK N   1      32.777  17.424   6.862  0.00  0.00     0.153 A 
HETATM   18  F   UNK N   1      32.250  18.160   7.869  0.00  0.00    -0.203 F 
HETATM   19  C   UNK N   1      32.078  17.330   5.655  0.00  0.00     0.045 A 
HETATM   20  C   UNK N   1      32.592  16.581   4.601  0.00  0.00     0.006 A 
HETATM   21  C   UNK N   1      33.807  15.926   4.751  0.00  0.00     0.045 A 
HETATM   22  C   UNK N   1      34.518  16.012   5.950  0.00  0.00     0.153 A 
HETATM   23  F   UNK N   1      35.673  15.352   6.001  0.00  0.00    -0.203 F 
ENDBRANCH  15  16
ENDBRANCH   1  15
BRANCH   9  24
HETATM   24  C   UNK N   1      34.636  11.659   9.645  0.00  0.00     0.101 C 
HETATM   25  C   UNK N   1      33.230  11.142   9.386  0.00  0.00     0.033 C 
HETATM   26  C   UNK N   1      35.752  11.116   8.796  0.00  0.00     0.033 C 
ENDBRANCH   9  24
BRANCH   4  27
HETATM   27  C   UNK N   1      35.436  10.958  13.912  0.00  0.00     0.087 A 
HETATM   28  C   UNK N   1      34.348  10.609  14.724  0.00  0.00     0.143 A 
HETATM   29  F   UNK N   1      33.092  10.591  14.208  0.00  0.00    -0.204 F 
HETATM   30  C   UNK N   1      34.547  10.281  16.066  0.00  0.00     0.044 A 
HETATM   31  C   UNK N   1      35.836  10.299  16.603  0.00  0.00     0.003 A 
HETATM   32  C   UNK N   1      36.926  10.645  15.798  0.00  0.00     0.002 A 
HETATM   33  C   UNK N   1      36.728  10.974  14.453  0.00  0.00     0.033 A 
ENDBRANCH   4  27
TORSDOF 4
ENDMDL
MODEL 8
REMARK VINA RESULT:      -7.6      4.990      7.440
REMARK  4 active torsions:
REMARK  status: ('A' for Active; 'I' for Inactive)
REMARK    1  A    between atoms: C_1  and  O_27 
REMARK    2  A    between atoms: C_3  and  N_21 
REMARK       I    between atoms: C_4  and  N_5 
REMARK    3  A    between atoms: N_5  and  C_16 
REMARK    4  A    between atoms: C_6  and  O_27 
ROOT
HETATM    1  C   UNK N   1      34.797  15.414   7.711  0.00  0.00     0.230 A 
HETATM    2  C   UNK N   1      35.491  13.980   9.433  0.00  0.00     0.156 A 
HETATM    3  C   UNK N   1      35.580  12.896  11.266  0.00  0.00     0.687 A 
HETATM    4  N   UNK N   1      36.054  12.015  12.272  0.00  0.00    -0.188 N 
HETATM    5  N   UNK N   1      34.436  13.628  11.347  0.00  0.00    -0.186 N 
ATOM      6  HN  UNK N   1      33.759  13.661  12.111  1.00  0.00     0.184 HD
HETATM    7  C   UNK N   1      34.408  14.299  10.177  0.00  0.00     0.109 A 
HETATM    8  C   UNK N   1      33.474  15.202   9.702  0.00  0.00     0.125 A 
HETATM    9  N   UNK N   1      36.252  13.092  10.101  0.00  0.00    -0.162 N 
HETATM   10  N   UNK N   1      35.707  14.519   8.207  0.00  0.00    -0.305 N 
ATOM     11  HN  UNK N   1      36.531  14.262   7.664  1.00  0.00     0.171 HD
HETATM   12  N   UNK N   1      33.694  15.746   8.465  0.00  0.00    -0.330 N 
ATOM     13  HN  UNK N   1      33.020  16.414   8.090  1.00  0.00     0.168 HD
HETATM   14  H   UNK N   1      36.900  11.551  12.073  0.00  0.00     0.184 HD
ENDROOT
BRANCH   1  15
HETATM   15  O   UNK N   1      34.941  16.000   6.483  0.00  0.00    -0.273 OA
BRANCH  15  16
HETATM   16  C   UNK N   1      34.140  16.182   5.384  0.00  0.00     0.156 A 
HETATM   17  C   UNK N   1      33.298  17.311   5.391  0.00  0.00     0.153 A 
HETATM   18  F   UNK N   1      33.307  18.155   6.449  0.00  0.00    -0.203 F 
HETATM   19  C   UNK N   1      32.446  17.581   4.316  0.00  0.00     0.045 A 
HETATM   20  C   UNK N   1      32.413  16.733   3.214  0.00  0.00     0.006 A 
HETATM   21  C   UNK N   1      33.234  15.613   3.183  0.00  0.00     0.045 A 
HETATM   22  C   UNK N   1      34.091  15.330   4.249  0.00  0.00     0.153 A 
HETATM   23  F   UNK N   1      34.841  14.236   4.130  0.00  0.00    -0.203 F 
ENDBRANCH  15  16
ENDBRANCH   1  15
BRANCH   9  24
HETATM   24  C   UNK N   1      37.527  12.461   9.710  0.00  0.00     0.101 C 
HETATM   25  C   UNK N   1      38.855  13.075  10.120  0.00  0.00     0.033 C 
HETATM   26  C   UNK N   1      37.555  11.143   8.986  0.00  0.00     0.033 C 
ENDBRANCH   9  24
BRANCH   4  27
HETATM   27  C   UNK N   1      35.467  11.716  13.523  0.00  0.00     0.087 A 
HETATM   28  C   UNK N   1      35.934  12.398  14.654  0.00  0.00     0.143 A 
HETATM   29  F   UNK N   1      36.926  13.318  14.533  0.00  0.00    -0.204 F 
HETATM   30  C   UNK N   1      35.385  12.139  15.911  0.00  0.00     0.044 A 
HETATM   31  C   UNK N   1      34.365  11.194  16.043  0.00  0.00     0.003 A 
HETATM   32  C   UNK N   1      33.894  10.510  14.918  0.00  0.00     0.002 A 
HETATM   33  C   UNK N   1      34.443  10.769  13.658  0.00  0.00     0.033 A 
ENDBRANCH   4  27
TORSDOF 4
ENDMDL
MODEL 9
REMARK VINA RESULT:      -7.4      3.722      6.130
REMARK  4 active torsions:
REMARK  status: ('A' for Active; 'I' for Inactive)
REMARK    1  A    between atoms: C_1  and  O_27 
REMARK    2  A    between atoms: C_3  and  N_21 
REMARK       I    between atoms: C_4  and  N_5 
REMARK    3  A    between atoms: N_5  and  C_16 
REMARK    4  A    between atoms: C_6  and  O_27 
ROOT
HETATM    1  C   UNK N   1      24.212  16.303   5.421  0.00  0.00     0.230 A 
HETATM    2  C   UNK N   1      26.343  17.230   5.098  0.00  0.00     0.156 A 
HETATM    3  C   UNK N   1      28.448  17.453   4.846  0.00  0.00     0.687 A 
HETATM    4  N   UNK N   1      29.709  18.073   4.649  0.00  0.00    -0.188 N 
HETATM    5  N   UNK N   1      28.253  16.114   4.996  0.00  0.00    -0.186 N 
ATOM      6  HN  UNK N   1      28.951  15.370   4.990  1.00  0.00     0.184 HD
HETATM    7  C   UNK N   1      26.916  16.007   5.152  0.00  0.00     0.109 A 
HETATM    8  C   UNK N   1      26.142  14.878   5.348  0.00  0.00     0.125 A 
HETATM    9  N   UNK N   1      27.292  18.166   4.905  0.00  0.00    -0.162 N 
HETATM   10  N   UNK N   1      25.004  17.404   5.228  0.00  0.00    -0.305 N 
ATOM     11  HN  UNK N   1      24.595  18.337   5.183  1.00  0.00     0.171 HD
HETATM   12  N   UNK N   1      24.791  15.055   5.480  0.00  0.00    -0.330 N 
ATOM     13  HN  UNK N   1      24.195  14.239   5.626  1.00  0.00     0.168 HD
HETATM   14  H   UNK N   1      29.695  19.054   4.555  0.00  0.00     0.184 HD
ENDROOT
BRANCH   1  15
HETATM   15  O   UNK N   1      22.855  16.394   5.560  0.00  0.00    -0.273 OA
BRANCH  15  16
HETATM   16  C   UNK N   1      21.971  16.350   6.609  0.00  0.00     0.156 A 
HETATM   17  C   UNK N   1      21.154  17.480   6.801  0.00  0.00     0.153 A 
HETATM   18  F   UNK N   1      21.263  18.543   5.969  0.00  0.00    -0.203 F 
HETATM   19  C   UNK N   1      20.224  17.529   7.843  0.00  0.00     0.045 A 
HETATM   20  C   UNK N   1      20.088  16.454   8.715  0.00  0.00     0.006 A 
HETATM   21  C   UNK N   1      20.882  15.327   8.547  0.00  0.00     0.045 A 
HETATM   22  C   UNK N   1      21.815  15.263   7.510  0.00  0.00     0.153 A 
HETATM   23  F   UNK N   1      22.531  14.143   7.427  0.00  0.00    -0.203 F 
ENDBRANCH  15  16
ENDBRANCH   1  15
BRANCH   9  24
HETATM   24  C   UNK N   1      27.162  19.630   4.790  0.00  0.00     0.101 C 
HETATM   25  C   UNK N   1      26.689  20.270   3.495  0.00  0.00     0.033 C 
HETATM   26  C   UNK N   1      27.394  20.529   5.974  0.00  0.00     0.033 C 
ENDBRANCH   9  24
BRANCH   4  27
HETATM   27  C   UNK N   1      30.983  17.464   4.569  0.00  0.00     0.087 A 
HETATM   28  C   UNK N   1      31.660  17.185   5.763  0.00  0.00     0.143 A 
HETATM   29  F   UNK N   1      31.094  17.500   6.956  0.00  0.00    -0.204 F 
HETATM   30  C   UNK N   1      32.919  16.583   5.735  0.00  0.00     0.044 A 
HETATM   31  C   UNK N   1      33.508  16.257   4.512  0.00  0.00     0.003 A 
HETATM   32  C   UNK N   1      32.837  16.533   3.315  0.00  0.00     0.002 A 
HETATM   33  C   UNK N   1      31.575  17.136   3.342  0.00  0.00     0.033 A 
ENDBRANCH   4  27
TORSDOF 4
ENDMDL
