MODEL 1
REMARK VINA RESULT:      -6.6      0.000      0.000
REMARK  6 active torsions:
REMARK  status: ('A' for Active; 'I' for Inactive)
REMARK    1  A    between atoms: C_1  and  N_18 
REMARK    2  A    between atoms: C_4  and  C_5 
REMARK    3  A    between atoms: C_10  and  S_11 
REMARK    4  A    between atoms: S_11  and  C_12 
REMARK    5  A    between atoms: C_12  and  C_13 
REMARK    6  A    between atoms: C_13  and  O_14 
ROOT
HETATM    1  C   UNK N   1      35.297  14.888  11.335  0.00  0.00     0.199 A 
HETATM    2  N   UNK N   1      36.601  14.957  11.667  0.00  0.00    -0.275 N 
ATOM      3  HN  UNK N   1      37.321  15.519  11.214  1.00  0.00     0.189 HD
HETATM    4  N   UNK N   1      36.760  14.143  12.707  0.00  0.00    -0.272 N 
ATOM      5  HN  UNK N   1      37.626  13.956  13.211  1.00  0.00     0.189 HD
HETATM    6  C   UNK N   1      35.543  13.613  12.962  0.00  0.00     0.204 A 
HETATM    7  O   UNK N   1      34.663  14.071  12.125  0.00  0.00    -0.265 OA
ENDROOT
BRANCH   1   8
HETATM    8  C   UNK N   1      34.605  15.588  10.264  0.00  0.00     0.130 A 
HETATM    9  C   UNK N   1      33.372  15.322   9.690  0.00  0.00     0.046 A 
HETATM   10  C   UNK N   1      33.205  16.304   8.715  0.00  0.00     0.066 A 
HETATM   11  C   UNK N   1      34.352  17.080   8.781  0.00  0.00     0.215 A 
HETATM   12  O   UNK N   1      35.150  16.631   9.701  0.00  0.00    -0.284 OA
BRANCH  11  13
HETATM   13  N   UNK N   1      34.664  18.210   7.989  0.00  0.00    -0.090 N 
HETATM   14  O   UNK N   1      35.276  19.239   8.539  0.00  0.00    -0.530 OA
HETATM   15  O   UNK N   1      34.379  18.240   6.833  0.00  0.00    -0.530 OA
ENDBRANCH  11  13
ENDBRANCH   1   8
BRANCH   6  16
HETATM   16  S   UNK N   1      35.099  12.443  14.242  0.00  0.00    -0.074 SA
BRANCH  16  17
HETATM   17  C   UNK N   1      36.616  12.551  15.229  0.00  0.00     0.192 C 
BRANCH  17  18
HETATM   18  C   UNK N   1      36.679  13.862  15.961  0.00  0.00     0.149 C 
HETATM   19  O   UNK N   1      35.900  14.118  16.868  0.00  0.00    -0.649 OA
BRANCH  18  20
HETATM   20  O   UNK N   1      37.608  14.769  15.612  0.00  0.00    -0.776 OA
HETATM   21  H   UNK N   1      37.358  15.657  15.450  0.00  0.00     0.167 HD
ENDBRANCH  18  20
ENDBRANCH  17  18
ENDBRANCH  16  17
ENDBRANCH   6  16
TORSDOF 6
ENDMDL
MODEL 2
REMARK VINA RESULT:      -6.4      1.748      2.331
REMARK  6 active torsions:
REMARK  status: ('A' for Active; 'I' for Inactive)
REMARK    1  A    between atoms: C_1  and  N_18 
REMARK    2  A    between atoms: C_4  and  C_5 
REMARK    3  A    between atoms: C_10  and  S_11 
REMARK    4  A    between atoms: S_11  and  C_12 
REMARK    5  A    between atoms: C_12  and  C_13 
REMARK    6  A    between atoms: C_13  and  O_14 
ROOT
HETATM    1  C   UNK N   1      35.423  14.924  11.375  0.00  0.00     0.199 A 
HETATM    2  N   UNK N   1      36.757  14.795  11.514  0.00  0.00    -0.275 N 
ATOM      3  HN  UNK N   1      37.477  15.151  10.885  1.00  0.00     0.189 HD
HETATM    4  N   UNK N   1      36.947  14.107  12.636  0.00  0.00    -0.272 N 
ATOM      5  HN  UNK N   1      37.841  13.831  13.041  1.00  0.00     0.189 HD
HETATM    6  C   UNK N   1      35.717  13.848  13.134  0.00  0.00     0.204 A 
HETATM    7  O   UNK N   1      34.800  14.347  12.362  0.00  0.00    -0.265 OA
ENDROOT
BRANCH   1   8
HETATM    8  C   UNK N   1      34.691  15.594  10.312  0.00  0.00     0.130 A 
HETATM    9  C   UNK N   1      33.445  15.301   9.781  0.00  0.00     0.046 A 
HETATM   10  C   UNK N   1      33.236  16.261   8.792  0.00  0.00     0.066 A 
HETATM   11  C   UNK N   1      34.374  17.053   8.810  0.00  0.00     0.215 A 
HETATM   12  O   UNK N   1      35.205  16.632   9.714  0.00  0.00    -0.284 OA
BRANCH  11  13
HETATM   13  N   UNK N   1      34.648  18.172   7.987  0.00  0.00    -0.090 N 
HETATM   14  O   UNK N   1      35.166  19.259   8.521  0.00  0.00    -0.530 OA
HETATM   15  O   UNK N   1      34.415  18.139   6.820  0.00  0.00    -0.530 OA
ENDBRANCH  11  13
ENDBRANCH   1   8
BRANCH   6  16
HETATM   16  S   UNK N   1      35.300  12.956  14.628  0.00  0.00    -0.074 SA
BRANCH  16  17
HETATM   17  C   UNK N   1      35.320  11.277  13.941  0.00  0.00     0.192 C 
BRANCH  17  18
HETATM   18  C   UNK N   1      33.920  10.785  13.705  0.00  0.00     0.149 C 
HETATM   19  O   UNK N   1      33.105  10.738  14.615  0.00  0.00    -0.649 OA
BRANCH  18  20
HETATM   20  O   UNK N   1      33.557  10.390  12.473  0.00  0.00    -0.776 OA
HETATM   21  H   UNK N   1      32.907  10.871  11.999  0.00  0.00     0.167 HD
ENDBRANCH  18  20
ENDBRANCH  17  18
ENDBRANCH  16  17
ENDBRANCH   6  16
TORSDOF 6
ENDMDL
MODEL 3
REMARK VINA RESULT:      -6.4      2.249      7.321
REMARK  6 active torsions:
REMARK  status: ('A' for Active; 'I' for Inactive)
REMARK    1  A    between atoms: C_1  and  N_18 
REMARK    2  A    between atoms: C_4  and  C_5 
REMARK    3  A    between atoms: C_10  and  S_11 
REMARK    4  A    between atoms: S_11  and  C_12 
REMARK    5  A    between atoms: C_12  and  C_13 
REMARK    6  A    between atoms: C_13  and  O_14 
ROOT
HETATM    1  C   UNK N   1      35.712  13.683  13.640  0.00  0.00     0.199 A 
HETATM    2  N   UNK N   1      36.808  14.249  13.097  0.00  0.00    -0.275 N 
ATOM      3  HN  UNK N   1      37.698  14.431  13.560  1.00  0.00     0.189 HD
HETATM    4  N   UNK N   1      36.494  14.521  11.834  0.00  0.00    -0.272 N 
ATOM      5  HN  UNK N   1      37.095  14.955  11.134  1.00  0.00     0.189 HD
HETATM    6  C   UNK N   1      35.219  14.109  11.662  0.00  0.00     0.204 A 
HETATM    7  O   UNK N   1      34.753  13.602  12.764  0.00  0.00    -0.265 OA
ENDROOT
BRANCH   1   8
HETATM    8  C   UNK N   1      35.531  13.200  15.000  0.00  0.00     0.130 A 
HETATM    9  C   UNK N   1      35.316  11.909  15.455  0.00  0.00     0.046 A 
HETATM   10  C   UNK N   1      35.214  12.024  16.841  0.00  0.00     0.066 A 
HETATM   11  C   UNK N   1      35.376  13.376  17.106  0.00  0.00     0.215 A 
HETATM   12  O   UNK N   1      35.559  14.034  16.003  0.00  0.00    -0.284 OA
BRANCH  11  13
HETATM   13  N   UNK N   1      35.354  14.005  18.373  0.00  0.00    -0.090 N 
HETATM   14  O   UNK N   1      35.021  13.306  19.438  0.00  0.00    -0.530 OA
HETATM   15  O   UNK N   1      35.634  15.157  18.484  0.00  0.00    -0.530 OA
ENDBRANCH  11  13
ENDBRANCH   1   8
BRANCH   6  16
HETATM   16  S   UNK N   1      34.222  14.200  10.179  0.00  0.00    -0.074 SA
BRANCH  16  17
HETATM   17  C   UNK N   1      35.217  15.417   9.274  0.00  0.00     0.192 C 
BRANCH  17  18
HETATM   18  C   UNK N   1      34.928  16.807   9.763  0.00  0.00     0.149 C 
HETATM   19  O   UNK N   1      35.735  17.416  10.450  0.00  0.00    -0.649 OA
BRANCH  18  20
HETATM   20  O   UNK N   1      33.761  17.391   9.441  0.00  0.00    -0.776 OA
HETATM   21  H   UNK N   1      33.187  16.982   8.823  0.00  0.00     0.167 HD
ENDBRANCH  18  20
ENDBRANCH  17  18
ENDBRANCH  16  17
ENDBRANCH   6  16
TORSDOF 6
ENDMDL
MODEL 4
REMARK VINA RESULT:      -6.0      2.956      7.432
REMARK  6 active torsions:
REMARK  status: ('A' for Active; 'I' for Inactive)
REMARK    1  A    between atoms: C_1  and  N_18 
REMARK    2  A    between atoms: C_4  and  C_5 
REMARK    3  A    between atoms: C_10  and  S_11 
REMARK    4  A    between atoms: S_11  and  C_12 
REMARK    5  A    between atoms: C_12  and  C_13 
REMARK    6  A    between atoms: C_13  and  O_14 
ROOT
HETATM    1  C   UNK N   1      36.298  13.444  13.895  0.00  0.00     0.199 A 
HETATM    2  N   UNK N   1      37.252  12.916  13.102  0.00  0.00    -0.275 N 
ATOM      3  HN  UNK N   1      37.848  12.115  13.309  1.00  0.00     0.189 HD
HETATM    4  N   UNK N   1      37.258  13.651  11.994  0.00  0.00    -0.272 N 
ATOM      5  HN  UNK N   1      37.861  13.527  11.181  1.00  0.00     0.189 HD
HETATM    6  C   UNK N   1      36.307  14.597  12.160  0.00  0.00     0.204 A 
HETATM    7  O   UNK N   1      35.730  14.462  13.316  0.00  0.00    -0.265 OA
ENDROOT
BRANCH   1   8
HETATM    8  C   UNK N   1      35.890  13.009  15.221  0.00  0.00     0.130 A 
HETATM    9  C   UNK N   1      35.515  11.748  15.658  0.00  0.00     0.046 A 
HETATM   10  C   UNK N   1      35.227  11.903  17.013  0.00  0.00     0.066 A 
HETATM   11  C   UNK N   1      35.452  13.245  17.280  0.00  0.00     0.215 A 
HETATM   12  O   UNK N   1      35.839  13.862  16.206  0.00  0.00    -0.284 OA
BRANCH  11  13
HETATM   13  N   UNK N   1      35.298  13.905  18.523  0.00  0.00    -0.090 N 
HETATM   14  O   UNK N   1      35.236  13.195  19.631  0.00  0.00    -0.530 OA
HETATM   15  O   UNK N   1      35.224  15.092  18.576  0.00  0.00    -0.530 OA
ENDBRANCH  11  13
ENDBRANCH   1   8
BRANCH   6  16
HETATM   16  S   UNK N   1      35.829  15.891  11.021  0.00  0.00    -0.074 SA
BRANCH  16  17
HETATM   17  C   UNK N   1      35.149  14.840   9.707  0.00  0.00     0.192 C 
BRANCH  17  18
HETATM   18  C   UNK N   1      33.677  14.623   9.913  0.00  0.00     0.149 C 
HETATM   19  O   UNK N   1      32.995  14.068   9.063  0.00  0.00    -0.649 OA
BRANCH  18  20
HETATM   20  O   UNK N   1      33.100  15.045  11.051  0.00  0.00    -0.776 OA
HETATM   21  H   UNK N   1      32.570  15.819  11.049  0.00  0.00     0.167 HD
ENDBRANCH  18  20
ENDBRANCH  17  18
ENDBRANCH  16  17
ENDBRANCH   6  16
TORSDOF 6
ENDMDL
MODEL 5
REMARK VINA RESULT:      -6.0      2.410      7.270
REMARK  6 active torsions:
REMARK  status: ('A' for Active; 'I' for Inactive)
REMARK    1  A    between atoms: C_1  and  N_18 
REMARK    2  A    between atoms: C_4  and  C_5 
REMARK    3  A    between atoms: C_10  and  S_11 
REMARK    4  A    between atoms: S_11  and  C_12 
REMARK    5  A    between atoms: C_12  and  C_13 
REMARK    6  A    between atoms: C_13  and  O_14 
ROOT
HETATM    1  C   UNK N   1      35.052  15.476  11.030  0.00  0.00     0.199 A 
HETATM    2  N   UNK N   1      35.146  16.815  10.900  0.00  0.00    -0.275 N 
ATOM      3  HN  UNK N   1      35.715  17.447  11.462  1.00  0.00     0.189 HD
HETATM    4  N   UNK N   1      34.347  17.143   9.889  0.00  0.00    -0.272 N 
ATOM      5  HN  UNK N   1      34.179  18.079   9.521  1.00  0.00     0.189 HD
HETATM    6  C   UNK N   1      33.800  15.989   9.447  0.00  0.00     0.204 A 
HETATM    7  O   UNK N   1      34.234  14.984  10.145  0.00  0.00    -0.265 OA
ENDROOT
BRANCH   1   8
HETATM    8  C   UNK N   1      35.728  14.618  11.989  0.00  0.00     0.130 A 
HETATM    9  C   UNK N   1      36.326  13.382  11.798  0.00  0.00     0.046 A 
HETATM   10  C   UNK N   1      36.815  13.016  13.051  0.00  0.00     0.066 A 
HETATM   11  C   UNK N   1      36.471  14.062  13.894  0.00  0.00     0.215 A 
HETATM   12  O   UNK N   1      35.835  14.983  13.237  0.00  0.00    -0.284 OA
BRANCH  11  13
HETATM   13  N   UNK N   1      36.746  14.168  15.278  0.00  0.00    -0.090 N 
HETATM   14  O   UNK N   1      37.585  15.089  15.704  0.00  0.00    -0.530 OA
HETATM   15  O   UNK N   1      36.228  13.433  16.058  0.00  0.00    -0.530 OA
ENDBRANCH  11  13
ENDBRANCH   1   8
BRANCH   6  16
HETATM   16  S   UNK N   1      32.638  15.765   8.105  0.00  0.00    -0.074 SA
BRANCH  16  17
HETATM   17  C   UNK N   1      33.808  15.898   6.725  0.00  0.00     0.192 C 
BRANCH  17  18
HETATM   18  C   UNK N   1      33.893  17.316   6.238  0.00  0.00     0.149 C 
HETATM   19  O   UNK N   1      34.488  18.170   6.880  0.00  0.00    -0.649 OA
BRANCH  18  20
HETATM   20  O   UNK N   1      33.306  17.652   5.077  0.00  0.00    -0.776 OA
HETATM   21  H   UNK N   1      33.793  17.613   4.277  0.00  0.00     0.167 HD
ENDBRANCH  18  20
ENDBRANCH  17  18
ENDBRANCH  16  17
ENDBRANCH   6  16
TORSDOF 6
ENDMDL
MODEL 6
REMARK VINA RESULT:      -5.9      2.539      7.355
REMARK  6 active torsions:
REMARK  status: ('A' for Active; 'I' for Inactive)
REMARK    1  A    between atoms: C_1  and  N_18 
REMARK    2  A    between atoms: C_4  and  C_5 
REMARK    3  A    between atoms: C_10  and  S_11 
REMARK    4  A    between atoms: S_11  and  C_12 
REMARK    5  A    between atoms: C_12  and  C_13 
REMARK    6  A    between atoms: C_13  and  O_14 
ROOT
HETATM    1  C   UNK N   1      35.384  14.593  12.222  0.00  0.00     0.199 A 
HETATM    2  N   UNK N   1      36.276  15.499  11.777  0.00  0.00    -0.275 N 
ATOM      3  HN  UNK N   1      37.182  15.722  12.189  1.00  0.00     0.189 HD
HETATM    4  N   UNK N   1      35.738  16.042  10.689  0.00  0.00    -0.272 N 
ATOM      5  HN  UNK N   1      36.148  16.767  10.100  1.00  0.00     0.189 HD
HETATM    6  C   UNK N   1      34.539  15.442  10.519  0.00  0.00     0.204 A 
HETATM    7  O   UNK N   1      34.333  14.565  11.454  0.00  0.00    -0.265 OA
ENDROOT
BRANCH   1   8
HETATM    8  C   UNK N   1      35.489  13.724  13.384  0.00  0.00     0.130 A 
HETATM    9  C   UNK N   1      36.433  13.720  14.398  0.00  0.00     0.046 A 
HETATM   10  C   UNK N   1      36.052  12.681  15.246  0.00  0.00     0.066 A 
HETATM   11  C   UNK N   1      34.910  12.144  14.671  0.00  0.00     0.215 A 
HETATM   12  O   UNK N   1      34.610  12.781  13.581  0.00  0.00    -0.284 OA
BRANCH  11  13
HETATM   13  N   UNK N   1      34.140  11.060  15.155  0.00  0.00    -0.090 N 
HETATM   14  O   UNK N   1      34.520  10.433  16.250  0.00  0.00    -0.530 OA
HETATM   15  O   UNK N   1      33.155  10.710  14.585  0.00  0.00    -0.530 OA
ENDBRANCH  11  13
ENDBRANCH   1   8
BRANCH   6  16
HETATM   16  S   UNK N   1      33.333  15.738   9.231  0.00  0.00    -0.074 SA
BRANCH  16  17
HETATM   17  C   UNK N   1      34.483  16.151   7.890  0.00  0.00     0.192 C 
BRANCH  17  18
HETATM   18  C   UNK N   1      34.515  17.635   7.660  0.00  0.00     0.149 C 
HETATM   19  O   UNK N   1      34.270  18.109   6.560  0.00  0.00    -0.649 OA
BRANCH  18  20
HETATM   20  O   UNK N   1      34.819  18.456   8.680  0.00  0.00    -0.776 OA
HETATM   21  H   UNK N   1      35.531  19.060   8.599  0.00  0.00     0.167 HD
ENDBRANCH  18  20
ENDBRANCH  17  18
ENDBRANCH  16  17
ENDBRANCH   6  16
TORSDOF 6
ENDMDL
MODEL 7
REMARK VINA RESULT:      -5.9     17.704     20.656
REMARK  6 active torsions:
REMARK  status: ('A' for Active; 'I' for Inactive)
REMARK    1  A    between atoms: C_1  and  N_18 
REMARK    2  A    between atoms: C_4  and  C_5 
REMARK    3  A    between atoms: C_10  and  S_11 
REMARK    4  A    between atoms: S_11  and  C_12 
REMARK    5  A    between atoms: C_12  and  C_13 
REMARK    6  A    between atoms: C_13  and  O_14 
ROOT
HETATM    1  C   UNK N   1      27.577  23.580  -5.711  0.00  0.00     0.199 A 
HETATM    2  N   UNK N   1      26.528  23.011  -6.337  0.00  0.00    -0.275 N 
ATOM      3  HN  UNK N   1      26.408  22.023  -6.558  1.00  0.00     0.189 HD
HETATM    4  N   UNK N   1      25.680  23.998  -6.607  0.00  0.00    -0.272 N 
ATOM      5  HN  UNK N   1      24.779  23.920  -7.078  1.00  0.00     0.189 HD
HETATM    6  C   UNK N   1      26.251  25.128  -6.133  0.00  0.00     0.204 A 
HETATM    7  O   UNK N   1      27.401  24.864  -5.592  0.00  0.00    -0.265 OA
ENDROOT
BRANCH   1   8
HETATM    8  C   UNK N   1      28.779  22.935  -5.204  0.00  0.00     0.130 A 
HETATM    9  C   UNK N   1      29.665  22.090  -5.853  0.00  0.00     0.046 A 
HETATM   10  C   UNK N   1      30.629  21.772  -4.898  0.00  0.00     0.066 A 
HETATM   11  C   UNK N   1      30.244  22.452  -3.753  0.00  0.00     0.215 A 
HETATM   12  O   UNK N   1      29.155  23.123  -3.970  0.00  0.00    -0.284 OA
BRANCH  11  13
HETATM   13  N   UNK N   1      30.901  22.453  -2.499  0.00  0.00    -0.090 N 
HETATM   14  O   UNK N   1      30.348  23.073  -1.477  0.00  0.00    -0.530 OA
HETATM   15  O   UNK N   1      31.947  21.901  -2.361  0.00  0.00    -0.530 OA
ENDBRANCH  11  13
ENDBRANCH   1   8
BRANCH   6  16
HETATM   16  S   UNK N   1      25.604  26.796  -6.191  0.00  0.00    -0.074 SA
BRANCH  16  17
HETATM   17  C   UNK N   1      26.638  27.519  -4.887  0.00  0.00     0.192 C 
BRANCH  17  18
HETATM   18  C   UNK N   1      26.100  27.166  -3.529  0.00  0.00     0.149 C 
HETATM   19  O   UNK N   1      25.442  27.968  -2.882  0.00  0.00    -0.649 OA
BRANCH  18  20
HETATM   20  O   UNK N   1      26.348  25.949  -3.017  0.00  0.00    -0.776 OA
HETATM   21  H   UNK N   1      26.334  25.819  -2.089  0.00  0.00     0.167 HD
ENDBRANCH  18  20
ENDBRANCH  17  18
ENDBRANCH  16  17
ENDBRANCH   6  16
TORSDOF 6
ENDMDL
MODEL 8
REMARK VINA RESULT:      -5.9      2.743      7.800
REMARK  6 active torsions:
REMARK  status: ('A' for Active; 'I' for Inactive)
REMARK    1  A    between atoms: C_1  and  N_18 
REMARK    2  A    between atoms: C_4  and  C_5 
REMARK    3  A    between atoms: C_10  and  S_11 
REMARK    4  A    between atoms: S_11  and  C_12 
REMARK    5  A    between atoms: C_12  and  C_13 
REMARK    6  A    between atoms: C_13  and  O_14 
ROOT
HETATM    1  C   UNK N   1      35.728  13.699  14.176  0.00  0.00     0.199 A 
HETATM    2  N   UNK N   1      36.704  14.534  13.767  0.00  0.00    -0.275 N 
ATOM      3  HN  UNK N   1      37.500  14.862  14.314  1.00  0.00     0.189 HD
HETATM    4  N   UNK N   1      36.419  14.844  12.506  0.00  0.00    -0.272 N 
ATOM      5  HN  UNK N   1      36.952  15.457  11.891  1.00  0.00     0.189 HD
HETATM    6  C   UNK N   1      35.280  14.183  12.201  0.00  0.00     0.204 A 
HETATM    7  O   UNK N   1      34.869  13.492  13.221  0.00  0.00    -0.265 OA
ENDROOT
BRANCH   1   8
HETATM    8  C   UNK N   1      35.571  13.069  15.478  0.00  0.00     0.130 A 
HETATM    9  C   UNK N   1      35.205  13.631  16.690  0.00  0.00     0.046 A 
HETATM   10  C   UNK N   1      35.214  12.575  17.599  0.00  0.00     0.066 A 
HETATM   11  C   UNK N   1      35.585  11.463  16.859  0.00  0.00     0.215 A 
HETATM   12  O   UNK N   1      35.786  11.791  15.619  0.00  0.00    -0.284 OA
BRANCH  11  13
HETATM   13  N   UNK N   1      35.739  10.137  17.330  0.00  0.00    -0.090 N 
HETATM   14  O   UNK N   1      34.688   9.345  17.392  0.00  0.00    -0.530 OA
HETATM   15  O   UNK N   1      36.806   9.732  17.669  0.00  0.00    -0.530 OA
ENDBRANCH  11  13
ENDBRANCH   1   8
BRANCH   6  16
HETATM   16  S   UNK N   1      34.385  14.189  10.652  0.00  0.00    -0.074 SA
BRANCH  16  17
HETATM   17  C   UNK N   1      35.473  15.310   9.729  0.00  0.00     0.192 C 
BRANCH  17  18
HETATM   18  C   UNK N   1      35.119  16.742  10.011  0.00  0.00     0.149 C 
HETATM   19  O   UNK N   1      35.904  17.486  10.581  0.00  0.00    -0.649 OA
BRANCH  18  20
HETATM   20  O   UNK N   1      33.920  17.213   9.631  0.00  0.00    -0.776 OA
HETATM   21  H   UNK N   1      33.685  18.102   9.816  0.00  0.00     0.167 HD
ENDBRANCH  18  20
ENDBRANCH  17  18
ENDBRANCH  16  17
ENDBRANCH   6  16
TORSDOF 6
ENDMDL
MODEL 9
REMARK VINA RESULT:      -5.8      3.504      7.384
REMARK  6 active torsions:
REMARK  status: ('A' for Active; 'I' for Inactive)
REMARK    1  A    between atoms: C_1  and  N_18 
REMARK    2  A    between atoms: C_4  and  C_5 
REMARK    3  A    between atoms: C_10  and  S_11 
REMARK    4  A    between atoms: S_11  and  C_12 
REMARK    5  A    between atoms: C_12  and  C_13 
REMARK    6  A    between atoms: C_13  and  O_14 
ROOT
HETATM    1  C   UNK N   1      34.929  12.787  13.926  0.00  0.00     0.199 A 
HETATM    2  N   UNK N   1      34.504  11.983  12.932  0.00  0.00    -0.275 N 
ATOM      3  HN  UNK N   1      34.212  11.010  13.012  1.00  0.00     0.189 HD
HETATM    4  N   UNK N   1      34.542  12.717  11.823  0.00  0.00    -0.272 N 
ATOM      5  HN  UNK N   1      34.285  12.419  10.883  1.00  0.00     0.189 HD
HETATM    6  C   UNK N   1      34.990  13.938  12.192  0.00  0.00     0.204 A 
HETATM    7  O   UNK N   1      35.221  13.970  13.469  0.00  0.00    -0.265 OA
ENDROOT
BRANCH   1   8
HETATM    8  C   UNK N   1      35.074  12.470  15.338  0.00  0.00     0.130 A 
HETATM    9  C   UNK N   1      35.238  11.239  15.952  0.00  0.00     0.046 A 
HETATM   10  C   UNK N   1      35.324  11.519  17.315  0.00  0.00     0.066 A 
HETATM   11  C   UNK N   1      35.204  12.898  17.409  0.00  0.00     0.215 A 
HETATM   12  O   UNK N   1      35.059  13.421  16.230  0.00  0.00    -0.284 OA
BRANCH  11  13
HETATM   13  N   UNK N   1      35.228  13.677  18.590  0.00  0.00    -0.090 N 
HETATM   14  O   UNK N   1      35.362  14.984  18.502  0.00  0.00    -0.530 OA
HETATM   15  O   UNK N   1      35.129  13.163  19.659  0.00  0.00    -0.530 OA
ENDBRANCH  11  13
ENDBRANCH   1   8
BRANCH   6  16
HETATM   16  S   UNK N   1      35.260  15.370  11.154  0.00  0.00    -0.074 SA
BRANCH  16  17
HETATM   17  C   UNK N   1      36.098  14.538   9.778  0.00  0.00     0.192 C 
BRANCH  17  18
HETATM   18  C   UNK N   1      37.474  14.093  10.187  0.00  0.00     0.149 C 
HETATM   19  O   UNK N   1      37.670  12.968  10.622  0.00  0.00    -0.649 OA
BRANCH  18  20
HETATM   20  O   UNK N   1      38.505  14.947  10.074  0.00  0.00    -0.776 OA
HETATM   21  H   UNK N   1      39.385  14.626  10.101  0.00  0.00     0.167 HD
ENDBRANCH  18  20
ENDBRANCH  17  18
ENDBRANCH  16  17
ENDBRANCH   6  16
TORSDOF 6
ENDMDL
