REMARK  6 active torsions:
REMARK  status: ('A' for Active; 'I' for Inactive)
REMARK    1  A    between atoms: C_1  and  N_18 
REMARK    2  A    between atoms: C_4  and  C_5 
REMARK    3  A    between atoms: C_10  and  S_11 
REMARK    4  A    between atoms: S_11  and  C_12 
REMARK    5  A    between atoms: C_12  and  C_13 
REMARK    6  A    between atoms: C_13  and  O_14 
ROOT
HETATM    1  C   UNK N   1       0.849  -0.866   0.000  0.00  0.00     0.199 A 
HETATM    2  N   UNK N   1       1.170  -2.175   0.000  0.00  0.00    -0.275 N 
ATOM      3  HN  UNK N   1       2.107  -2.577   0.000  1.00  0.00     0.189 HD
HETATM    4  N   UNK N   1       0.017  -2.837   0.000  0.00  0.00    -0.272 N 
ATOM      5  HN  UNK N   1      -0.108  -3.849   0.000  1.00  0.00     0.189 HD
HETATM    6  C   UNK N   1      -0.958  -1.901   0.000  0.00  0.00     0.204 A 
HETATM    7  O   UNK N   1      -0.443  -0.709  -0.000  0.00  0.00    -0.265 OA
ENDROOT
BRANCH   1   8
HETATM    8  C   UNK N   1       1.746   0.279  -0.000  0.00  0.00     0.130 A 
HETATM    9  C   UNK N   1       3.131   0.313   0.000  0.00  0.00     0.046 A 
HETATM   10  C   UNK N   1       3.462   1.667   0.000  0.00  0.00     0.066 A 
HETATM   11  C   UNK N   1       2.248   2.337  -0.000  0.00  0.00     0.215 A 
HETATM   12  O   UNK N   1       1.264   1.491  -0.000  0.00  0.00    -0.284 OA
BRANCH  11  13
HETATM   13  N   UNK N   1       2.047   3.738  -0.000  0.00  0.00    -0.090 N 
HETATM   14  O   UNK N   1       0.820   4.217  -0.000  0.00  0.00    -0.530 OA
HETATM   15  O   UNK N   1       2.974   4.485   0.000  0.00  0.00    -0.530 OA
ENDBRANCH  11  13
ENDBRANCH   1   8
BRANCH   6  16
HETATM   16  S   UNK N   1      -2.729  -2.156   0.000  0.00  0.00    -0.074 SA
BRANCH  16  17
HETATM   17  C   UNK N   1      -2.729  -3.970  -0.000  0.00  0.00     0.192 C 
BRANCH  17  18
HETATM   18  C   UNK N   1      -4.135  -4.499  -0.000  0.00  0.00     0.149 C 
HETATM   19  O   UNK N   1      -5.095  -3.742   0.000  0.00  0.00    -0.649 OA
BRANCH  18  20
HETATM   20  O   UNK N   1      -4.341  -5.827  -0.000  0.00  0.00    -0.776 OA
HETATM   21  H   UNK N   1      -5.215  -6.166  -0.000  0.00  0.00     0.167 HD
ENDBRANCH  18  20
ENDBRANCH  17  18
ENDBRANCH  16  17
ENDBRANCH   6  16
TORSDOF 6
