REMARK  8 active torsions:
REMARK  status: ('A' for Active; 'I' for Inactive)
REMARK    1  A    between atoms: N_3  and  C_17 
REMARK    2  A    between atoms: C_4  and  C_23 
REMARK    3  A    between atoms: C_5  and  C_18 
REMARK    4  A    between atoms: C_10  and  C_13 
REMARK    5  A    between atoms: C_11  and  C_30 
REMARK    6  A    between atoms: C_11  and  C_31 
REMARK       I    between atoms: C_21  and  N_22 
REMARK    7  A    between atoms: N_29  and  C_30 
REMARK    8  A    between atoms: C_31  and  O_32 
ROOT
HETATM    1  C   UNK N   1      -2.323   4.257   0.028  0.00  0.00     0.013 A 
HETATM    2  C   UNK N   1      -1.141   5.003   0.042  0.00  0.00     0.010 A 
HETATM    3  C   UNK N   1       0.156   2.954   0.116  0.00  0.00     0.038 A 
HETATM    4  C   UNK N   1       1.346   5.189   0.095  0.00  0.00     0.043 C 
HETATM    5  C   UNK N   1       2.635   3.034   0.469  0.00  0.00     0.118 C 
HETATM    6  C   UNK N   1      -2.296   2.852   0.064  0.00  0.00    -0.018 A 
HETATM    7  C   UNK N   1      -1.043   2.230   0.107  0.00  0.00     0.042 A 
HETATM    8  C   UNK N   1       0.099   4.361   0.080  0.00  0.00    -0.031 A 
HETATM    9  C   UNK N   1       2.580   4.376  -0.277  0.00  0.00     0.035 C 
HETATM   10  N   UNK N   1       1.416   2.267   0.181  0.00  0.00    -0.371 N 
ENDROOT
BRANCH   6  11
HETATM   11  C   UNK N   1      -3.569   2.025   0.038  0.00  0.00     0.041 A 
HETATM   12  C   UNK N   1      -4.835   2.618  -0.236  0.00  0.00     0.127 A 
HETATM   13  N   UNK N   1      -5.954   1.848  -0.276  0.00  0.00    -0.176 N 
HETATM   14  C   UNK N   1      -5.907   0.517  -0.052  0.00  0.00     0.677 A 
ATOM     15  HN  UNK N   1      -6.852   2.287  -0.481  1.00  0.00     0.186 HD
HETATM   16  N   UNK N   1      -4.731  -0.083   0.230  0.00  0.00    -0.195 N 
HETATM   17  N   UNK N   1      -7.088  -0.249  -0.111  0.00  0.00    -0.234 N 
HETATM   18  C   UNK N   1      -3.566   0.614   0.281  0.00  0.00     0.041 A 
ATOM     19  HN  UNK N   1      -4.717  -1.087   0.409  1.00  0.00     0.184 HD
HETATM   20  H   UNK N   1      -7.964   0.198  -0.153  0.00  0.00     0.174 HD
HETATM   21  H   UNK N   1      -7.037  -1.232  -0.111  0.00  0.00     0.174 HD
BRANCH  12  22
HETATM   22  N   UNK N   1      -4.968   3.997  -0.496  0.00  0.00    -0.384 N 
HETATM   23  H   UNK N   1      -4.181   4.560  -0.677  0.00  0.00     0.157 HD
HETATM   24  H   UNK N   1      -5.865   4.405  -0.496  0.00  0.00     0.157 HD
ENDBRANCH  12  22
BRANCH  18  25
HETATM   25  C   UNK N   1      -2.331  -0.155   0.635  0.00  0.00     0.054 C 
HETATM   26  C   UNK N   1      -2.057  -1.235  -0.393  0.00  0.00     0.011 C 
ENDBRANCH  18  25
ENDBRANCH   6  11
BRANCH  10  27
HETATM   27  C   UNK N   1       1.403   0.830   0.395  0.00  0.00     0.126 C 
BRANCH  27  28
HETATM   28  C   UNK N   1       1.167   0.093  -0.912  0.00  0.00     0.046 C 
BRANCH  28  29
HETATM   29  C   UNK N   1       1.274  -1.408  -0.694  0.00  0.00     0.168 C 
BRANCH  29  30
HETATM   30  O   UNK N   1       2.614  -1.787  -0.588  0.00  0.00    -0.396 OA
HETATM   31  C   UNK N   1       2.683  -2.528   0.592  0.00  0.00     0.201 C 
ENDBRANCH  29  30
ENDBRANCH  28  29
ENDBRANCH  27  28
ENDBRANCH  10  27
BRANCH   5  32
HETATM   32  C   UNK N   1       3.924   2.279   0.140  0.00  0.00    -0.035 A 
HETATM   33  C   UNK N   1       4.855   2.789  -0.785  0.00  0.00     0.009 A 
HETATM   34  C   UNK N   1       6.042   2.102  -1.054  0.00  0.00     0.001 A 
HETATM   35  C   UNK N   1       6.314   0.896  -0.406  0.00  0.00     0.000 A 
HETATM   36  C   UNK N   1       5.405   0.381   0.519  0.00  0.00     0.001 A 
HETATM   37  C   UNK N   1       4.224   1.073   0.798  0.00  0.00     0.009 A 
ENDBRANCH   5  32
TORSDOF 8
