MODEL 1
REMARK VINA RESULT:      -6.9      0.000      0.000
REMARK  8 active torsions:
REMARK  status: ('A' for Active; 'I' for Inactive)
REMARK    1  A    between atoms: N_3  and  C_17 
REMARK    2  A    between atoms: C_4  and  C_23 
REMARK    3  A    between atoms: C_5  and  C_18 
REMARK    4  A    between atoms: C_10  and  C_13 
REMARK    5  A    between atoms: C_11  and  C_30 
REMARK    6  A    between atoms: C_11  and  C_31 
REMARK       I    between atoms: C_21  and  N_22 
REMARK    7  A    between atoms: N_29  and  C_30 
REMARK    8  A    between atoms: C_31  and  O_32 
ROOT
HETATM    1  C   UNK N   1      27.744  19.852   5.416  0.00  0.00     0.013 A 
HETATM    2  C   UNK N   1      26.684  20.335   4.644  0.00  0.00     0.010 A 
HETATM    3  C   UNK N   1      25.540  18.209   4.877  0.00  0.00     0.038 A 
HETATM    4  C   UNK N   1      24.461  20.071   3.544  0.00  0.00     0.043 C 
HETATM    5  C   UNK N   1      23.452  17.741   3.574  0.00  0.00     0.118 C 
HETATM    6  C   UNK N   1      27.732  18.544   5.929  0.00  0.00    -0.018 A 
HETATM    7  C   UNK N   1      26.618  17.747   5.644  0.00  0.00     0.042 A 
HETATM    8  C   UNK N   1      25.579  19.524   4.375  0.00  0.00    -0.031 A 
HETATM    9  C   UNK N   1      23.185  19.250   3.686  0.00  0.00     0.035 C 
HETATM   10  N   UNK N   1      24.428  17.343   4.596  0.00  0.00    -0.371 N 
ENDROOT
BRANCH   6  11
HETATM   11  C   UNK N   1      28.870  18.006   6.780  0.00  0.00     0.041 A 
HETATM   12  C   UNK N   1      28.829  18.072   8.202  0.00  0.00     0.127 A 
HETATM   13  N   UNK N   1      29.851  17.561   8.937  0.00  0.00    -0.176 N 
HETATM   14  C   UNK N   1      30.928  16.990   8.354  0.00  0.00     0.677 A 
ATOM     15  HN  UNK N   1      29.803  17.609   9.955  1.00  0.00     0.186 HD
HETATM   16  N   UNK N   1      31.016  16.924   7.009  0.00  0.00    -0.195 N 
HETATM   17  N   UNK N   1      31.963  16.463   9.151  0.00  0.00    -0.234 N 
HETATM   18  C   UNK N   1      30.034  17.404   6.203  0.00  0.00     0.041 A 
ATOM     19  HN  UNK N   1      31.842  16.501   6.586  1.00  0.00     0.184 HD
HETATM   20  H   UNK N   1      31.986  16.651  10.117  0.00  0.00     0.174 HD
HETATM   21  H   UNK N   1      32.664  15.907   8.742  0.00  0.00     0.174 HD
BRANCH  12  22
HETATM   22  N   UNK N   1      27.735  18.637   8.888  0.00  0.00    -0.384 N 
HETATM   23  H   UNK N   1      27.870  19.256   9.642  0.00  0.00     0.157 HD
HETATM   24  H   UNK N   1      26.818  18.408   8.609  0.00  0.00     0.157 HD
ENDBRANCH  12  22
BRANCH  18  25
HETATM   25  C   UNK N   1      30.259  17.303   4.726  0.00  0.00     0.054 C 
HETATM   26  C   UNK N   1      31.704  17.604   4.381  0.00  0.00     0.011 C 
ENDBRANCH  18  25
ENDBRANCH   6  11
BRANCH  10  27
HETATM   27  C   UNK N   1      24.529  15.948   4.990  0.00  0.00     0.126 C 
BRANCH  27  28
HETATM   28  C   UNK N   1      23.742  15.690   6.263  0.00  0.00     0.046 C 
BRANCH  28  29
HETATM   29  C   UNK N   1      23.070  14.328   6.197  0.00  0.00     0.168 C 
BRANCH  29  30
HETATM   30  O   UNK N   1      21.706  14.447   6.471  0.00  0.00    -0.396 OA
HETATM   31  C   UNK N   1      21.631  15.374   7.511  0.00  0.00     0.201 C 
ENDBRANCH  29  30
ENDBRANCH  28  29
ENDBRANCH  27  28
ENDBRANCH  10  27
BRANCH   5  32
HETATM   32  C   UNK N   1      22.145  16.949   3.635  0.00  0.00    -0.035 A 
HETATM   33  C   UNK N   1      21.058  17.390   4.413  0.00  0.00     0.009 A 
HETATM   34  C   UNK N   1      19.860  16.671   4.437  0.00  0.00     0.001 A 
HETATM   35  C   UNK N   1      19.732  15.500   3.687  0.00  0.00     0.000 A 
HETATM   36  C   UNK N   1      20.798  15.054   2.905  0.00  0.00     0.001 A 
HETATM   37  C   UNK N   1      21.992  15.779   2.870  0.00  0.00     0.009 A 
ENDBRANCH   5  32
TORSDOF 8
ENDMDL
MODEL 2
REMARK VINA RESULT:      -6.8      3.226      9.160
REMARK  8 active torsions:
REMARK  status: ('A' for Active; 'I' for Inactive)
REMARK    1  A    between atoms: N_3  and  C_17 
REMARK    2  A    between atoms: C_4  and  C_23 
REMARK    3  A    between atoms: C_5  and  C_18 
REMARK    4  A    between atoms: C_10  and  C_13 
REMARK    5  A    between atoms: C_11  and  C_30 
REMARK    6  A    between atoms: C_11  and  C_31 
REMARK       I    between atoms: C_21  and  N_22 
REMARK    7  A    between atoms: N_29  and  C_30 
REMARK    8  A    between atoms: C_31  and  O_32 
ROOT
HETATM    1  C   UNK N   1      29.799  16.994   3.678  0.00  0.00     0.013 A 
HETATM    2  C   UNK N   1      31.183  16.815   3.593  0.00  0.00     0.010 A 
HETATM    3  C   UNK N   1      31.326  16.734   6.013  0.00  0.00     0.038 A 
HETATM    4  C   UNK N   1      33.430  16.491   4.626  0.00  0.00     0.043 C 
HETATM    5  C   UNK N   1      33.558  16.710   7.152  0.00  0.00     0.118 C 
HETATM    6  C   UNK N   1      29.150  17.053   4.924  0.00  0.00    -0.018 A 
HETATM    7  C   UNK N   1      29.939  16.920   6.072  0.00  0.00     0.042 A 
HETATM    8  C   UNK N   1      31.951  16.679   4.752  0.00  0.00    -0.031 A 
HETATM    9  C   UNK N   1      34.052  15.954   5.909  0.00  0.00     0.035 C 
HETATM   10  N   UNK N   1      32.093  16.623   7.223  0.00  0.00    -0.371 N 
ENDROOT
BRANCH   6  11
HETATM   11  C   UNK N   1      27.647  17.235   5.036  0.00  0.00     0.041 A 
HETATM   12  C   UNK N   1      26.763  16.117   5.063  0.00  0.00     0.127 A 
HETATM   13  N   UNK N   1      25.424  16.311   5.188  0.00  0.00    -0.176 N 
HETATM   14  C   UNK N   1      24.892  17.549   5.280  0.00  0.00     0.677 A 
ATOM     15  HN  UNK N   1      24.805  15.500   5.214  1.00  0.00     0.186 HD
HETATM   16  N   UNK N   1      25.691  18.636   5.239  0.00  0.00    -0.195 N 
HETATM   17  N   UNK N   1      23.498  17.708   5.418  0.00  0.00    -0.234 N 
HETATM   18  C   UNK N   1      27.040  18.529   5.124  0.00  0.00     0.041 A 
ATOM     19  HN  UNK N   1      25.270  19.563   5.297  1.00  0.00     0.184 HD
HETATM   20  H   UNK N   1      22.899  16.938   5.285  0.00  0.00     0.174 HD
HETATM   21  H   UNK N   1      23.124  18.589   5.647  0.00  0.00     0.174 HD
BRANCH  12  22
HETATM   22  N   UNK N   1      27.239  14.793   4.988  0.00  0.00    -0.384 N 
HETATM   23  H   UNK N   1      27.258  14.305   4.133  0.00  0.00     0.157 HD
HETATM   24  H   UNK N   1      27.557  14.346   5.807  0.00  0.00     0.157 HD
ENDBRANCH  12  22
BRANCH  18  25
HETATM   25  C   UNK N   1      27.818  19.806   5.056  0.00  0.00     0.054 C 
HETATM   26  C   UNK N   1      27.372  20.765   6.142  0.00  0.00     0.011 C 
ENDBRANCH  18  25
ENDBRANCH   6  11
BRANCH  10  27
HETATM   27  C   UNK N   1      31.419  16.865   8.487  0.00  0.00     0.126 C 
BRANCH  27  28
HETATM   28  C   UNK N   1      31.227  18.354   8.718  0.00  0.00     0.046 C 
BRANCH  28  29
HETATM   29  C   UNK N   1      29.961  18.600   9.524  0.00  0.00     0.168 C 
BRANCH  29  30
HETATM   30  O   UNK N   1      28.871  18.780   8.669  0.00  0.00    -0.396 OA
HETATM   31  C   UNK N   1      27.933  17.835   9.084  0.00  0.00     0.201 C 
ENDBRANCH  29  30
ENDBRANCH  28  29
ENDBRANCH  27  28
ENDBRANCH  10  27
BRANCH   5  32
HETATM   32  C   UNK N   1      34.261  16.206   8.413  0.00  0.00    -0.035 A 
HETATM   33  C   UNK N   1      34.708  17.098   9.407  0.00  0.00     0.009 A 
HETATM   34  C   UNK N   1      35.324  16.621  10.568  0.00  0.00     0.001 A 
HETATM   35  C   UNK N   1      35.505  15.249  10.750  0.00  0.00     0.000 A 
HETATM   36  C   UNK N   1      35.061  14.352   9.777  0.00  0.00     0.001 A 
HETATM   37  C   UNK N   1      34.434  14.827   8.623  0.00  0.00     0.009 A 
ENDBRANCH   5  32
TORSDOF 8
ENDMDL
MODEL 3
REMARK VINA RESULT:      -6.8      3.890      7.024
REMARK  8 active torsions:
REMARK  status: ('A' for Active; 'I' for Inactive)
REMARK    1  A    between atoms: N_3  and  C_17 
REMARK    2  A    between atoms: C_4  and  C_23 
REMARK    3  A    between atoms: C_5  and  C_18 
REMARK    4  A    between atoms: C_10  and  C_13 
REMARK    5  A    between atoms: C_11  and  C_30 
REMARK    6  A    between atoms: C_11  and  C_31 
REMARK       I    between atoms: C_21  and  N_22 
REMARK    7  A    between atoms: N_29  and  C_30 
REMARK    8  A    between atoms: C_31  and  O_32 
ROOT
HETATM    1  C   UNK N   1      34.578  15.793   6.647  0.00  0.00     0.013 A 
HETATM    2  C   UNK N   1      34.169  16.250   5.391  0.00  0.00     0.010 A 
HETATM    3  C   UNK N   1      31.923  16.591   6.242  0.00  0.00     0.038 A 
HETATM    4  C   UNK N   1      32.443  17.139   3.825  0.00  0.00     0.043 C 
HETATM    5  C   UNK N   1      30.055  17.195   4.685  0.00  0.00     0.118 C 
HETATM    6  C   UNK N   1      33.675  15.717   7.722  0.00  0.00    -0.018 A 
HETATM    7  C   UNK N   1      32.356  16.123   7.489  0.00  0.00     0.042 A 
HETATM    8  C   UNK N   1      32.849  16.655   5.182  0.00  0.00    -0.031 A 
HETATM    9  C   UNK N   1      31.133  17.916   3.860  0.00  0.00     0.035 C 
HETATM   10  N   UNK N   1      30.553  16.977   6.050  0.00  0.00    -0.371 N 
ENDROOT
BRANCH   6  11
HETATM   11  C   UNK N   1      34.104  15.234   9.096  0.00  0.00     0.041 A 
HETATM   12  C   UNK N   1      34.703  16.116  10.041  0.00  0.00     0.127 A 
HETATM   13  N   UNK N   1      35.054  15.660  11.272  0.00  0.00    -0.176 N 
HETATM   14  C   UNK N   1      34.859  14.373  11.633  0.00  0.00     0.677 A 
ATOM     15  HN  UNK N   1      35.476  16.306  11.939  1.00  0.00     0.186 HD
HETATM   16  N   UNK N   1      34.311  13.499  10.763  0.00  0.00    -0.195 N 
HETATM   17  N   UNK N   1      35.229  13.940  12.922  0.00  0.00    -0.234 N 
HETATM   18  C   UNK N   1      33.925  13.877   9.516  0.00  0.00     0.041 A 
ATOM     19  HN  UNK N   1      34.183  12.528  11.049  1.00  0.00     0.184 HD
HETATM   20  H   UNK N   1      35.773  14.522  13.501  0.00  0.00     0.174 HD
HETATM   21  H   UNK N   1      34.942  13.056  13.245  0.00  0.00     0.174 HD
BRANCH  12  22
HETATM   22  N   UNK N   1      34.927  17.476   9.747  0.00  0.00    -0.384 N 
HETATM   23  H   UNK N   1      34.195  18.060   9.445  0.00  0.00     0.157 HD
HETATM   24  H   UNK N   1      35.834  17.849   9.847  0.00  0.00     0.157 HD
ENDBRANCH  12  22
BRANCH  18  25
HETATM   25  C   UNK N   1      33.360  12.811   8.629  0.00  0.00     0.054 C 
HETATM   26  C   UNK N   1      34.451  11.868   8.159  0.00  0.00     0.011 C 
ENDBRANCH  18  25
ENDBRANCH   6  11
BRANCH  10  27
HETATM   27  C   UNK N   1      29.611  16.721   7.126  0.00  0.00     0.126 C 
BRANCH  27  28
HETATM   28  C   UNK N   1      29.597  17.873   8.115  0.00  0.00     0.046 C 
BRANCH  28  29
HETATM   29  C   UNK N   1      28.191  18.086   8.653  0.00  0.00     0.168 C 
BRANCH  29  30
HETATM   30  O   UNK N   1      27.888  17.117   9.612  0.00  0.00    -0.396 OA
HETATM   31  C   UNK N   1      29.009  17.073  10.441  0.00  0.00     0.201 C 
ENDBRANCH  29  30
ENDBRANCH  28  29
ENDBRANCH  27  28
ENDBRANCH  10  27
BRANCH   5  32
HETATM   32  C   UNK N   1      28.729  17.955   4.632  0.00  0.00    -0.035 A 
HETATM   33  C   UNK N   1      27.513  17.288   4.391  0.00  0.00     0.009 A 
HETATM   34  C   UNK N   1      26.305  17.991   4.374  0.00  0.00     0.001 A 
HETATM   35  C   UNK N   1      26.295  19.369   4.595  0.00  0.00     0.000 A 
HETATM   36  C   UNK N   1      27.491  20.044   4.843  0.00  0.00     0.001 A 
HETATM   37  C   UNK N   1      28.698  19.340   4.872  0.00  0.00     0.009 A 
ENDBRANCH   5  32
TORSDOF 8
ENDMDL
MODEL 4
REMARK VINA RESULT:      -6.7      1.392      2.066
REMARK  8 active torsions:
REMARK  status: ('A' for Active; 'I' for Inactive)
REMARK    1  A    between atoms: N_3  and  C_17 
REMARK    2  A    between atoms: C_4  and  C_23 
REMARK    3  A    between atoms: C_5  and  C_18 
REMARK    4  A    between atoms: C_10  and  C_13 
REMARK    5  A    between atoms: C_11  and  C_30 
REMARK    6  A    between atoms: C_11  and  C_31 
REMARK       I    between atoms: C_21  and  N_22 
REMARK    7  A    between atoms: N_29  and  C_30 
REMARK    8  A    between atoms: C_31  and  O_32 
ROOT
HETATM    1  C   UNK N   1      27.877  19.840   5.235  0.00  0.00     0.013 A 
HETATM    2  C   UNK N   1      26.824  20.340   4.464  0.00  0.00     0.010 A 
HETATM    3  C   UNK N   1      25.549  18.320   4.889  0.00  0.00     0.038 A 
HETATM    4  C   UNK N   1      24.548  20.155   3.459  0.00  0.00     0.043 C 
HETATM    5  C   UNK N   1      23.387  17.910   3.690  0.00  0.00     0.118 C 
HETATM    6  C   UNK N   1      27.796  18.574   5.842  0.00  0.00    -0.018 A 
HETATM    7  C   UNK N   1      26.621  17.839   5.651  0.00  0.00     0.042 A 
HETATM    8  C   UNK N   1      25.658  19.591   4.291  0.00  0.00    -0.031 A 
HETATM    9  C   UNK N   1      23.226  19.438   3.701  0.00  0.00     0.035 C 
HETATM   10  N   UNK N   1      24.372  17.517   4.707  0.00  0.00    -0.371 N 
ENDROOT
BRANCH   6  11
HETATM   11  C   UNK N   1      28.926  18.019   6.692  0.00  0.00     0.041 A 
HETATM   12  C   UNK N   1      28.892  18.095   8.114  0.00  0.00     0.127 A 
HETATM   13  N   UNK N   1      29.906  17.568   8.849  0.00  0.00    -0.176 N 
HETATM   14  C   UNK N   1      30.969  16.972   8.266  0.00  0.00     0.677 A 
ATOM     15  HN  UNK N   1      29.863  17.625   9.867  1.00  0.00     0.186 HD
HETATM   16  N   UNK N   1      31.050  16.895   6.921  0.00  0.00    -0.195 N 
HETATM   17  N   UNK N   1      31.996  16.430   9.063  0.00  0.00    -0.234 N 
HETATM   18  C   UNK N   1      30.075  17.390   6.115  0.00  0.00     0.041 A 
ATOM     19  HN  UNK N   1      31.866  16.452   6.498  1.00  0.00     0.184 HD
HETATM   20  H   UNK N   1      32.027  16.623  10.027  0.00  0.00     0.174 HD
HETATM   21  H   UNK N   1      32.684  15.856   8.654  0.00  0.00     0.174 HD
BRANCH  12  22
HETATM   22  N   UNK N   1      27.812  18.687   8.800  0.00  0.00    -0.384 N 
HETATM   23  H   UNK N   1      27.929  19.074   9.698  0.00  0.00     0.157 HD
HETATM   24  H   UNK N   1      26.924  18.715   8.374  0.00  0.00     0.157 HD
ENDBRANCH  12  22
BRANCH  18  25
HETATM   25  C   UNK N   1      30.292  17.274   4.638  0.00  0.00     0.054 C 
HETATM   26  C   UNK N   1      31.738  17.563   4.283  0.00  0.00     0.011 C 
ENDBRANCH  18  25
ENDBRANCH   6  11
BRANCH  10  27
HETATM   27  C   UNK N   1      24.392  16.150   5.198  0.00  0.00     0.126 C 
BRANCH  27  28
HETATM   28  C   UNK N   1      24.598  15.170   4.055  0.00  0.00     0.046 C 
BRANCH  28  29
HETATM   29  C   UNK N   1      26.029  14.658   4.055  0.00  0.00     0.168 C 
BRANCH  29  30
HETATM   30  O   UNK N   1      26.816  15.418   3.187  0.00  0.00    -0.396 OA
HETATM   31  C   UNK N   1      26.151  15.360   1.961  0.00  0.00     0.201 C 
ENDBRANCH  29  30
ENDBRANCH  28  29
ENDBRANCH  27  28
ENDBRANCH  10  27
BRANCH   5  32
HETATM   32  C   UNK N   1      22.033  17.217   3.851  0.00  0.00    -0.035 A 
HETATM   33  C   UNK N   1      21.487  16.429   2.820  0.00  0.00     0.009 A 
HETATM   34  C   UNK N   1      20.262  15.779   2.993  0.00  0.00     0.001 A 
HETATM   35  C   UNK N   1      19.564  15.909   4.195  0.00  0.00     0.000 A 
HETATM   36  C   UNK N   1      20.095  16.680   5.229  0.00  0.00     0.001 A 
HETATM   37  C   UNK N   1      21.326  17.321   5.063  0.00  0.00     0.009 A 
ENDBRANCH   5  32
TORSDOF 8
ENDMDL
MODEL 5
REMARK VINA RESULT:      -6.6     11.538     14.942
REMARK  8 active torsions:
REMARK  status: ('A' for Active; 'I' for Inactive)
REMARK    1  A    between atoms: N_3  and  C_17 
REMARK    2  A    between atoms: C_4  and  C_23 
REMARK    3  A    between atoms: C_5  and  C_18 
REMARK    4  A    between atoms: C_10  and  C_13 
REMARK    5  A    between atoms: C_11  and  C_30 
REMARK    6  A    between atoms: C_11  and  C_31 
REMARK       I    between atoms: C_21  and  N_22 
REMARK    7  A    between atoms: N_29  and  C_30 
REMARK    8  A    between atoms: C_31  and  O_32 
ROOT
HETATM    1  C   UNK N   1      26.861  23.109  -6.957  0.00  0.00     0.013 A 
HETATM    2  C   UNK N   1      27.385  21.911  -7.452  0.00  0.00     0.010 A 
HETATM    3  C   UNK N   1      29.478  22.349  -6.306  0.00  0.00     0.038 A 
HETATM    4  C   UNK N   1      29.218  20.234  -7.674  0.00  0.00     0.043 C 
HETATM    5  C   UNK N   1      31.472  20.885  -6.703  0.00  0.00     0.118 C 
HETATM    6  C   UNK N   1      27.628  23.954  -6.136  0.00  0.00    -0.018 A 
HETATM    7  C   UNK N   1      28.931  23.547  -5.828  0.00  0.00     0.042 A 
HETATM    8  C   UNK N   1      28.687  21.522  -7.127  0.00  0.00    -0.031 A 
HETATM    9  C   UNK N   1      30.453  19.756  -6.920  0.00  0.00     0.035 C 
HETATM   10  N   UNK N   1      30.829  21.988  -5.976  0.00  0.00    -0.371 N 
ENDROOT
BRANCH   6  11
HETATM   11  C   UNK N   1      27.072  25.253  -5.580  0.00  0.00     0.041 A 
HETATM   12  C   UNK N   1      26.529  25.326  -4.265  0.00  0.00     0.127 A 
HETATM   13  N   UNK N   1      26.060  26.508  -3.787  0.00  0.00    -0.176 N 
HETATM   14  C   UNK N   1      26.084  27.634  -4.532  0.00  0.00     0.677 A 
ATOM     15  HN  UNK N   1      25.681  26.545  -2.840  1.00  0.00     0.186 HD
HETATM   16  N   UNK N   1      26.573  27.606  -5.790  0.00  0.00    -0.195 N 
HETATM   17  N   UNK N   1      25.597  28.843  -3.997  0.00  0.00    -0.234 N 
HETATM   18  C   UNK N   1      27.068  26.466  -6.340  0.00  0.00     0.041 A 
ATOM     19  HN  UNK N   1      26.572  28.463  -6.342  1.00  0.00     0.184 HD
HETATM   20  H   UNK N   1      25.094  28.841  -3.151  0.00  0.00     0.174 HD
HETATM   21  H   UNK N   1      25.761  29.691  -4.469  0.00  0.00     0.174 HD
BRANCH  12  22
HETATM   22  N   UNK N   1      26.481  24.200  -3.418  0.00  0.00    -0.384 N 
HETATM   23  H   UNK N   1      25.870  24.169  -2.646  0.00  0.00     0.157 HD
HETATM   24  H   UNK N   1      27.069  23.431  -3.602  0.00  0.00     0.157 HD
ENDBRANCH  12  22
BRANCH  18  25
HETATM   25  C   UNK N   1      27.553  26.551  -7.754  0.00  0.00     0.054 C 
HETATM   26  C   UNK N   1      26.414  26.321  -8.727  0.00  0.00     0.011 C 
ENDBRANCH  18  25
ENDBRANCH   6  11
BRANCH  10  27
HETATM   27  C   UNK N   1      31.648  22.962  -5.277  0.00  0.00     0.126 C 
BRANCH  27  28
HETATM   28  C   UNK N   1      31.746  22.622  -3.800  0.00  0.00     0.046 C 
BRANCH  28  29
HETATM   29  C   UNK N   1      31.031  23.677  -2.970  0.00  0.00     0.168 C 
BRANCH  29  30
HETATM   30  O   UNK N   1      30.654  23.147  -1.734  0.00  0.00    -0.396 OA
HETATM   31  C   UNK N   1      29.285  22.906  -1.852  0.00  0.00     0.201 C 
ENDBRANCH  29  30
ENDBRANCH  28  29
ENDBRANCH  27  28
ENDBRANCH  10  27
BRANCH   5  32
HETATM   32  C   UNK N   1      32.734  20.357  -6.019  0.00  0.00    -0.035 A 
HETATM   33  C   UNK N   1      32.660  19.547  -4.870  0.00  0.00     0.009 A 
HETATM   34  C   UNK N   1      33.821  19.049  -4.273  0.00  0.00     0.001 A 
HETATM   35  C   UNK N   1      35.071  19.353  -4.813  0.00  0.00     0.000 A 
HETATM   36  C   UNK N   1      35.162  20.148  -5.957  0.00  0.00     0.001 A 
HETATM   37  C   UNK N   1      34.001  20.637  -6.562  0.00  0.00     0.009 A 
ENDBRANCH   5  32
TORSDOF 8
ENDMDL
MODEL 6
REMARK VINA RESULT:      -6.6     12.116     14.503
REMARK  8 active torsions:
REMARK  status: ('A' for Active; 'I' for Inactive)
REMARK    1  A    between atoms: N_3  and  C_17 
REMARK    2  A    between atoms: C_4  and  C_23 
REMARK    3  A    between atoms: C_5  and  C_18 
REMARK    4  A    between atoms: C_10  and  C_13 
REMARK    5  A    between atoms: C_11  and  C_30 
REMARK    6  A    between atoms: C_11  and  C_31 
REMARK       I    between atoms: C_21  and  N_22 
REMARK    7  A    between atoms: N_29  and  C_30 
REMARK    8  A    between atoms: C_31  and  O_32 
ROOT
HETATM    1  C   UNK N   1      29.508  23.673  -2.955  0.00  0.00     0.013 A 
HETATM    2  C   UNK N   1      30.224  22.473  -2.998  0.00  0.00     0.010 A 
HETATM    3  C   UNK N   1      29.737  22.262  -5.365  0.00  0.00     0.038 A 
HETATM    4  C   UNK N   1      31.121  20.484  -4.208  0.00  0.00     0.043 C 
HETATM    5  C   UNK N   1      30.335  20.166  -6.601  0.00  0.00     0.118 C 
HETATM    6  C   UNK N   1      28.888  24.190  -4.106  0.00  0.00    -0.018 A 
HETATM    7  C   UNK N   1      29.020  23.463  -5.294  0.00  0.00     0.042 A 
HETATM    8  C   UNK N   1      30.348  21.766  -4.196  0.00  0.00    -0.031 A 
HETATM    9  C   UNK N   1      31.512  20.062  -5.619  0.00  0.00     0.035 C 
HETATM   10  N   UNK N   1      29.826  21.544  -6.606  0.00  0.00    -0.371 N 
ENDROOT
BRANCH   6  11
HETATM   11  C   UNK N   1      28.116  25.497  -4.081  0.00  0.00     0.041 A 
HETATM   12  C   UNK N   1      26.691  25.519  -4.076  0.00  0.00     0.127 A 
HETATM   13  N   UNK N   1      26.028  26.704  -4.030  0.00  0.00    -0.176 N 
HETATM   14  C   UNK N   1      26.685  27.883  -3.997  0.00  0.00     0.677 A 
ATOM     15  HN  UNK N   1      25.007  26.702  -4.019  1.00  0.00     0.186 HD
HETATM   16  N   UNK N   1      28.034  27.909  -4.019  0.00  0.00    -0.195 N 
HETATM   17  N   UNK N   1      25.961  29.091  -3.940  0.00  0.00    -0.234 N 
HETATM   18  C   UNK N   1      28.772  26.769  -4.057  0.00  0.00     0.041 A 
ATOM     19  HN  UNK N   1      28.513  28.810  -4.007  1.00  0.00     0.184 HD
HETATM   20  H   UNK N   1      24.988  29.090  -4.087  0.00  0.00     0.174 HD
HETATM   21  H   UNK N   1      26.429  29.936  -3.753  0.00  0.00     0.174 HD
BRANCH  12  22
HETATM   22  N   UNK N   1      25.931  24.332  -4.093  0.00  0.00    -0.384 N 
HETATM   23  H   UNK N   1      25.681  23.874  -3.258  0.00  0.00     0.157 HD
HETATM   24  H   UNK N   1      25.644  23.953  -4.956  0.00  0.00     0.157 HD
ENDBRANCH  12  22
BRANCH  18  25
HETATM   25  C   UNK N   1      30.260  26.926  -4.112  0.00  0.00     0.054 C 
HETATM   26  C   UNK N   1      30.750  27.802  -2.976  0.00  0.00     0.011 C 
ENDBRANCH  18  25
ENDBRANCH   6  11
BRANCH  10  27
HETATM   27  C   UNK N   1      29.029  22.012  -7.727  0.00  0.00     0.126 C 
BRANCH  27  28
HETATM   28  C   UNK N   1      27.656  21.363  -7.720  0.00  0.00     0.046 C 
BRANCH  28  29
HETATM   29  C   UNK N   1      26.575  22.424  -7.853  0.00  0.00     0.168 C 
BRANCH  29  30
HETATM   30  O   UNK N   1      25.734  22.400  -6.737  0.00  0.00    -0.396 OA
HETATM   31  C   UNK N   1      24.717  21.508  -7.077  0.00  0.00     0.201 C 
ENDBRANCH  29  30
ENDBRANCH  28  29
ENDBRANCH  27  28
ENDBRANCH  10  27
BRANCH   5  32
HETATM   32  C   UNK N   1      30.734  19.656  -7.987  0.00  0.00    -0.035 A 
HETATM   33  C   UNK N   1      31.853  20.178  -8.664  0.00  0.00     0.009 A 
HETATM   34  C   UNK N   1      32.222  19.682  -9.917  0.00  0.00     0.001 A 
HETATM   35  C   UNK N   1      31.478  18.663 -10.513  0.00  0.00     0.000 A 
HETATM   36  C   UNK N   1      30.371  18.130  -9.852  0.00  0.00     0.001 A 
HETATM   37  C   UNK N   1      30.008  18.616  -8.593  0.00  0.00     0.009 A 
ENDBRANCH   5  32
TORSDOF 8
ENDMDL
MODEL 7
REMARK VINA RESULT:      -6.6     11.956     15.486
REMARK  8 active torsions:
REMARK  status: ('A' for Active; 'I' for Inactive)
REMARK    1  A    between atoms: N_3  and  C_17 
REMARK    2  A    between atoms: C_4  and  C_23 
REMARK    3  A    between atoms: C_5  and  C_18 
REMARK    4  A    between atoms: C_10  and  C_13 
REMARK    5  A    between atoms: C_11  and  C_30 
REMARK    6  A    between atoms: C_11  and  C_31 
REMARK       I    between atoms: C_21  and  N_22 
REMARK    7  A    between atoms: N_29  and  C_30 
REMARK    8  A    between atoms: C_31  and  O_32 
ROOT
HETATM    1  C   UNK N   1      26.947  24.692  -4.783  0.00  0.00     0.013 A 
HETATM    2  C   UNK N   1      27.619  24.284  -3.627  0.00  0.00     0.010 A 
HETATM    3  C   UNK N   1      29.207  23.048  -4.982  0.00  0.00     0.038 A 
HETATM    4  C   UNK N   1      29.446  23.049  -2.461  0.00  0.00     0.043 C 
HETATM    5  C   UNK N   1      30.892  21.541  -3.903  0.00  0.00     0.118 C 
HETATM    6  C   UNK N   1      27.380  24.287  -6.057  0.00  0.00    -0.018 A 
HETATM    7  C   UNK N   1      28.512  23.466  -6.124  0.00  0.00     0.042 A 
HETATM    8  C   UNK N   1      28.749  23.469  -3.718  0.00  0.00    -0.031 A 
HETATM    9  C   UNK N   1      30.854  22.532  -2.730  0.00  0.00     0.035 C 
HETATM   10  N   UNK N   1      30.352  22.189  -5.105  0.00  0.00    -0.371 N 
ENDROOT
BRANCH   6  11
HETATM   11  C   UNK N   1      26.670  24.729  -7.324  0.00  0.00     0.041 A 
HETATM   12  C   UNK N   1      25.685  23.911  -7.948  0.00  0.00     0.127 A 
HETATM   13  N   UNK N   1      25.049  24.344  -9.068  0.00  0.00    -0.176 N 
HETATM   14  C   UNK N   1      25.330  25.542  -9.624  0.00  0.00     0.677 A 
ATOM     15  HN  UNK N   1      24.341  23.749  -9.499  1.00  0.00     0.186 HD
HETATM   16  N   UNK N   1      26.269  26.342  -9.076  0.00  0.00    -0.195 N 
HETATM   17  N   UNK N   1      24.642  25.960 -10.781  0.00  0.00    -0.234 N 
HETATM   18  C   UNK N   1      26.945  25.986  -7.952  0.00  0.00     0.041 A 
ATOM     19  HN  UNK N   1      26.477  27.238  -9.517  1.00  0.00     0.184 HD
HETATM   20  H   UNK N   1      24.079  25.323 -11.277  0.00  0.00     0.174 HD
HETATM   21  H   UNK N   1      24.724  26.891 -11.092  0.00  0.00     0.174 HD
BRANCH  12  22
HETATM   22  N   UNK N   1      25.323  22.654  -7.423  0.00  0.00    -0.384 N 
HETATM   23  H   UNK N   1      25.070  22.550  -6.477  0.00  0.00     0.157 HD
HETATM   24  H   UNK N   1      25.323  21.865  -8.013  0.00  0.00     0.157 HD
ENDBRANCH  12  22
BRANCH  18  25
HETATM   25  C   UNK N   1      27.986  26.941  -7.456  0.00  0.00     0.054 C 
HETATM   26  C   UNK N   1      27.360  28.019  -6.593  0.00  0.00     0.011 C 
ENDBRANCH  18  25
ENDBRANCH   6  11
BRANCH  10  27
HETATM   27  C   UNK N   1      30.664  21.648  -6.417  0.00  0.00     0.126 C 
BRANCH  27  28
HETATM   28  C   UNK N   1      29.815  20.424  -6.711  0.00  0.00     0.046 C 
BRANCH  28  29
HETATM   29  C   UNK N   1      29.331  20.456  -8.152  0.00  0.00     0.168 C 
BRANCH  29  30
HETATM   30  O   UNK N   1      27.972  20.777  -8.198  0.00  0.00    -0.396 OA
HETATM   31  C   UNK N   1      27.733  21.124  -9.528  0.00  0.00     0.201 C 
ENDBRANCH  29  30
ENDBRANCH  28  29
ENDBRANCH  27  28
ENDBRANCH  10  27
BRANCH   5  32
HETATM   32  C   UNK N   1      32.301  20.977  -4.095  0.00  0.00    -0.035 A 
HETATM   33  C   UNK N   1      33.435  21.810  -4.058  0.00  0.00     0.009 A 
HETATM   34  C   UNK N   1      34.718  21.276  -4.206  0.00  0.00     0.001 A 
HETATM   35  C   UNK N   1      34.886  19.903  -4.396  0.00  0.00     0.000 A 
HETATM   36  C   UNK N   1      33.772  19.062  -4.427  0.00  0.00     0.001 A 
HETATM   37  C   UNK N   1      32.490  19.594  -4.267  0.00  0.00     0.009 A 
ENDBRANCH   5  32
TORSDOF 8
ENDMDL
MODEL 8
REMARK VINA RESULT:      -6.5     11.889     15.344
REMARK  8 active torsions:
REMARK  status: ('A' for Active; 'I' for Inactive)
REMARK    1  A    between atoms: N_3  and  C_17 
REMARK    2  A    between atoms: C_4  and  C_23 
REMARK    3  A    between atoms: C_5  and  C_18 
REMARK    4  A    between atoms: C_10  and  C_13 
REMARK    5  A    between atoms: C_11  and  C_30 
REMARK    6  A    between atoms: C_11  and  C_31 
REMARK       I    between atoms: C_21  and  N_22 
REMARK    7  A    between atoms: N_29  and  C_30 
REMARK    8  A    between atoms: C_31  and  O_32 
ROOT
HETATM    1  C   UNK N   1      27.283  24.350  -4.518  0.00  0.00     0.013 A 
HETATM    2  C   UNK N   1      28.047  23.992  -3.403  0.00  0.00     0.010 A 
HETATM    3  C   UNK N   1      29.621  22.841  -4.847  0.00  0.00     0.038 A 
HETATM    4  C   UNK N   1      30.012  22.877  -2.345  0.00  0.00     0.043 C 
HETATM    5  C   UNK N   1      31.456  21.446  -3.865  0.00  0.00     0.118 C 
HETATM    6  C   UNK N   1      27.663  23.960  -5.814  0.00  0.00    -0.018 A 
HETATM    7  C   UNK N   1      28.835  23.207  -5.946  0.00  0.00     0.042 A 
HETATM    8  C   UNK N   1      29.217  23.245  -3.559  0.00  0.00    -0.031 A 
HETATM    9  C   UNK N   1      31.429  22.442  -2.696  0.00  0.00     0.035 C 
HETATM   10  N   UNK N   1      30.806  22.050  -5.035  0.00  0.00    -0.371 N 
ENDROOT
BRANCH   6  11
HETATM   11  C   UNK N   1      26.852  24.349  -7.038  0.00  0.00     0.041 A 
HETATM   12  C   UNK N   1      27.103  25.562  -7.740  0.00  0.00     0.127 A 
HETATM   13  N   UNK N   1      26.376  25.872  -8.846  0.00  0.00    -0.176 N 
HETATM   14  C   UNK N   1      25.401  25.058  -9.305  0.00  0.00     0.677 A 
ATOM     15  HN  UNK N   1      26.573  26.742  -9.342  1.00  0.00     0.186 HD
HETATM   16  N   UNK N   1      25.118  23.907  -8.659  0.00  0.00    -0.195 N 
HETATM   17  N   UNK N   1      24.676  25.410 -10.460  0.00  0.00    -0.234 N 
HETATM   18  C   UNK N   1      25.803  23.521  -7.551  0.00  0.00     0.041 A 
ATOM     19  HN  UNK N   1      24.370  23.311  -9.013  1.00  0.00     0.184 HD
HETATM   20  H   UNK N   1      24.762  26.314 -10.840  0.00  0.00     0.174 HD
HETATM   21  H   UNK N   1      24.084  24.751 -10.889  0.00  0.00     0.174 HD
BRANCH  12  22
HETATM   22  N   UNK N   1      28.112  26.459  -7.336  0.00  0.00    -0.384 N 
HETATM   23  H   UNK N   1      28.203  27.346  -7.753  0.00  0.00     0.157 HD
HETATM   24  H   UNK N   1      28.739  26.193  -6.623  0.00  0.00     0.157 HD
ENDBRANCH  12  22
BRANCH  18  25
HETATM   25  C   UNK N   1      25.376  22.240  -6.903  0.00  0.00     0.054 C 
HETATM   26  C   UNK N   1      25.201  21.146  -7.937  0.00  0.00     0.011 C 
ENDBRANCH  18  25
ENDBRANCH   6  11
BRANCH  10  27
HETATM   27  C   UNK N   1      31.071  21.517  -6.360  0.00  0.00     0.126 C 
BRANCH  27  28
HETATM   28  C   UNK N   1      30.538  20.101  -6.488  0.00  0.00     0.046 C 
BRANCH  28  29
HETATM   29  C   UNK N   1      29.342  20.073  -7.425  0.00  0.00     0.168 C 
BRANCH  29  30
HETATM   30  O   UNK N   1      29.040  18.758  -7.786  0.00  0.00    -0.396 OA
HETATM   31  C   UNK N   1      30.096  18.361  -8.605  0.00  0.00     0.201 C 
ENDBRANCH  29  30
ENDBRANCH  28  29
ENDBRANCH  27  28
ENDBRANCH  10  27
BRANCH   5  32
HETATM   32  C   UNK N   1      32.882  20.964  -4.139  0.00  0.00    -0.035 A 
HETATM   33  C   UNK N   1      33.206  19.594  -4.129  0.00  0.00     0.009 A 
HETATM   34  C   UNK N   1      34.507  19.167  -4.409  0.00  0.00     0.001 A 
HETATM   35  C   UNK N   1      35.502  20.101  -4.700  0.00  0.00     0.000 A 
HETATM   36  C   UNK N   1      35.195  21.463  -4.722  0.00  0.00     0.001 A 
HETATM   37  C   UNK N   1      33.892  21.890  -4.454  0.00  0.00     0.009 A 
ENDBRANCH   5  32
TORSDOF 8
ENDMDL
MODEL 9
REMARK VINA RESULT:      -6.3      5.686     10.908
REMARK  8 active torsions:
REMARK  status: ('A' for Active; 'I' for Inactive)
REMARK    1  A    between atoms: N_3  and  C_17 
REMARK    2  A    between atoms: C_4  and  C_23 
REMARK    3  A    between atoms: C_5  and  C_18 
REMARK    4  A    between atoms: C_10  and  C_13 
REMARK    5  A    between atoms: C_11  and  C_30 
REMARK    6  A    between atoms: C_11  and  C_31 
REMARK       I    between atoms: C_21  and  N_22 
REMARK    7  A    between atoms: N_29  and  C_30 
REMARK    8  A    between atoms: C_31  and  O_32 
ROOT
HETATM    1  C   UNK N   1      33.347  18.068   7.914  0.00  0.00     0.013 A 
HETATM    2  C   UNK N   1      34.374  17.845   8.836  0.00  0.00     0.010 A 
HETATM    3  C   UNK N   1      33.802  15.488   8.907  0.00  0.00     0.038 A 
HETATM    4  C   UNK N   1      35.718  16.355  10.317  0.00  0.00     0.043 C 
HETATM    5  C   UNK N   1      34.890  13.968  10.575  0.00  0.00     0.118 C 
HETATM    6  C   UNK N   1      32.524  17.017   7.474  0.00  0.00    -0.018 A 
HETATM    7  C   UNK N   1      32.776  15.740   7.987  0.00  0.00     0.042 A 
HETATM    8  C   UNK N   1      34.611  16.560   9.331  0.00  0.00    -0.031 A 
HETATM    9  C   UNK N   1      36.113  14.888  10.440  0.00  0.00     0.035 C 
HETATM   10  N   UNK N   1      34.006  14.161   9.418  0.00  0.00    -0.371 N 
ENDROOT
BRANCH   6  11
HETATM   11  C   UNK N   1      31.411  17.239   6.465  0.00  0.00     0.041 A 
HETATM   12  C   UNK N   1      30.051  17.359   6.873  0.00  0.00     0.127 A 
HETATM   13  N   UNK N   1      29.080  17.581   5.949  0.00  0.00    -0.176 N 
HETATM   14  C   UNK N   1      29.364  17.685   4.633  0.00  0.00     0.677 A 
ATOM     15  HN  UNK N   1      28.112  17.672   6.258  1.00  0.00     0.186 HD
HETATM   16  N   UNK N   1      30.636  17.559   4.201  0.00  0.00    -0.195 N 
HETATM   17  N   UNK N   1      28.329  17.924   3.706  0.00  0.00    -0.234 N 
HETATM   18  C   UNK N   1      31.666  17.344   5.060  0.00  0.00     0.041 A 
ATOM     19  HN  UNK N   1      30.830  17.627   3.202  1.00  0.00     0.184 HD
HETATM   20  H   UNK N   1      27.389  17.855   3.988  0.00  0.00     0.174 HD
HETATM   21  H   UNK N   1      28.548  18.162   2.776  0.00  0.00     0.174 HD
BRANCH  12  22
HETATM   22  N   UNK N   1      29.673  17.278   8.228  0.00  0.00    -0.384 N 
HETATM   23  H   UNK N   1      29.837  16.463   8.756  0.00  0.00     0.157 HD
HETATM   24  H   UNK N   1      29.236  18.051   8.656  0.00  0.00     0.157 HD
ENDBRANCH  12  22
BRANCH  18  25
HETATM   25  C   UNK N   1      33.029  17.188   4.460  0.00  0.00     0.054 C 
HETATM   26  C   UNK N   1      32.940  16.576   3.076  0.00  0.00     0.011 C 
ENDBRANCH  18  25
ENDBRANCH   6  11
BRANCH  10  27
HETATM   27  C   UNK N   1      33.031  13.138   9.080  0.00  0.00     0.126 C 
BRANCH  27  28
HETATM   28  C   UNK N   1      33.543  12.257   7.955  0.00  0.00     0.046 C 
BRANCH  28  29
HETATM   29  C   UNK N   1      33.245  10.796   8.256  0.00  0.00     0.168 C 
BRANCH  29  30
HETATM   30  O   UNK N   1      32.260  10.697   9.240  0.00  0.00    -0.396 OA
HETATM   31  C   UNK N   1      32.252   9.350   9.602  0.00  0.00     0.201 C 
ENDBRANCH  29  30
ENDBRANCH  28  29
ENDBRANCH  27  28
ENDBRANCH  10  27
BRANCH   5  32
HETATM   32  C   UNK N   1      35.320  12.515  10.781  0.00  0.00    -0.035 A 
HETATM   33  C   UNK N   1      36.395  11.961  10.060  0.00  0.00     0.009 A 
HETATM   34  C   UNK N   1      36.795  10.640  10.279  0.00  0.00     0.001 A 
HETATM   35  C   UNK N   1      36.125   9.853  11.218  0.00  0.00     0.000 A 
HETATM   36  C   UNK N   1      35.062  10.390  11.946  0.00  0.00     0.001 A 
HETATM   37  C   UNK N   1      34.670  11.714  11.737  0.00  0.00     0.009 A 
ENDBRANCH   5  32
TORSDOF 8
ENDMDL
