REMARK  3 active torsions:
REMARK  status: ('A' for Active; 'I' for Inactive)
REMARK    1  A    between atoms: C_4  and  O_5 
REMARK    2  A    between atoms: C_9  and  C_10 
REMARK    3  A    between atoms: C_11  and  C_12 
ROOT
HETATM    1  C   UNK N   1      -2.595   3.883   0.037  0.00  0.00     0.051 C 
HETATM    2  C   UNK N   1      -2.388   2.407   0.041  0.00  0.00    -0.028 A 
HETATM    3  C   UNK N   1      -1.092   1.908   0.057  0.00  0.00     0.021 A 
HETATM    4  C   UNK N   1      -3.482   1.525   0.023  0.00  0.00     0.077 A 
HETATM    5  C   UNK N   1      -3.248   0.134   0.024  0.00  0.00    -0.028 A 
HETATM    6  C   UNK N   1      -4.394  -0.821   0.009  0.00  0.00     0.051 C 
HETATM    7  C   UNK N   1      -1.938  -0.359   0.036  0.00  0.00     0.021 A 
HETATM    8  C   UNK N   1      -0.854   0.534   0.052  0.00  0.00    -0.035 A 
ENDROOT
BRANCH   8   9
HETATM    9  C   UNK N   1       0.545   0.100   0.049  0.00  0.00     0.012 C 
HETATM   10  C   UNK N   1       0.983  -1.160  -0.031  0.00  0.00     0.012 C 
BRANCH  10  11
HETATM   11  C   UNK N   1       2.439  -1.417  -0.021  0.00  0.00    -0.036 A 
HETATM   12  C   UNK N   1       3.351  -0.353   0.103  0.00  0.00     0.011 A 
HETATM   13  C   UNK N   1       4.725  -0.593   0.118  0.00  0.00     0.001 A 
HETATM   14  C   UNK N   1       5.202  -1.900   0.010  0.00  0.00     0.000 A 
HETATM   15  C   UNK N   1       4.303  -2.965  -0.117  0.00  0.00     0.001 A 
HETATM   16  C   UNK N   1       2.923  -2.725  -0.132  0.00  0.00     0.011 A 
ENDBRANCH  10  11
ENDBRANCH   8   9
BRANCH   4  17
HETATM   17  O   UNK N   1      -4.735   2.004   0.003  0.00  0.00    -0.360 OA
HETATM   18  H   UNK N   1      -4.882   2.930  -0.010  0.00  0.00     0.217 HD
ENDBRANCH   4  17
TORSDOF 3
