MODEL 1
REMARK VINA RESULT:      -6.4      0.000      0.000
REMARK  3 active torsions:
REMARK  status: ('A' for Active; 'I' for Inactive)
REMARK    1  A    between atoms: C_4  and  O_5 
REMARK    2  A    between atoms: C_9  and  C_10 
REMARK    3  A    between atoms: C_11  and  C_12 
ROOT
HETATM    1  C   UNK N   1      38.072  12.095  10.256  0.00  0.00     0.051 C 
HETATM    2  C   UNK N   1      37.327  13.038  11.137  0.00  0.00    -0.028 A 
HETATM    3  C   UNK N   1      37.181  12.731  12.483  0.00  0.00     0.021 A 
HETATM    4  C   UNK N   1      36.771  14.221  10.620  0.00  0.00     0.077 A 
HETATM    5  C   UNK N   1      36.069  15.088  11.483  0.00  0.00    -0.028 A 
HETATM    6  C   UNK N   1      35.473  16.351  10.957  0.00  0.00     0.051 C 
HETATM    7  C   UNK N   1      35.924  14.768  12.838  0.00  0.00     0.021 A 
HETATM    8  C   UNK N   1      36.483  13.581  13.340  0.00  0.00    -0.035 A 
ENDROOT
BRANCH   8   9
HETATM    9  C   UNK N   1      36.363  13.166  14.740  0.00  0.00     0.012 C 
HETATM   10  C   UNK N   1      35.230  13.063  15.441  0.00  0.00     0.012 C 
BRANCH  10  11
HETATM   11  C   UNK N   1      35.295  12.626  16.851  0.00  0.00    -0.036 A 
HETATM   12  C   UNK N   1      35.558  11.281  17.170  0.00  0.00     0.011 A 
HETATM   13  C   UNK N   1      35.624  10.866  18.500  0.00  0.00     0.001 A 
HETATM   14  C   UNK N   1      35.430  11.792  19.526  0.00  0.00     0.000 A 
HETATM   15  C   UNK N   1      35.164  13.131  19.219  0.00  0.00     0.001 A 
HETATM   16  C   UNK N   1      35.097  13.549  17.884  0.00  0.00     0.011 A 
ENDBRANCH  10  11
ENDBRANCH   8   9
BRANCH   4  17
HETATM   17  O   UNK N   1      36.906  14.518   9.319  0.00  0.00    -0.360 OA
HETATM   18  H   UNK N   1      36.336  15.147   8.921  0.00  0.00     0.217 HD
ENDBRANCH   4  17
TORSDOF 3
ENDMDL
MODEL 2
REMARK VINA RESULT:      -6.3     19.871     23.541
REMARK  3 active torsions:
REMARK  status: ('A' for Active; 'I' for Inactive)
REMARK    1  A    between atoms: C_4  and  O_5 
REMARK    2  A    between atoms: C_9  and  C_10 
REMARK    3  A    between atoms: C_11  and  C_12 
ROOT
HETATM    1  C   UNK N   1      32.191  21.662  -2.916  0.00  0.00     0.051 C 
HETATM    2  C   UNK N   1      31.178  21.759  -4.004  0.00  0.00    -0.028 A 
HETATM    3  C   UNK N   1      30.321  22.852  -4.031  0.00  0.00     0.021 A 
HETATM    4  C   UNK N   1      31.079  20.762  -4.989  0.00  0.00     0.077 A 
HETATM    5  C   UNK N   1      30.105  20.885  -6.002  0.00  0.00    -0.028 A 
HETATM    6  C   UNK N   1      29.985  19.841  -7.060  0.00  0.00     0.051 C 
HETATM    7  C   UNK N   1      29.243  21.988  -6.019  0.00  0.00     0.021 A 
HETATM    8  C   UNK N   1      29.352  22.977  -5.027  0.00  0.00    -0.035 A 
ENDROOT
BRANCH   8   9
HETATM    9  C   UNK N   1      28.479  24.152  -4.964  0.00  0.00     0.012 C 
HETATM   10  C   UNK N   1      27.186  24.160  -4.628  0.00  0.00     0.012 C 
BRANCH  10  11
HETATM   11  C   UNK N   1      26.455  25.445  -4.617  0.00  0.00    -0.036 A 
HETATM   12  C   UNK N   1      25.638  25.812  -5.702  0.00  0.00     0.011 A 
HETATM   13  C   UNK N   1      24.943  27.021  -5.692  0.00  0.00     0.001 A 
HETATM   14  C   UNK N   1      25.056  27.877  -4.596  0.00  0.00     0.000 A 
HETATM   15  C   UNK N   1      25.869  27.523  -3.513  0.00  0.00     0.001 A 
HETATM   16  C   UNK N   1      26.567  26.309  -3.522  0.00  0.00     0.011 A 
ENDBRANCH  10  11
ENDBRANCH   8   9
BRANCH   4  17
HETATM   17  O   UNK N   1      31.902  19.703  -4.963  0.00  0.00    -0.360 OA
HETATM   18  H   UNK N   1      32.500  19.593  -4.249  0.00  0.00     0.217 HD
ENDBRANCH   4  17
TORSDOF 3
ENDMDL
MODEL 3
REMARK VINA RESULT:      -6.2     19.760     23.495
REMARK  3 active torsions:
REMARK  status: ('A' for Active; 'I' for Inactive)
REMARK    1  A    between atoms: C_4  and  O_5 
REMARK    2  A    between atoms: C_9  and  C_10 
REMARK    3  A    between atoms: C_11  and  C_12 
ROOT
HETATM    1  C   UNK N   1      30.081  19.854  -7.056  0.00  0.00     0.051 C 
HETATM    2  C   UNK N   1      30.172  20.863  -5.963  0.00  0.00    -0.028 A 
HETATM    3  C   UNK N   1      29.304  21.947  -5.973  0.00  0.00     0.021 A 
HETATM    4  C   UNK N   1      31.122  20.732  -4.936  0.00  0.00     0.077 A 
HETATM    5  C   UNK N   1      31.181  21.708  -3.920  0.00  0.00    -0.028 A 
HETATM    6  C   UNK N   1      32.179  21.587  -2.818  0.00  0.00     0.051 C 
HETATM    7  C   UNK N   1      30.304  22.799  -3.941  0.00  0.00     0.021 A 
HETATM    8  C   UNK N   1      29.361  22.919  -4.974  0.00  0.00    -0.035 A 
ENDROOT
BRANCH   8   9
HETATM    9  C   UNK N   1      28.420  24.037  -5.078  0.00  0.00     0.012 C 
HETATM   10  C   UNK N   1      27.491  24.376  -4.178  0.00  0.00     0.012 C 
BRANCH  10  11
HETATM   11  C   UNK N   1      26.622  25.542  -4.447  0.00  0.00    -0.036 A 
HETATM   12  C   UNK N   1      25.891  25.626  -5.646  0.00  0.00     0.011 A 
HETATM   13  C   UNK N   1      25.066  26.721  -5.900  0.00  0.00     0.001 A 
HETATM   14  C   UNK N   1      24.963  27.745  -4.957  0.00  0.00     0.000 A 
HETATM   15  C   UNK N   1      25.689  27.672  -3.762  0.00  0.00     0.001 A 
HETATM   16  C   UNK N   1      26.517  26.572  -3.506  0.00  0.00     0.011 A 
ENDBRANCH  10  11
ENDBRANCH   8   9
BRANCH   4  17
HETATM   17  O   UNK N   1      31.965  19.688  -4.926  0.00  0.00    -0.360 OA
HETATM   18  H   UNK N   1      31.967  19.094  -4.201  0.00  0.00     0.217 HD
ENDBRANCH   4  17
TORSDOF 3
ENDMDL
MODEL 4
REMARK VINA RESULT:      -6.2      4.503      7.582
REMARK  3 active torsions:
REMARK  status: ('A' for Active; 'I' for Inactive)
REMARK    1  A    between atoms: C_4  and  O_5 
REMARK    2  A    between atoms: C_9  and  C_10 
REMARK    3  A    between atoms: C_11  and  C_12 
ROOT
HETATM    1  C   UNK N   1      35.374  14.430  18.042  0.00  0.00     0.051 C 
HETATM    2  C   UNK N   1      35.277  12.945  18.126  0.00  0.00    -0.028 A 
HETATM    3  C   UNK N   1      35.182  12.208  16.953  0.00  0.00     0.021 A 
HETATM    4  C   UNK N   1      35.275  12.292  19.371  0.00  0.00     0.077 A 
HETATM    5  C   UNK N   1      35.178  10.886  19.413  0.00  0.00    -0.028 A 
HETATM    6  C   UNK N   1      35.178  10.171  20.722  0.00  0.00     0.051 C 
HETATM    7  C   UNK N   1      35.079  10.152  18.225  0.00  0.00     0.021 A 
HETATM    8  C   UNK N   1      35.080  10.817  16.989  0.00  0.00    -0.035 A 
ENDROOT
BRANCH   8   9
HETATM    9  C   UNK N   1      34.963  10.125  15.703  0.00  0.00     0.012 C 
HETATM   10  C   UNK N   1      34.578  10.667  14.544  0.00  0.00     0.012 C 
BRANCH  10  11
HETATM   11  C   UNK N   1      34.518   9.815  13.337  0.00  0.00    -0.036 A 
HETATM   12  C   UNK N   1      35.277   8.633  13.258  0.00  0.00     0.011 A 
HETATM   13  C   UNK N   1      35.218   7.825  12.123  0.00  0.00     0.001 A 
HETATM   14  C   UNK N   1      34.398   8.190  11.054  0.00  0.00     0.000 A 
HETATM   15  C   UNK N   1      33.641   9.365  11.121  0.00  0.00     0.001 A 
HETATM   16  C   UNK N   1      33.700  10.177  12.261  0.00  0.00     0.011 A 
ENDBRANCH  10  11
ENDBRANCH   8   9
BRANCH   4  17
HETATM   17  O   UNK N   1      35.362  13.002  20.506  0.00  0.00    -0.360 OA
HETATM   18  H   UNK N   1      34.875  13.798  20.599  0.00  0.00     0.217 HD
ENDBRANCH   4  17
TORSDOF 3
ENDMDL
MODEL 5
REMARK VINA RESULT:      -6.1      4.427      7.189
REMARK  3 active torsions:
REMARK  status: ('A' for Active; 'I' for Inactive)
REMARK    1  A    between atoms: C_4  and  O_5 
REMARK    2  A    between atoms: C_9  and  C_10 
REMARK    3  A    between atoms: C_11  and  C_12 
ROOT
HETATM    1  C   UNK N   1      35.417  10.217  19.984  0.00  0.00     0.051 C 
HETATM    2  C   UNK N   1      35.282  11.231  18.900  0.00  0.00    -0.028 A 
HETATM    3  C   UNK N   1      35.096  10.801  17.593  0.00  0.00     0.021 A 
HETATM    4  C   UNK N   1      35.348  12.606  19.186  0.00  0.00     0.077 A 
HETATM    5  C   UNK N   1      35.220  13.537  18.134  0.00  0.00    -0.028 A 
HETATM    6  C   UNK N   1      35.282  15.001  18.415  0.00  0.00     0.051 C 
HETATM    7  C   UNK N   1      35.037  13.093  16.819  0.00  0.00     0.021 A 
HETATM    8  C   UNK N   1      34.975  11.716  16.548  0.00  0.00    -0.035 A 
ENDROOT
BRANCH   8   9
HETATM    9  C   UNK N   1      34.802  11.170  15.200  0.00  0.00     0.012 C 
HETATM   10  C   UNK N   1      34.896   9.884  14.848  0.00  0.00     0.012 C 
BRANCH  10  11
HETATM   11  C   UNK N   1      34.690   9.508  13.433  0.00  0.00    -0.036 A 
HETATM   12  C   UNK N   1      35.341   8.386  12.890  0.00  0.00     0.011 A 
HETATM   13  C   UNK N   1      35.144   8.026  11.557  0.00  0.00     0.001 A 
HETATM   14  C   UNK N   1      34.293   8.785  10.752  0.00  0.00     0.000 A 
HETATM   15  C   UNK N   1      33.643   9.905  11.282  0.00  0.00     0.001 A 
HETATM   16  C   UNK N   1      33.840  10.267  12.621  0.00  0.00     0.011 A 
ENDBRANCH  10  11
ENDBRANCH   8   9
BRANCH   4  17
HETATM   17  O   UNK N   1      35.532  13.025  20.447  0.00  0.00    -0.360 OA
HETATM   18  H   UNK N   1      35.732  13.925  20.616  0.00  0.00     0.217 HD
ENDBRANCH   4  17
TORSDOF 3
ENDMDL
MODEL 6
REMARK VINA RESULT:      -6.0      2.241      3.751
REMARK  3 active torsions:
REMARK  status: ('A' for Active; 'I' for Inactive)
REMARK    1  A    between atoms: C_4  and  O_5 
REMARK    2  A    between atoms: C_9  and  C_10 
REMARK    3  A    between atoms: C_11  and  C_12 
ROOT
HETATM    1  C   UNK N   1      35.246  12.804  12.386  0.00  0.00     0.051 C 
HETATM    2  C   UNK N   1      35.599  13.091  13.806  0.00  0.00    -0.028 A 
HETATM    3  C   UNK N   1      35.166  12.220  14.797  0.00  0.00     0.021 A 
HETATM    4  C   UNK N   1      36.354  14.227  14.146  0.00  0.00     0.077 A 
HETATM    5  C   UNK N   1      36.666  14.468  15.500  0.00  0.00    -0.028 A 
HETATM    6  C   UNK N   1      37.469  15.665  15.885  0.00  0.00     0.051 C 
HETATM    7  C   UNK N   1      36.221  13.587  16.493  0.00  0.00     0.021 A 
HETATM    8  C   UNK N   1      35.466  12.457  16.138  0.00  0.00    -0.035 A 
ENDROOT
BRANCH   8   9
HETATM    9  C   UNK N   1      34.950  11.496  17.116  0.00  0.00     0.012 C 
HETATM   10  C   UNK N   1      35.390  11.325  18.366  0.00  0.00     0.012 C 
BRANCH  10  11
HETATM   11  C   UNK N   1      34.748  10.303  19.221  0.00  0.00    -0.036 A 
HETATM   12  C   UNK N   1      34.122   9.182  18.645  0.00  0.00     0.011 A 
HETATM   13  C   UNK N   1      33.521   8.214  19.449  0.00  0.00     0.001 A 
HETATM   14  C   UNK N   1      33.540   8.355  20.837  0.00  0.00     0.000 A 
HETATM   15  C   UNK N   1      34.157   9.468  21.419  0.00  0.00     0.001 A 
HETATM   16  C   UNK N   1      34.762  10.441  20.613  0.00  0.00     0.011 A 
ENDBRANCH  10  11
ENDBRANCH   8   9
BRANCH   4  17
HETATM   17  O   UNK N   1      36.770  15.072  13.191  0.00  0.00    -0.360 OA
HETATM   18  H   UNK N   1      36.151  15.439  12.589  0.00  0.00     0.217 HD
ENDBRANCH   4  17
TORSDOF 3
ENDMDL
MODEL 7
REMARK VINA RESULT:      -6.0      2.940      4.671
REMARK  3 active torsions:
REMARK  status: ('A' for Active; 'I' for Inactive)
REMARK    1  A    between atoms: C_4  and  O_5 
REMARK    2  A    between atoms: C_9  and  C_10 
REMARK    3  A    between atoms: C_11  and  C_12 
ROOT
HETATM    1  C   UNK N   1      38.131   9.398  14.480  0.00  0.00     0.051 C 
HETATM    2  C   UNK N   1      37.346  10.500  15.105  0.00  0.00    -0.028 A 
HETATM    3  C   UNK N   1      36.595  10.232  16.242  0.00  0.00     0.021 A 
HETATM    4  C   UNK N   1      37.355  11.794  14.556  0.00  0.00     0.077 A 
HETATM    5  C   UNK N   1      36.597  12.811  15.173  0.00  0.00    -0.028 A 
HETATM    6  C   UNK N   1      36.595  14.193  14.610  0.00  0.00     0.051 C 
HETATM    7  C   UNK N   1      35.840  12.530  16.316  0.00  0.00     0.021 A 
HETATM    8  C   UNK N   1      35.839  11.232  16.853  0.00  0.00    -0.035 A 
ENDROOT
BRANCH   8   9
HETATM    9  C   UNK N   1      35.062  10.852  18.035  0.00  0.00     0.012 C 
HETATM   10  C   UNK N   1      34.638   9.622  18.342  0.00  0.00     0.012 C 
BRANCH  10  11
HETATM   11  C   UNK N   1      33.861   9.419  19.584  0.00  0.00    -0.036 A 
HETATM   12  C   UNK N   1      34.202  10.111  20.760  0.00  0.00     0.011 A 
HETATM   13  C   UNK N   1      33.467   9.925  21.932  0.00  0.00     0.001 A 
HETATM   14  C   UNK N   1      32.384   9.046  21.939  0.00  0.00     0.000 A 
HETATM   15  C   UNK N   1      32.039   8.350  20.774  0.00  0.00     0.001 A 
HETATM   16  C   UNK N   1      32.776   8.536  19.597  0.00  0.00     0.011 A 
ENDBRANCH  10  11
ENDBRANCH   8   9
BRANCH   4  17
HETATM   17  O   UNK N   1      38.076  12.055  13.455  0.00  0.00    -0.360 OA
HETATM   18  H   UNK N   1      38.341  12.934  13.267  0.00  0.00     0.217 HD
ENDBRANCH   4  17
TORSDOF 3
ENDMDL
MODEL 8
REMARK VINA RESULT:      -5.9     14.712     17.188
REMARK  3 active torsions:
REMARK  status: ('A' for Active; 'I' for Inactive)
REMARK    1  A    between atoms: C_4  and  O_5 
REMARK    2  A    between atoms: C_9  and  C_10 
REMARK    3  A    between atoms: C_11  and  C_12 
ROOT
HETATM    1  C   UNK N   1      19.929  12.143  11.650  0.00  0.00     0.051 C 
HETATM    2  C   UNK N   1      21.096  12.575  10.829  0.00  0.00    -0.028 A 
HETATM    3  C   UNK N   1      20.876  13.364   9.707  0.00  0.00     0.021 A 
HETATM    4  C   UNK N   1      22.403  12.189  11.172  0.00  0.00     0.077 A 
HETATM    5  C   UNK N   1      23.482  12.613  10.370  0.00  0.00    -0.028 A 
HETATM    6  C   UNK N   1      24.878  12.219  10.718  0.00  0.00     0.051 C 
HETATM    7  C   UNK N   1      23.249  13.405   9.239  0.00  0.00     0.021 A 
HETATM    8  C   UNK N   1      21.938  13.782   8.906  0.00  0.00    -0.035 A 
ENDROOT
BRANCH   8   9
HETATM    9  C   UNK N   1      21.609  14.595   7.733  0.00  0.00     0.012 C 
HETATM   10  C   UNK N   1      21.309  15.897   7.731  0.00  0.00     0.012 C 
BRANCH  10  11
HETATM   11  C   UNK N   1      21.001  16.561   6.446  0.00  0.00    -0.036 A 
HETATM   12  C   UNK N   1      21.601  17.790   6.116  0.00  0.00     0.011 A 
HETATM   13  C   UNK N   1      21.316  18.416   4.902  0.00  0.00     0.001 A 
HETATM   14  C   UNK N   1      20.428  17.820   4.006  0.00  0.00     0.000 A 
HETATM   15  C   UNK N   1      19.824  16.600   4.327  0.00  0.00     0.001 A 
HETATM   16  C   UNK N   1      20.109  15.970   5.545  0.00  0.00     0.011 A 
ENDBRANCH  10  11
ENDBRANCH   8   9
BRANCH   4  17
HETATM   17  O   UNK N   1      22.618  11.422  12.252  0.00  0.00    -0.360 OA
HETATM   18  H   UNK N   1      21.916  11.245  12.848  0.00  0.00     0.217 HD
ENDBRANCH   4  17
TORSDOF 3
ENDMDL
MODEL 9
REMARK VINA RESULT:      -5.9      2.224      3.860
REMARK  3 active torsions:
REMARK  status: ('A' for Active; 'I' for Inactive)
REMARK    1  A    between atoms: C_4  and  O_5 
REMARK    2  A    between atoms: C_9  and  C_10 
REMARK    3  A    between atoms: C_11  and  C_12 
ROOT
HETATM    1  C   UNK N   1      37.479  15.680  15.790  0.00  0.00     0.051 C 
HETATM    2  C   UNK N   1      36.626  14.519  15.406  0.00  0.00    -0.028 A 
HETATM    3  C   UNK N   1      36.128  13.690  16.402  0.00  0.00     0.021 A 
HETATM    4  C   UNK N   1      36.331  14.256  14.057  0.00  0.00     0.077 A 
HETATM    5  C   UNK N   1      35.523  13.147  13.731  0.00  0.00    -0.028 A 
HETATM    6  C   UNK N   1      35.193  12.851  12.307  0.00  0.00     0.051 C 
HETATM    7  C   UNK N   1      35.029  12.315  14.742  0.00  0.00     0.021 A 
HETATM    8  C   UNK N   1      35.334  12.588  16.086  0.00  0.00    -0.035 A 
ENDROOT
BRANCH   8   9
HETATM    9  C   UNK N   1      34.871  11.758  17.200  0.00  0.00     0.012 C 
HETATM   10  C   UNK N   1      35.606  10.888  17.899  0.00  0.00     0.012 C 
BRANCH  10  11
HETATM   11  C   UNK N   1      34.971  10.131  18.999  0.00  0.00    -0.036 A 
HETATM   12  C   UNK N   1      34.061   9.095  18.720  0.00  0.00     0.011 A 
HETATM   13  C   UNK N   1      33.465   8.375  19.755  0.00  0.00     0.001 A 
HETATM   14  C   UNK N   1      33.773   8.683  21.081  0.00  0.00     0.000 A 
HETATM   15  C   UNK N   1      34.675   9.714  21.369  0.00  0.00     0.001 A 
HETATM   16  C   UNK N   1      35.274  10.437  20.330  0.00  0.00     0.011 A 
ENDBRANCH  10  11
ENDBRANCH   8   9
BRANCH   4  17
HETATM   17  O   UNK N   1      36.814  15.053  13.092  0.00  0.00    -0.360 OA
HETATM   18  H   UNK N   1      36.444  15.904  12.959  0.00  0.00     0.217 HD
ENDBRANCH   4  17
TORSDOF 3
ENDMDL
