MODEL 1
REMARK VINA RESULT:      -6.4      0.000      0.000
REMARK  3 active torsions:
REMARK  status: ('A' for Active; 'I' for Inactive)
REMARK    1  A    between atoms: C_4  and  O_5 
REMARK    2  A    between atoms: C_9  and  C_10 
REMARK    3  A    between atoms: C_11  and  C_12 
ROOT
HETATM    1  C   UNK N   1      35.932  14.704  12.728  0.00  0.00     0.033 A 
HETATM    2  C   UNK N   1      36.069  14.971  11.357  0.00  0.00     0.046 A 
HETATM    3 Br   UNK N   1      35.316  16.571  10.630  0.00  0.00    -0.048 Br
HETATM    4  C   UNK N   1      36.757  14.066  10.531  0.00  0.00     0.100 A 
HETATM    5  C   UNK N   1      37.302  12.899  11.080  0.00  0.00     0.046 A 
HETATM    6 Br   UNK N   1      38.249  11.641   9.996  0.00  0.00    -0.048 Br
HETATM    7  C   UNK N   1      37.162  12.640  12.441  0.00  0.00     0.033 A 
HETATM    8  C   UNK N   1      36.482  13.532  13.270  0.00  0.00    -0.033 A 
ENDROOT
BRANCH   8   9
HETATM    9  C   UNK N   1      36.389  13.194  14.695  0.00  0.00     0.012 C 
HETATM   10  C   UNK N   1      35.270  12.848  15.340  0.00  0.00     0.012 C 
BRANCH  10  11
HETATM   11  C   UNK N   1      35.318  12.550  16.786  0.00  0.00    -0.036 A 
HETATM   12  C   UNK N   1      35.115  13.566  17.737  0.00  0.00     0.011 A 
HETATM   13  C   UNK N   1      35.153  13.278  19.102  0.00  0.00     0.001 A 
HETATM   14  C   UNK N   1      35.394  11.970  19.530  0.00  0.00     0.000 A 
HETATM   15  C   UNK N   1      35.596  10.954  18.591  0.00  0.00     0.001 A 
HETATM   16  C   UNK N   1      35.558  11.242  17.221  0.00  0.00     0.011 A 
ENDBRANCH  10  11
ENDBRANCH   8   9
BRANCH   4  17
HETATM   17  O   UNK N   1      36.893  14.319   9.217  0.00  0.00    -0.358 OA
HETATM   18  H   UNK N   1      37.631  14.806   8.907  0.00  0.00     0.217 HD
ENDBRANCH   4  17
TORSDOF 3
ENDMDL
MODEL 2
REMARK VINA RESULT:      -6.3      0.159      2.306
REMARK  3 active torsions:
REMARK  status: ('A' for Active; 'I' for Inactive)
REMARK    1  A    between atoms: C_4  and  O_5 
REMARK    2  A    between atoms: C_9  and  C_10 
REMARK    3  A    between atoms: C_11  and  C_12 
ROOT
HETATM    1  C   UNK N   1      37.258  12.478  12.430  0.00  0.00     0.033 A 
HETATM    2  C   UNK N   1      37.345  12.778  11.062  0.00  0.00     0.046 A 
HETATM    3 Br   UNK N   1      38.224  11.554   9.885  0.00  0.00    -0.048 Br
HETATM    4  C   UNK N   1      36.786  13.968  10.567  0.00  0.00     0.100 A 
HETATM    5  C   UNK N   1      36.145  14.853  11.444  0.00  0.00     0.046 A 
HETATM    6 Br   UNK N   1      35.368  16.482  10.815  0.00  0.00    -0.048 Br
HETATM    7  C   UNK N   1      36.064  14.550  12.801  0.00  0.00     0.033 A 
HETATM    8  C   UNK N   1      36.614  13.371  13.302  0.00  0.00    -0.033 A 
ENDROOT
BRANCH   8   9
HETATM    9  C   UNK N   1      36.475  13.118  14.741  0.00  0.00     0.012 C 
HETATM   10  C   UNK N   1      35.341  12.780  15.364  0.00  0.00     0.012 C 
BRANCH  10  11
HETATM   11  C   UNK N   1      35.341  12.571  16.826  0.00  0.00    -0.036 A 
HETATM   12  C   UNK N   1      35.150  13.651  17.706  0.00  0.00     0.011 A 
HETATM   13  C   UNK N   1      35.142  13.448  19.087  0.00  0.00     0.001 A 
HETATM   14  C   UNK N   1      35.324  12.163  19.602  0.00  0.00     0.000 A 
HETATM   15  C   UNK N   1      35.515  11.083  18.734  0.00  0.00     0.001 A 
HETATM   16  C   UNK N   1      35.523  11.286  17.348  0.00  0.00     0.011 A 
ENDBRANCH  10  11
ENDBRANCH   8   9
BRANCH   4  17
HETATM   17  O   UNK N   1      36.864  14.258   9.256  0.00  0.00    -0.358 OA
HETATM   18  H   UNK N   1      36.771  13.577   8.619  0.00  0.00     0.217 HD
ENDBRANCH   4  17
TORSDOF 3
ENDMDL
MODEL 3
REMARK VINA RESULT:      -5.8     20.854     23.512
REMARK  3 active torsions:
REMARK  status: ('A' for Active; 'I' for Inactive)
REMARK    1  A    between atoms: C_4  and  O_5 
REMARK    2  A    between atoms: C_9  and  C_10 
REMARK    3  A    between atoms: C_11  and  C_12 
ROOT
HETATM    1  C   UNK N   1      30.574  22.755  -3.956  0.00  0.00     0.033 A 
HETATM    2  C   UNK N   1      31.369  21.612  -4.139  0.00  0.00     0.046 A 
HETATM    3 Br   UNK N   1      32.823  21.276  -2.944  0.00  0.00    -0.048 Br
HETATM    4  C   UNK N   1      31.090  20.725  -5.192  0.00  0.00     0.100 A 
HETATM    5  C   UNK N   1      30.021  20.987  -6.059  0.00  0.00     0.046 A 
HETATM    6 Br   UNK N   1      29.604  19.807  -7.503  0.00  0.00    -0.048 Br
HETATM    7  C   UNK N   1      29.238  22.123  -5.872  0.00  0.00     0.033 A 
HETATM    8  C   UNK N   1      29.505  23.009  -4.829  0.00  0.00    -0.033 A 
ENDROOT
BRANCH   8   9
HETATM    9  C   UNK N   1      28.625  24.176  -4.691  0.00  0.00     0.012 C 
HETATM   10  C   UNK N   1      27.328  24.213  -5.013  0.00  0.00     0.012 C 
BRANCH  10  11
HETATM   11  C   UNK N   1      26.563  25.465  -4.838  0.00  0.00    -0.036 A 
HETATM   12  C   UNK N   1      25.649  25.892  -5.818  0.00  0.00     0.011 A 
HETATM   13  C   UNK N   1      24.923  27.071  -5.644  0.00  0.00     0.001 A 
HETATM   14  C   UNK N   1      25.103  27.835  -4.490  0.00  0.00     0.000 A 
HETATM   15  C   UNK N   1      26.010  27.418  -3.510  0.00  0.00     0.001 A 
HETATM   16  C   UNK N   1      26.739  26.235  -3.683  0.00  0.00     0.011 A 
ENDBRANCH  10  11
ENDBRANCH   8   9
BRANCH   4  17
HETATM   17  O   UNK N   1      31.847  19.627  -5.370  0.00  0.00    -0.358 OA
HETATM   18  H   UNK N   1      32.277  19.231  -4.638  0.00  0.00     0.217 HD
ENDBRANCH   4  17
TORSDOF 3
ENDMDL
MODEL 4
REMARK VINA RESULT:      -5.8     15.582     16.780
REMARK  3 active torsions:
REMARK  status: ('A' for Active; 'I' for Inactive)
REMARK    1  A    between atoms: C_4  and  O_5 
REMARK    2  A    between atoms: C_9  and  C_10 
REMARK    3  A    between atoms: C_11  and  C_12 
ROOT
HETATM    1  C   UNK N   1      24.261  18.256   4.824  0.00  0.00     0.033 A 
HETATM    2  C   UNK N   1      24.410  19.322   3.923  0.00  0.00     0.046 A 
HETATM    3 Br   UNK N   1      26.156  20.011   3.562  0.00  0.00    -0.048 Br
HETATM    4  C   UNK N   1      23.281  19.870   3.292  0.00  0.00     0.100 A 
HETATM    5  C   UNK N   1      22.009  19.352   3.568  0.00  0.00     0.046 A 
HETATM    6 Br   UNK N   1      20.445  20.065   2.732  0.00  0.00    -0.048 Br
HETATM    7  C   UNK N   1      21.869  18.296   4.465  0.00  0.00     0.033 A 
HETATM    8  C   UNK N   1      22.983  17.743   5.095  0.00  0.00    -0.033 A 
ENDROOT
BRANCH   8   9
HETATM    9  C   UNK N   1      22.753  16.623   6.016  0.00  0.00     0.012 C 
HETATM   10  C   UNK N   1      21.627  16.399   6.700  0.00  0.00     0.012 C 
BRANCH  10  11
HETATM   11  C   UNK N   1      21.539  15.237   7.609  0.00  0.00    -0.036 A 
HETATM   12  C   UNK N   1      22.172  14.023   7.286  0.00  0.00     0.011 A 
HETATM   13  C   UNK N   1      22.093  12.931   8.152  0.00  0.00     0.001 A 
HETATM   14  C   UNK N   1      21.381  13.041   9.348  0.00  0.00     0.000 A 
HETATM   15  C   UNK N   1      20.748  14.245   9.676  0.00  0.00     0.001 A 
HETATM   16  C   UNK N   1      20.827  15.342   8.808  0.00  0.00     0.011 A 
ENDBRANCH  10  11
ENDBRANCH   8   9
BRANCH   4  17
HETATM   17  O   UNK N   1      23.419  20.890   2.426  0.00  0.00    -0.358 OA
HETATM   18  H   UNK N   1      24.249  21.314   2.330  0.00  0.00     0.217 HD
ENDBRANCH   4  17
TORSDOF 3
ENDMDL
MODEL 5
REMARK VINA RESULT:      -5.7      3.285      5.269
REMARK  3 active torsions:
REMARK  status: ('A' for Active; 'I' for Inactive)
REMARK    1  A    between atoms: C_4  and  O_5 
REMARK    2  A    between atoms: C_9  and  C_10 
REMARK    3  A    between atoms: C_11  and  C_12 
ROOT
HETATM    1  C   UNK N   1      36.823   9.995  16.288  0.00  0.00     0.033 A 
HETATM    2  C   UNK N   1      37.569  10.291  15.136  0.00  0.00     0.046 A 
HETATM    3 Br   UNK N   1      38.750   8.972  14.417  0.00  0.00    -0.048 Br
HETATM    4  C   UNK N   1      37.439  11.547  14.520  0.00  0.00     0.100 A 
HETATM    5  C   UNK N   1      36.568  12.501  15.061  0.00  0.00     0.046 A 
HETATM    6 Br   UNK N   1      36.359  14.221  14.255  0.00  0.00    -0.048 Br
HETATM    7  C   UNK N   1      35.833  12.202  16.205  0.00  0.00     0.033 A 
HETATM    8  C   UNK N   1      35.953  10.958  16.823  0.00  0.00    -0.033 A 
ENDROOT
BRANCH   8   9
HETATM    9  C   UNK N   1      35.134  10.715  18.017  0.00  0.00     0.012 C 
HETATM   10  C   UNK N   1      34.646   9.529  18.396  0.00  0.00     0.012 C 
BRANCH  10  11
HETATM   11  C   UNK N   1      33.819   9.431  19.616  0.00  0.00    -0.036 A 
HETATM   12  C   UNK N   1      32.677   8.610  19.646  0.00  0.00     0.011 A 
HETATM   13  C   UNK N   1      31.903   8.514  20.804  0.00  0.00     0.001 A 
HETATM   14  C   UNK N   1      32.263   9.237  21.943  0.00  0.00     0.000 A 
HETATM   15  C   UNK N   1      33.396  10.057  21.921  0.00  0.00     0.001 A 
HETATM   16  C   UNK N   1      34.173  10.154  20.760  0.00  0.00     0.011 A 
ENDBRANCH  10  11
ENDBRANCH   8   9
BRANCH   4  17
HETATM   17  O   UNK N   1      38.149  11.833  13.414  0.00  0.00    -0.358 OA
HETATM   18  H   UNK N   1      38.509  11.141  12.895  0.00  0.00     0.217 HD
ENDBRANCH   4  17
TORSDOF 3
ENDMDL
MODEL 6
REMARK VINA RESULT:      -5.6      3.355      4.849
REMARK  3 active torsions:
REMARK  status: ('A' for Active; 'I' for Inactive)
REMARK    1  A    between atoms: C_4  and  O_5 
REMARK    2  A    between atoms: C_9  and  C_10 
REMARK    3  A    between atoms: C_11  and  C_12 
ROOT
HETATM    1  C   UNK N   1      35.766  12.255  16.259  0.00  0.00     0.033 A 
HETATM    2  C   UNK N   1      36.534  12.490  15.108  0.00  0.00     0.046 A 
HETATM    3 Br   UNK N   1      36.387  14.169  14.206  0.00  0.00    -0.048 Br
HETATM    4  C   UNK N   1      37.405  11.496  14.631  0.00  0.00     0.100 A 
HETATM    5  C   UNK N   1      37.500  10.272  15.305  0.00  0.00     0.046 A 
HETATM    6 Br   UNK N   1      38.673   8.892  14.694  0.00  0.00    -0.048 Br
HETATM    7  C   UNK N   1      36.734  10.045  16.446  0.00  0.00     0.033 A 
HETATM    8  C   UNK N   1      35.867  11.025  16.928  0.00  0.00    -0.033 A 
ENDROOT
BRANCH   8   9
HETATM    9  C   UNK N   1      35.104  10.715  18.144  0.00  0.00     0.012 C 
HETATM   10  C   UNK N   1      34.502   9.550  18.406  0.00  0.00     0.012 C 
BRANCH  10  11
HETATM   11  C   UNK N   1      33.750   9.380  19.666  0.00  0.00    -0.036 A 
HETATM   12  C   UNK N   1      32.622   8.542  19.722  0.00  0.00     0.011 A 
HETATM   13  C   UNK N   1      31.919   8.377  20.916  0.00  0.00     0.001 A 
HETATM   14  C   UNK N   1      32.337   9.049  22.067  0.00  0.00     0.000 A 
HETATM   15  C   UNK N   1      33.458   9.884  22.020  0.00  0.00     0.001 A 
HETATM   16  C   UNK N   1      34.164  10.050  20.822  0.00  0.00     0.011 A 
ENDBRANCH  10  11
ENDBRANCH   8   9
BRANCH   4  17
HETATM   17  O   UNK N   1      38.146  11.718  13.530  0.00  0.00    -0.358 OA
HETATM   18  H   UNK N   1      38.198  11.064  12.861  0.00  0.00     0.217 HD
ENDBRANCH   4  17
TORSDOF 3
ENDMDL
MODEL 7
REMARK VINA RESULT:      -5.6      2.921      4.082
REMARK  3 active torsions:
REMARK  status: ('A' for Active; 'I' for Inactive)
REMARK    1  A    between atoms: C_4  and  O_5 
REMARK    2  A    between atoms: C_9  and  C_10 
REMARK    3  A    between atoms: C_11  and  C_12 
ROOT
HETATM    1  C   UNK N   1      35.040  11.936  13.711  0.00  0.00     0.033 A 
HETATM    2  C   UNK N   1      35.432  13.087  13.009  0.00  0.00     0.046 A 
HETATM    3 Br   UNK N   1      35.031  13.234  11.146  0.00  0.00    -0.048 Br
HETATM    4  C   UNK N   1      36.111  14.119  13.678  0.00  0.00     0.100 A 
HETATM    5  C   UNK N   1      36.397  13.995  15.043  0.00  0.00     0.046 A 
HETATM    6 Br   UNK N   1      37.316  15.375  15.994  0.00  0.00    -0.048 Br
HETATM    7  C   UNK N   1      36.006  12.850  15.733  0.00  0.00     0.033 A 
HETATM    8  C   UNK N   1      35.331  11.820  15.080  0.00  0.00    -0.033 A 
ENDROOT
BRANCH   8   9
HETATM    9  C   UNK N   1      34.941  10.652  15.880  0.00  0.00     0.012 C 
HETATM   10  C   UNK N   1      35.377  10.375  17.113  0.00  0.00     0.012 C 
BRANCH  10  11
HETATM   11  C   UNK N   1      34.914   9.151  17.798  0.00  0.00    -0.036 A 
HETATM   12  C   UNK N   1      33.931   9.217  18.801  0.00  0.00     0.011 A 
HETATM   13  C   UNK N   1      33.490   8.057  19.440  0.00  0.00     0.001 A 
HETATM   14  C   UNK N   1      34.027   6.819  19.082  0.00  0.00     0.000 A 
HETATM   15  C   UNK N   1      35.005   6.744  18.085  0.00  0.00     0.001 A 
HETATM   16  C   UNK N   1      35.448   7.907  17.443  0.00  0.00     0.011 A 
ENDBRANCH  10  11
ENDBRANCH   8   9
BRANCH   4  17
HETATM   17  O   UNK N   1      36.486  15.225  13.010  0.00  0.00    -0.358 OA
HETATM   18  H   UNK N   1      35.848  15.868  12.772  0.00  0.00     0.217 HD
ENDBRANCH   4  17
TORSDOF 3
ENDMDL
MODEL 8
REMARK VINA RESULT:      -5.5     10.210     13.106
REMARK  3 active torsions:
REMARK  status: ('A' for Active; 'I' for Inactive)
REMARK    1  A    between atoms: C_4  and  O_5 
REMARK    2  A    between atoms: C_9  and  C_10 
REMARK    3  A    between atoms: C_11  and  C_12 
ROOT
HETATM    1  C   UNK N   1      27.041  16.750   5.645  0.00  0.00     0.033 A 
HETATM    2  C   UNK N   1      25.681  16.796   5.299  0.00  0.00     0.046 A 
HETATM    3 Br   UNK N   1      24.499  15.443   5.949  0.00  0.00    -0.048 Br
HETATM    4  C   UNK N   1      25.199  17.834   4.483  0.00  0.00     0.100 A 
HETATM    5  C   UNK N   1      26.080  18.818   4.015  0.00  0.00     0.046 A 
HETATM    6 Br   UNK N   1      25.469  20.249   2.906  0.00  0.00    -0.048 Br
HETATM    7  C   UNK N   1      27.428  18.765   4.362  0.00  0.00     0.033 A 
HETATM    8  C   UNK N   1      27.916  17.740   5.172  0.00  0.00    -0.033 A 
ENDROOT
BRANCH   8   9
HETATM    9  C   UNK N   1      29.346  17.763   5.503  0.00  0.00     0.012 C 
HETATM   10  C   UNK N   1      29.894  17.259   6.613  0.00  0.00     0.012 C 
BRANCH  10  11
HETATM   11  C   UNK N   1      31.352  17.367   6.827  0.00  0.00    -0.036 A 
HETATM   12  C   UNK N   1      32.250  17.183   5.760  0.00  0.00     0.011 A 
HETATM   13  C   UNK N   1      33.626  17.294   5.964  0.00  0.00     0.001 A 
HETATM   14  C   UNK N   1      34.119  17.590   7.237  0.00  0.00     0.000 A 
HETATM   15  C   UNK N   1      33.233  17.774   8.303  0.00  0.00     0.001 A 
HETATM   16  C   UNK N   1      31.851  17.664   8.099  0.00  0.00     0.011 A 
ENDBRANCH  10  11
ENDBRANCH   8   9
BRANCH   4  17
HETATM   17  O   UNK N   1      23.897  17.884   4.151  0.00  0.00    -0.358 OA
HETATM   18  H   UNK N   1      23.503  17.170   3.690  0.00  0.00     0.217 HD
ENDBRANCH   4  17
TORSDOF 3
ENDMDL
MODEL 9
REMARK VINA RESULT:      -5.3      6.756      9.426
REMARK  3 active torsions:
REMARK  status: ('A' for Active; 'I' for Inactive)
REMARK    1  A    between atoms: C_4  and  O_5 
REMARK    2  A    between atoms: C_9  and  C_10 
REMARK    3  A    between atoms: C_11  and  C_12 
ROOT
HETATM    1  C   UNK N   1      33.796   9.944  20.889  0.00  0.00     0.033 A 
HETATM    2  C   UNK N   1      33.051   9.448  21.970  0.00  0.00     0.046 A 
HETATM    3 Br   UNK N   1      33.037  10.408  23.622  0.00  0.00    -0.048 Br
HETATM    4  C   UNK N   1      32.320   8.256  21.829  0.00  0.00     0.100 A 
HETATM    5  C   UNK N   1      32.341   7.565  20.611  0.00  0.00     0.046 A 
HETATM    6 Br   UNK N   1      31.360   5.942  20.374  0.00  0.00    -0.048 Br
HETATM    7  C   UNK N   1      33.084   8.063  19.543  0.00  0.00     0.033 A 
HETATM    8  C   UNK N   1      33.812   9.245  19.671  0.00  0.00    -0.033 A 
ENDROOT
BRANCH   8   9
HETATM    9  C   UNK N   1      34.558   9.711  18.496  0.00  0.00     0.012 C 
HETATM   10  C   UNK N   1      35.078  10.933  18.340  0.00  0.00     0.012 C 
BRANCH  10  11
HETATM   11  C   UNK N   1      35.793  11.272  17.093  0.00  0.00    -0.036 A 
HETATM   12  C   UNK N   1      36.582  10.313  16.433  0.00  0.00     0.011 A 
HETATM   13  C   UNK N   1      37.250  10.636  15.250  0.00  0.00     0.001 A 
HETATM   14  C   UNK N   1      37.135  11.921  14.715  0.00  0.00     0.000 A 
HETATM   15  C   UNK N   1      36.352  12.881  15.365  0.00  0.00     0.001 A 
HETATM   16  C   UNK N   1      35.682  12.558  16.552  0.00  0.00     0.011 A 
ENDBRANCH  10  11
ENDBRANCH   8   9
BRANCH   4  17
HETATM   17  O   UNK N   1      31.602   7.778  22.862  0.00  0.00    -0.358 OA
HETATM   18  H   UNK N   1      31.350   8.348  23.561  0.00  0.00     0.217 HD
ENDBRANCH   4  17
TORSDOF 3
ENDMDL
