MODEL 1
REMARK VINA RESULT:      -5.9      0.000      0.000
REMARK  2 active torsions:
REMARK  status: ('A' for Active; 'I' for Inactive)
REMARK    1  A    between atoms: C_4  and  O_5 
REMARK    2  A    between atoms: C_9  and  C_10 
ROOT
HETATM    1  C   UNK N   1      35.528  13.536  14.428  0.00  0.00     0.034 A 
HETATM    2  C   UNK N   1      35.442  13.582  13.030  0.00  0.00     0.046 A 
HETATM    3 Br   UNK N   1      35.985  15.168  12.111  0.00  0.00    -0.048 Br
HETATM    4  C   UNK N   1      34.960  12.471  12.318  0.00  0.00     0.100 A 
HETATM    5  C   UNK N   1      34.568  11.318  13.013  0.00  0.00     0.046 A 
HETATM    6 Br   UNK N   1      33.906   9.779  12.098  0.00  0.00    -0.048 Br
HETATM    7  C   UNK N   1      34.656  11.280  14.401  0.00  0.00     0.034 A 
HETATM    8  C   UNK N   1      35.134  12.380  15.124  0.00  0.00    -0.023 A 
ENDROOT
BRANCH   8   9
HETATM    9  C   UNK N   1      35.212  12.299  16.601  0.00  0.00    -0.026 A 
HETATM   10  C   UNK N   1      35.086  13.468  17.371  0.00  0.00     0.012 A 
HETATM   11  C   UNK N   1      35.158  13.415  18.763  0.00  0.00     0.001 A 
HETATM   12  C   UNK N   1      35.356  12.191  19.404  0.00  0.00     0.000 A 
HETATM   13  C   UNK N   1      35.482  11.020  18.650  0.00  0.00     0.001 A 
HETATM   14  C   UNK N   1      35.411  11.072  17.253  0.00  0.00     0.012 A 
ENDBRANCH   8   9
BRANCH   4  15
HETATM   15  O   UNK N   1      34.875  12.509  10.978  0.00  0.00    -0.358 OA
HETATM   16  H   UNK N   1      34.270  11.951  10.531  0.00  0.00     0.217 HD
ENDBRANCH   4  15
TORSDOF 2
ENDMDL
MODEL 2
REMARK VINA RESULT:      -5.9      0.097      2.454
REMARK  2 active torsions:
REMARK  status: ('A' for Active; 'I' for Inactive)
REMARK    1  A    between atoms: C_4  and  O_5 
REMARK    2  A    between atoms: C_9  and  C_10 
ROOT
HETATM    1  C   UNK N   1      34.599  11.204  14.418  0.00  0.00     0.034 A 
HETATM    2  C   UNK N   1      34.539  11.266  13.020  0.00  0.00     0.046 A 
HETATM    3 Br   UNK N   1      33.879   9.760  12.043  0.00  0.00    -0.048 Br
HETATM    4  C   UNK N   1      34.960  12.426  12.349  0.00  0.00     0.100 A 
HETATM    5  C   UNK N   1      35.439  13.519  13.086  0.00  0.00     0.046 A 
HETATM    6 Br   UNK N   1      36.025  15.121  12.228  0.00  0.00    -0.048 Br
HETATM    7  C   UNK N   1      35.496  13.448  14.474  0.00  0.00     0.034 A 
HETATM    8  C   UNK N   1      35.080  12.299  15.156  0.00  0.00    -0.023 A 
ENDROOT
BRANCH   8   9
HETATM    9  C   UNK N   1      35.156  12.265  16.635  0.00  0.00    -0.026 A 
HETATM   10  C   UNK N   1      35.118  13.467  17.363  0.00  0.00     0.012 A 
HETATM   11  C   UNK N   1      35.189  13.458  18.756  0.00  0.00     0.001 A 
HETATM   12  C   UNK N   1      35.299  12.246  19.440  0.00  0.00     0.000 A 
HETATM   13  C   UNK N   1      35.338  11.043  18.728  0.00  0.00     0.001 A 
HETATM   14  C   UNK N   1      35.267  11.050  17.331  0.00  0.00     0.012 A 
ENDBRANCH   8   9
BRANCH   4  15
HETATM   15  O   UNK N   1      34.905  12.492  11.008  0.00  0.00    -0.358 OA
HETATM   16  H   UNK N   1      35.485  13.063  10.543  0.00  0.00     0.217 HD
ENDBRANCH   4  15
TORSDOF 2
ENDMDL
MODEL 3
REMARK VINA RESULT:      -5.6     26.972     28.083
REMARK  2 active torsions:
REMARK  status: ('A' for Active; 'I' for Inactive)
REMARK    1  A    between atoms: C_4  and  O_5 
REMARK    2  A    between atoms: C_9  and  C_10 
ROOT
HETATM    1  C   UNK N   1      25.709  24.549  -7.182  0.00  0.00     0.034 A 
HETATM    2  C   UNK N   1      25.564  23.586  -8.189  0.00  0.00     0.046 A 
HETATM    3 Br   UNK N   1      25.228  21.767  -7.704  0.00  0.00    -0.048 Br
HETATM    4  C   UNK N   1      25.666  23.959  -9.540  0.00  0.00     0.100 A 
HETATM    5  C   UNK N   1      25.913  25.299  -9.872  0.00  0.00     0.046 A 
HETATM    6 Br   UNK N   1      26.061  25.864 -11.690  0.00  0.00    -0.048 Br
HETATM    7  C   UNK N   1      26.055  26.249  -8.866  0.00  0.00     0.034 A 
HETATM    8  C   UNK N   1      25.956  25.892  -7.516  0.00  0.00    -0.023 A 
ENDROOT
BRANCH   8   9
HETATM    9  C   UNK N   1      26.114  26.934  -6.476  0.00  0.00    -0.026 A 
HETATM   10  C   UNK N   1      27.153  27.875  -6.584  0.00  0.00     0.012 A 
HETATM   11  C   UNK N   1      27.320  28.864  -5.615  0.00  0.00     0.001 A 
HETATM   12  C   UNK N   1      26.450  28.926  -4.525  0.00  0.00     0.000 A 
HETATM   13  C   UNK N   1      25.412  27.997  -4.406  0.00  0.00     0.001 A 
HETATM   14  C   UNK N   1      25.243  27.003  -5.376  0.00  0.00     0.012 A 
ENDBRANCH   8   9
BRANCH   4  15
HETATM   15  O   UNK N   1      25.529  23.040 -10.510  0.00  0.00    -0.358 OA
HETATM   16  H   UNK N   1      25.333  22.151 -10.289  0.00  0.00     0.217 HD
ENDBRANCH   4  15
TORSDOF 2
ENDMDL
MODEL 4
REMARK VINA RESULT:      -5.6      1.961      3.282
REMARK  2 active torsions:
REMARK  status: ('A' for Active; 'I' for Inactive)
REMARK    1  A    between atoms: C_4  and  O_5 
REMARK    2  A    between atoms: C_9  and  C_10 
ROOT
HETATM    1  C   UNK N   1      35.342  11.689  15.072  0.00  0.00     0.034 A 
HETATM    2  C   UNK N   1      35.707  12.523  14.008  0.00  0.00     0.046 A 
HETATM    3 Br   UNK N   1      35.343  11.966  12.215  0.00  0.00    -0.048 Br
HETATM    4  C   UNK N   1      36.335  13.754  14.262  0.00  0.00     0.100 A 
HETATM    5  C   UNK N   1      36.592  14.142  15.584  0.00  0.00     0.046 A 
HETATM    6 Br   UNK N   1      37.442  15.803  15.989  0.00  0.00    -0.048 Br
HETATM    7  C   UNK N   1      36.226  13.308  16.636  0.00  0.00     0.034 A 
HETATM    8  C   UNK N   1      35.600  12.078  16.398  0.00  0.00    -0.023 A 
ENDROOT
BRANCH   8   9
HETATM    9  C   UNK N   1      35.226  11.220  17.546  0.00  0.00    -0.026 A 
HETATM   10  C   UNK N   1      35.311  11.730  18.854  0.00  0.00     0.012 A 
HETATM   11  C   UNK N   1      34.965  10.939  19.949  0.00  0.00     0.001 A 
HETATM   12  C   UNK N   1      34.528   9.628  19.752  0.00  0.00     0.000 A 
HETATM   13  C   UNK N   1      34.439   9.109  18.456  0.00  0.00     0.001 A 
HETATM   14  C   UNK N   1      34.787   9.901  17.356  0.00  0.00     0.012 A 
ENDBRANCH   8   9
BRANCH   4  15
HETATM   15  O   UNK N   1      36.689  14.557  13.245  0.00  0.00    -0.358 OA
HETATM   16  H   UNK N   1      37.093  14.196  12.481  0.00  0.00     0.217 HD
ENDBRANCH   4  15
TORSDOF 2
ENDMDL
MODEL 5
REMARK VINA RESULT:      -5.6     26.965     27.991
REMARK  2 active torsions:
REMARK  status: ('A' for Active; 'I' for Inactive)
REMARK    1  A    between atoms: C_4  and  O_5 
REMARK    2  A    between atoms: C_9  and  C_10 
ROOT
HETATM    1  C   UNK N   1      26.155  26.206  -8.930  0.00  0.00     0.034 A 
HETATM    2  C   UNK N   1      26.026  25.213  -9.908  0.00  0.00     0.046 A 
HETATM    3 Br   UNK N   1      26.257  25.676 -11.750  0.00  0.00    -0.048 Br
HETATM    4  C   UNK N   1      25.729  23.891  -9.535  0.00  0.00     0.100 A 
HETATM    5  C   UNK N   1      25.564  23.574  -8.179  0.00  0.00     0.046 A 
HETATM    6 Br   UNK N   1      25.160  21.796  -7.613  0.00  0.00    -0.048 Br
HETATM    7  C   UNK N   1      25.694  24.567  -7.213  0.00  0.00     0.034 A 
HETATM    8  C   UNK N   1      25.990  25.888  -7.570  0.00  0.00    -0.023 A 
ENDROOT
BRANCH   8   9
HETATM    9  C   UNK N   1      26.120  26.915  -6.511  0.00  0.00    -0.026 A 
HETATM   10  C   UNK N   1      27.149  27.869  -6.588  0.00  0.00     0.012 A 
HETATM   11  C   UNK N   1      27.291  28.845  -5.601  0.00  0.00     0.001 A 
HETATM   12  C   UNK N   1      26.403  28.879  -4.524  0.00  0.00     0.000 A 
HETATM   13  C   UNK N   1      25.374  27.937  -4.436  0.00  0.00     0.001 A 
HETATM   14  C   UNK N   1      25.231  26.957  -5.425  0.00  0.00     0.012 A 
ENDBRANCH   8   9
BRANCH   4  15
HETATM   15  O   UNK N   1      25.603  22.934 -10.469  0.00  0.00    -0.358 OA
HETATM   16  H   UNK N   1      26.173  22.190 -10.458  0.00  0.00     0.217 HD
ENDBRANCH   4  15
TORSDOF 2
ENDMDL
MODEL 6
REMARK VINA RESULT:      -5.5      1.575      2.656
REMARK  2 active torsions:
REMARK  status: ('A' for Active; 'I' for Inactive)
REMARK    1  A    between atoms: C_4  and  O_5 
REMARK    2  A    between atoms: C_9  and  C_10 
ROOT
HETATM    1  C   UNK N   1      36.699  11.488  14.094  0.00  0.00     0.034 A 
HETATM    2  C   UNK N   1      36.992  11.589  12.728  0.00  0.00     0.046 A 
HETATM    3 Br   UNK N   1      37.754  10.087  11.821  0.00  0.00    -0.048 Br
HETATM    4  C   UNK N   1      36.726  12.783  12.038  0.00  0.00     0.100 A 
HETATM    5  C   UNK N   1      36.167  13.871  12.723  0.00  0.00     0.046 A 
HETATM    6 Br   UNK N   1      35.784  15.518  11.836  0.00  0.00    -0.048 Br
HETATM    7  C   UNK N   1      35.879  13.763  14.079  0.00  0.00     0.034 A 
HETATM    8  C   UNK N   1      36.138  12.580  14.781  0.00  0.00    -0.023 A 
ENDROOT
BRANCH   8   9
HETATM    9  C   UNK N   1      35.817  12.506  16.225  0.00  0.00    -0.026 A 
HETATM   10  C   UNK N   1      35.501  13.681  16.929  0.00  0.00     0.012 A 
HETATM   11  C   UNK N   1      35.196  13.635  18.290  0.00  0.00     0.001 A 
HETATM   12  C   UNK N   1      35.203  12.413  18.964  0.00  0.00     0.000 A 
HETATM   13  C   UNK N   1      35.514  11.236  18.275  0.00  0.00     0.001 A 
HETATM   14  C   UNK N   1      35.821  11.281  16.910  0.00  0.00     0.012 A 
ENDBRANCH   8   9
BRANCH   4  15
HETATM   15  O   UNK N   1      37.005  12.885  10.728  0.00  0.00    -0.358 OA
HETATM   16  H   UNK N   1      36.331  13.121  10.122  0.00  0.00     0.217 HD
ENDBRANCH   4  15
TORSDOF 2
ENDMDL
MODEL 7
REMARK VINA RESULT:      -5.5      1.595      2.923
REMARK  2 active torsions:
REMARK  status: ('A' for Active; 'I' for Inactive)
REMARK    1  A    between atoms: C_4  and  O_5 
REMARK    2  A    between atoms: C_9  and  C_10 
ROOT
HETATM    1  C   UNK N   1      36.740  11.158  14.716  0.00  0.00     0.034 A 
HETATM    2  C   UNK N   1      37.068  11.142  13.355  0.00  0.00     0.046 A 
HETATM    3 Br   UNK N   1      37.884   9.582  12.606  0.00  0.00    -0.048 Br
HETATM    4  C   UNK N   1      36.799  12.264  12.553  0.00  0.00     0.100 A 
HETATM    5  C   UNK N   1      36.200  13.396  13.123  0.00  0.00     0.046 A 
HETATM    6 Br   UNK N   1      35.811  14.949  12.082  0.00  0.00    -0.048 Br
HETATM    7  C   UNK N   1      35.877  13.404  14.475  0.00  0.00     0.034 A 
HETATM    8  C   UNK N   1      36.140  12.294  15.287  0.00  0.00    -0.023 A 
ENDROOT
BRANCH   8   9
HETATM    9  C   UNK N   1      35.780  12.343  16.723  0.00  0.00    -0.026 A 
HETATM   10  C   UNK N   1      35.804  11.163  17.488  0.00  0.00     0.012 A 
HETATM   11  C   UNK N   1      35.468  11.187  18.842  0.00  0.00     0.001 A 
HETATM   12  C   UNK N   1      35.105  12.390  19.449  0.00  0.00     0.000 A 
HETATM   13  C   UNK N   1      35.078  13.571  18.700  0.00  0.00     0.001 A 
HETATM   14  C   UNK N   1      35.414  13.549  17.341  0.00  0.00     0.012 A 
ENDBRANCH   8   9
BRANCH   4  15
HETATM   15  O   UNK N   1      37.112  12.255  11.247  0.00  0.00    -0.358 OA
HETATM   16  H   UNK N   1      36.500  12.579  10.615  0.00  0.00     0.217 HD
ENDBRANCH   4  15
TORSDOF 2
ENDMDL
MODEL 8
REMARK VINA RESULT:      -5.4     20.718     23.517
REMARK  2 active torsions:
REMARK  status: ('A' for Active; 'I' for Inactive)
REMARK    1  A    between atoms: C_4  and  O_5 
REMARK    2  A    between atoms: C_9  and  C_10 
ROOT
HETATM    1  C   UNK N   1      31.706  20.271  -5.506  0.00  0.00     0.034 A 
HETATM    2  C   UNK N   1      32.407  20.397  -4.300  0.00  0.00     0.046 A 
HETATM    3 Br   UNK N   1      34.058  19.459  -4.074  0.00  0.00    -0.048 Br
HETATM    4  C   UNK N   1      31.896  21.206  -3.271  0.00  0.00     0.100 A 
HETATM    5  C   UNK N   1      30.683  21.884  -3.459  0.00  0.00     0.046 A 
HETATM    6 Br   UNK N   1      29.942  22.996  -2.096  0.00  0.00    -0.048 Br
HETATM    7  C   UNK N   1      29.994  21.753  -4.660  0.00  0.00     0.034 A 
HETATM    8  C   UNK N   1      30.490  20.951  -5.694  0.00  0.00    -0.023 A 
ENDROOT
BRANCH   8   9
HETATM    9  C   UNK N   1      29.725  20.838  -6.957  0.00  0.00    -0.026 A 
HETATM   10  C   UNK N   1      28.648  21.709  -7.199  0.00  0.00     0.012 A 
HETATM   11  C   UNK N   1      27.913  21.621  -8.382  0.00  0.00     0.001 A 
HETATM   12  C   UNK N   1      28.246  20.660  -9.338  0.00  0.00     0.000 A 
HETATM   13  C   UNK N   1      29.315  19.788  -9.110  0.00  0.00     0.001 A 
HETATM   14  C   UNK N   1      30.053  19.875  -7.924  0.00  0.00     0.012 A 
ENDBRANCH   8   9
BRANCH   4  15
HETATM   15  O   UNK N   1      32.563  21.330  -2.112  0.00  0.00    -0.358 OA
HETATM   16  H   UNK N   1      32.954  20.578  -1.713  0.00  0.00     0.217 HD
ENDBRANCH   4  15
TORSDOF 2
ENDMDL
MODEL 9
REMARK VINA RESULT:      -5.3     11.210     13.910
REMARK  2 active torsions:
REMARK  status: ('A' for Active; 'I' for Inactive)
REMARK    1  A    between atoms: C_4  and  O_5 
REMARK    2  A    between atoms: C_9  and  C_10 
ROOT
HETATM    1  C   UNK N   1      28.426  18.381   6.993  0.00  0.00     0.034 A 
HETATM    2  C   UNK N   1      29.461  17.886   7.795  0.00  0.00     0.046 A 
HETATM    3 Br   UNK N   1      29.348  18.081   9.695  0.00  0.00    -0.048 Br
HETATM    4  C   UNK N   1      30.569  17.254   7.205  0.00  0.00     0.100 A 
HETATM    5  C   UNK N   1      30.631  17.123   5.811  0.00  0.00     0.046 A 
HETATM    6 Br   UNK N   1      32.111  16.274   4.954  0.00  0.00    -0.048 Br
HETATM    7  C   UNK N   1      29.598  17.617   5.021  0.00  0.00     0.034 A 
HETATM    8  C   UNK N   1      28.488  18.249   5.594  0.00  0.00    -0.023 A 
ENDROOT
BRANCH   8   9
HETATM    9  C   UNK N   1      27.411  18.761   4.717  0.00  0.00    -0.026 A 
HETATM   10  C   UNK N   1      26.293  17.953   4.442  0.00  0.00     0.012 A 
HETATM   11  C   UNK N   1      25.267  18.415   3.617  0.00  0.00     0.001 A 
HETATM   12  C   UNK N   1      25.344  19.692   3.058  0.00  0.00     0.000 A 
HETATM   13  C   UNK N   1      26.449  20.506   3.325  0.00  0.00     0.001 A 
HETATM   14  C   UNK N   1      27.480  20.044   4.151  0.00  0.00     0.012 A 
ENDBRANCH   8   9
BRANCH   4  15
HETATM   15  O   UNK N   1      31.565  16.779   7.970  0.00  0.00    -0.358 OA
HETATM   16  H   UNK N   1      32.284  16.325   7.575  0.00  0.00     0.217 HD
ENDBRANCH   4  15
TORSDOF 2
ENDMDL
