MODEL 1
REMARK VINA RESULT:      -5.9      0.000      0.000
REMARK  3 active torsions:
REMARK  status: ('A' for Active; 'I' for Inactive)
REMARK    1  A    between atoms: C_4  and  O_5 
REMARK    2  A    between atoms: C_9  and  O_10 
REMARK    3  A    between atoms: O_10  and  C_11 
ROOT
HETATM    1  C   UNK N   1      20.501  15.554   8.687  0.00  0.00     0.059 A 
HETATM    2  C   UNK N   1      20.300  16.879   8.313  0.00  0.00     0.048 A 
HETATM    3 Br   UNK N   1      19.017  17.919   9.270  0.00  0.00    -0.048 Br
HETATM    4  C   UNK N   1      21.034  17.419   7.252  0.00  0.00     0.100 A 
HETATM    5  C   UNK N   1      21.969  16.622   6.573  0.00  0.00     0.048 A 
HETATM    6 Br   UNK N   1      22.985  17.336   5.121  0.00  0.00    -0.048 Br
HETATM    7  C   UNK N   1      22.163  15.288   6.959  0.00  0.00     0.059 A 
HETATM    8  C   UNK N   1      21.430  14.742   8.021  0.00  0.00     0.078 A 
ENDROOT
BRANCH   8   9
HETATM    9  O   UNK N   1      21.641  13.441   8.374  0.00  0.00    -0.311 OA
BRANCH   9  10
HETATM   10  C   UNK N   1      22.398  12.957   9.403  0.00  0.00     0.076 A 
HETATM   11  C   UNK N   1      21.752  12.525  10.567  0.00  0.00     0.037 A 
HETATM   12  C   UNK N   1      22.493  12.023  11.645  0.00  0.00     0.003 A 
HETATM   13  C   UNK N   1      23.885  11.950  11.567  0.00  0.00     0.000 A 
HETATM   14  C   UNK N   1      24.541  12.378  10.412  0.00  0.00     0.003 A 
HETATM   15  C   UNK N   1      23.802  12.877   9.340  0.00  0.00     0.037 A 
ENDBRANCH   9  10
ENDBRANCH   8   9
BRANCH   4  16
HETATM   16  O   UNK N   1      20.844  18.700   6.886  0.00  0.00    -0.358 OA
HETATM   17  H   UNK N   1      20.294  18.901   6.154  0.00  0.00     0.217 HD
ENDBRANCH   4  16
TORSDOF 3
ENDMDL
MODEL 2
REMARK VINA RESULT:      -5.9      0.152      2.665
REMARK  3 active torsions:
REMARK  status: ('A' for Active; 'I' for Inactive)
REMARK    1  A    between atoms: C_4  and  O_5 
REMARK    2  A    between atoms: C_9  and  O_10 
REMARK    3  A    between atoms: O_10  and  C_11 
ROOT
HETATM    1  C   UNK N   1      22.130  15.268   6.860  0.00  0.00     0.059 A 
HETATM    2  C   UNK N   1      21.964  16.599   6.491  0.00  0.00     0.048 A 
HETATM    3 Br   UNK N   1      22.984  17.279   5.026  0.00  0.00    -0.048 Br
HETATM    4  C   UNK N   1      21.063  17.407   7.191  0.00  0.00     0.100 A 
HETATM    5  C   UNK N   1      20.332  16.870   8.263  0.00  0.00     0.048 A 
HETATM    6 Br   UNK N   1      19.095  17.953   9.236  0.00  0.00    -0.048 Br
HETATM    7  C   UNK N   1      20.507  15.528   8.626  0.00  0.00     0.059 A 
HETATM    8  C   UNK N   1      21.409  14.714   7.927  0.00  0.00     0.078 A 
ENDROOT
BRANCH   8   9
HETATM    9  O   UNK N   1      21.557  13.411   8.305  0.00  0.00    -0.311 OA
BRANCH   9  10
HETATM   10  C   UNK N   1      22.217  12.918   9.395  0.00  0.00     0.076 A 
HETATM   11  C   UNK N   1      23.610  12.793   9.338  0.00  0.00     0.037 A 
HETATM   12  C   UNK N   1      24.323  12.292  10.434  0.00  0.00     0.003 A 
HETATM   13  C   UNK N   1      23.648  11.912  11.596  0.00  0.00     0.000 A 
HETATM   14  C   UNK N   1      22.260  12.031  11.666  0.00  0.00     0.003 A 
HETATM   15  C   UNK N   1      21.551  12.530  10.573  0.00  0.00     0.037 A 
ENDBRANCH   9  10
ENDBRANCH   8   9
BRANCH   4  16
HETATM   16  O   UNK N   1      20.900  18.696   6.837  0.00  0.00    -0.358 OA
HETATM   17  H   UNK N   1      21.270  19.377   7.364  0.00  0.00     0.217 HD
ENDBRANCH   4  16
TORSDOF 3
ENDMDL
MODEL 3
REMARK VINA RESULT:      -5.6      9.106     10.964
REMARK  3 active torsions:
REMARK  status: ('A' for Active; 'I' for Inactive)
REMARK    1  A    between atoms: C_4  and  O_5 
REMARK    2  A    between atoms: C_9  and  O_10 
REMARK    3  A    between atoms: O_10  and  C_11 
ROOT
HETATM    1  C   UNK N   1      31.267  17.368   7.228  0.00  0.00     0.059 A 
HETATM    2  C   UNK N   1      32.641  17.176   7.125  0.00  0.00     0.048 A 
HETATM    3 Br   UNK N   1      33.714  17.372   8.692  0.00  0.00    -0.048 Br
HETATM    4  C   UNK N   1      33.206  16.846   5.889  0.00  0.00     0.100 A 
HETATM    5  C   UNK N   1      32.382  16.711   4.760  0.00  0.00     0.048 A 
HETATM    6 Br   UNK N   1      33.129  16.261   3.060  0.00  0.00    -0.048 Br
HETATM    7  C   UNK N   1      30.999  16.906   4.875  0.00  0.00     0.059 A 
HETATM    8  C   UNK N   1      30.428  17.237   6.112  0.00  0.00     0.078 A 
ENDROOT
BRANCH   8   9
HETATM    9  O   UNK N   1      29.078  17.421   6.192  0.00  0.00    -0.311 OA
BRANCH   9  10
HETATM   10  C   UNK N   1      28.366  18.561   5.952  0.00  0.00     0.076 A 
HETATM   11  C   UNK N   1      28.062  18.899   4.628  0.00  0.00     0.037 A 
HETATM   12  C   UNK N   1      27.334  20.060   4.340  0.00  0.00     0.003 A 
HETATM   13  C   UNK N   1      26.904  20.893   5.375  0.00  0.00     0.000 A 
HETATM   14  C   UNK N   1      27.200  20.569   6.700  0.00  0.00     0.003 A 
HETATM   15  C   UNK N   1      27.926  19.411   6.984  0.00  0.00     0.037 A 
ENDBRANCH   9  10
ENDBRANCH   8   9
BRANCH   4  16
HETATM   16  O   UNK N   1      34.534  16.660   5.785  0.00  0.00    -0.358 OA
HETATM   17  H   UNK N   1      35.118  17.386   5.882  0.00  0.00     0.217 HD
ENDBRANCH   4  16
TORSDOF 3
ENDMDL
MODEL 4
REMARK VINA RESULT:      -5.6      9.113     11.128
REMARK  3 active torsions:
REMARK  status: ('A' for Active; 'I' for Inactive)
REMARK    1  A    between atoms: C_4  and  O_5 
REMARK    2  A    between atoms: C_9  and  O_10 
REMARK    3  A    between atoms: O_10  and  C_11 
ROOT
HETATM    1  C   UNK N   1      31.001  16.965   4.948  0.00  0.00     0.059 A 
HETATM    2  C   UNK N   1      32.370  16.756   4.815  0.00  0.00     0.048 A 
HETATM    3 Br   UNK N   1      33.070  16.331   3.091  0.00  0.00    -0.048 Br
HETATM    4  C   UNK N   1      33.201  16.860   5.935  0.00  0.00     0.100 A 
HETATM    5  C   UNK N   1      32.647  17.175   7.187  0.00  0.00     0.048 A 
HETATM    6 Br   UNK N   1      33.760  17.323   8.733  0.00  0.00    -0.048 Br
HETATM    7  C   UNK N   1      31.267  17.383   7.309  0.00  0.00     0.059 A 
HETATM    8  C   UNK N   1      30.430  17.280   6.189  0.00  0.00     0.078 A 
ENDROOT
BRANCH   8   9
HETATM    9  O   UNK N   1      29.090  17.489   6.341  0.00  0.00    -0.311 OA
BRANCH   9  10
HETATM   10  C   UNK N   1      28.371  18.611   6.041  0.00  0.00     0.076 A 
HETATM   11  C   UNK N   1      28.099  18.897   4.698  0.00  0.00     0.037 A 
HETATM   12  C   UNK N   1      27.366  20.038   4.349  0.00  0.00     0.003 A 
HETATM   13  C   UNK N   1      26.899  20.902   5.341  0.00  0.00     0.000 A 
HETATM   14  C   UNK N   1      27.163  20.629   6.684  0.00  0.00     0.003 A 
HETATM   15  C   UNK N   1      27.894  19.492   7.029  0.00  0.00     0.037 A 
ENDBRANCH   9  10
ENDBRANCH   8   9
BRANCH   4  16
HETATM   16  O   UNK N   1      34.526  16.659   5.812  0.00  0.00    -0.358 OA
HETATM   17  H   UNK N   1      35.104  16.908   6.505  0.00  0.00     0.217 HD
ENDBRANCH   4  16
TORSDOF 3
ENDMDL
MODEL 5
REMARK VINA RESULT:      -5.5      8.045     10.027
REMARK  3 active torsions:
REMARK  status: ('A' for Active; 'I' for Inactive)
REMARK    1  A    between atoms: C_4  and  O_5 
REMARK    2  A    between atoms: C_9  and  O_10 
REMARK    3  A    between atoms: O_10  and  C_11 
ROOT
HETATM    1  C   UNK N   1      29.151  17.541   6.976  0.00  0.00     0.059 A 
HETATM    2  C   UNK N   1      30.007  17.588   8.072  0.00  0.00     0.048 A 
HETATM    3 Br   UNK N   1      29.260  17.845   9.810  0.00  0.00    -0.048 Br
HETATM    4  C   UNK N   1      31.386  17.448   7.883  0.00  0.00     0.100 A 
HETATM    5  C   UNK N   1      31.896  17.260   6.588  0.00  0.00     0.048 A 
HETATM    6 Br   UNK N   1      33.776  17.066   6.303  0.00  0.00    -0.048 Br
HETATM    7  C   UNK N   1      31.024  17.215   5.492  0.00  0.00     0.059 A 
HETATM    8  C   UNK N   1      29.642  17.354   5.676  0.00  0.00     0.078 A 
ENDROOT
BRANCH   8   9
HETATM    9  O   UNK N   1      28.819  17.305   4.589  0.00  0.00    -0.311 OA
BRANCH   9  10
HETATM   10  C   UNK N   1      27.805  18.159   4.259  0.00  0.00     0.076 A 
HETATM   11  C   UNK N   1      26.595  17.622   3.805  0.00  0.00     0.037 A 
HETATM   12  C   UNK N   1      25.531  18.464   3.456  0.00  0.00     0.003 A 
HETATM   13  C   UNK N   1      25.670  19.850   3.559  0.00  0.00     0.000 A 
HETATM   14  C   UNK N   1      26.871  20.398   4.010  0.00  0.00     0.003 A 
HETATM   15  C   UNK N   1      27.929  19.558   4.357  0.00  0.00     0.037 A 
ENDBRANCH   9  10
ENDBRANCH   8   9
BRANCH   4  16
HETATM   16  O   UNK N   1      32.218  17.493   8.940  0.00  0.00    -0.358 OA
HETATM   17  H   UNK N   1      32.904  16.860   9.023  0.00  0.00     0.217 HD
ENDBRANCH   4  16
TORSDOF 3
ENDMDL
MODEL 6
REMARK VINA RESULT:      -5.4     12.818     14.959
REMARK  3 active torsions:
REMARK  status: ('A' for Active; 'I' for Inactive)
REMARK    1  A    between atoms: C_4  and  O_5 
REMARK    2  A    between atoms: C_9  and  O_10 
REMARK    3  A    between atoms: O_10  and  C_11 
ROOT
HETATM    1  C   UNK N   1      35.863  15.204  12.128  0.00  0.00     0.059 A 
HETATM    2  C   UNK N   1      36.381  14.030  12.665  0.00  0.00     0.048 A 
HETATM    3 Br   UNK N   1      35.918  13.557  14.456  0.00  0.00    -0.048 Br
HETATM    4  C   UNK N   1      37.223  13.225  11.891  0.00  0.00     0.100 A 
HETATM    5  C   UNK N   1      37.539  13.607  10.577  0.00  0.00     0.048 A 
HETATM    6 Br   UNK N   1      38.687  12.525   9.499  0.00  0.00    -0.048 Br
HETATM    7  C   UNK N   1      37.012  14.793  10.047  0.00  0.00     0.059 A 
HETATM    8  C   UNK N   1      36.168  15.603  10.819  0.00  0.00     0.078 A 
ENDROOT
BRANCH   8   9
HETATM    9  O   UNK N   1      35.670  16.751  10.274  0.00  0.00    -0.311 OA
BRANCH   9  10
HETATM   10  C   UNK N   1      34.659  16.884   9.365  0.00  0.00     0.076 A 
HETATM   11  C   UNK N   1      33.647  15.917   9.337  0.00  0.00     0.037 A 
HETATM   12  C   UNK N   1      32.594  16.018   8.420  0.00  0.00     0.003 A 
HETATM   13  C   UNK N   1      32.543  17.088   7.524  0.00  0.00     0.000 A 
HETATM   14  C   UNK N   1      33.545  18.059   7.542  0.00  0.00     0.003 A 
HETATM   15  C   UNK N   1      34.593  17.957   8.456  0.00  0.00     0.037 A 
ENDBRANCH   9  10
ENDBRANCH   8   9
BRANCH   4  16
HETATM   16  O   UNK N   1      37.726  12.088  12.406  0.00  0.00    -0.358 OA
HETATM   17  H   UNK N   1      38.176  12.105  13.228  0.00  0.00     0.217 HD
ENDBRANCH   4  16
TORSDOF 3
ENDMDL
MODEL 7
REMARK VINA RESULT:      -5.4      7.838      8.986
REMARK  3 active torsions:
REMARK  status: ('A' for Active; 'I' for Inactive)
REMARK    1  A    between atoms: C_4  and  O_5 
REMARK    2  A    between atoms: C_9  and  O_10 
REMARK    3  A    between atoms: O_10  and  C_11 
ROOT
HETATM    1  C   UNK N   1      27.998  16.859   5.458  0.00  0.00     0.059 A 
HETATM    2  C   UNK N   1      26.968  17.470   4.750  0.00  0.00     0.048 A 
HETATM    3 Br   UNK N   1      26.082  16.480   3.380  0.00  0.00    -0.048 Br
HETATM    4  C   UNK N   1      26.604  18.787   5.052  0.00  0.00     0.100 A 
HETATM    5  C   UNK N   1      27.280  19.482   6.067  0.00  0.00     0.048 A 
HETATM    6 Br   UNK N   1      26.802  21.281   6.499  0.00  0.00    -0.048 Br
HETATM    7  C   UNK N   1      28.316  18.855   6.774  0.00  0.00     0.059 A 
HETATM    8  C   UNK N   1      28.685  17.537   6.475  0.00  0.00     0.078 A 
ENDROOT
BRANCH   8   9
HETATM    9  O   UNK N   1      29.698  16.954   7.181  0.00  0.00    -0.311 OA
BRANCH   9  10
HETATM   10  C   UNK N   1      31.035  17.226   7.118  0.00  0.00     0.076 A 
HETATM   11  C   UNK N   1      31.688  17.659   8.277  0.00  0.00     0.037 A 
HETATM   12  C   UNK N   1      33.059  17.948   8.254  0.00  0.00     0.003 A 
HETATM   13  C   UNK N   1      33.786  17.805   7.070  0.00  0.00     0.000 A 
HETATM   14  C   UNK N   1      33.147  17.373   5.907  0.00  0.00     0.003 A 
HETATM   15  C   UNK N   1      31.782  17.087   5.933  0.00  0.00     0.037 A 
ENDBRANCH   9  10
ENDBRANCH   8   9
BRANCH   4  16
HETATM   16  O   UNK N   1      25.608  19.382   4.370  0.00  0.00    -0.358 OA
HETATM   17  H   UNK N   1      25.045  19.994   4.802  0.00  0.00     0.217 HD
ENDBRANCH   4  16
TORSDOF 3
ENDMDL
MODEL 8
REMARK VINA RESULT:      -5.3      7.889      8.919
REMARK  3 active torsions:
REMARK  status: ('A' for Active; 'I' for Inactive)
REMARK    1  A    between atoms: C_4  and  O_5 
REMARK    2  A    between atoms: C_9  and  O_10 
REMARK    3  A    between atoms: O_10  and  C_11 
ROOT
HETATM    1  C   UNK N   1      28.369  18.774   6.602  0.00  0.00     0.059 A 
HETATM    2  C   UNK N   1      27.335  19.414   5.926  0.00  0.00     0.048 A 
HETATM    3 Br   UNK N   1      26.869  21.194   6.436  0.00  0.00    -0.048 Br
HETATM    4  C   UNK N   1      26.661  18.749   4.896  0.00  0.00     0.100 A 
HETATM    5  C   UNK N   1      27.034  17.440   4.552  0.00  0.00     0.048 A 
HETATM    6 Br   UNK N   1      26.131  16.509   3.149  0.00  0.00    -0.048 Br
HETATM    7  C   UNK N   1      28.077  16.805   5.239  0.00  0.00     0.059 A 
HETATM    8  C   UNK N   1      28.755  17.467   6.272  0.00  0.00     0.078 A 
ENDROOT
BRANCH   8   9
HETATM    9  O   UNK N   1      29.767  16.823   6.923  0.00  0.00    -0.311 OA
BRANCH   9  10
HETATM   10  C   UNK N   1      31.090  17.157   6.966  0.00  0.00     0.076 A 
HETATM   11  C   UNK N   1      31.635  17.589   8.181  0.00  0.00     0.037 A 
HETATM   12  C   UNK N   1      32.988  17.941   8.267  0.00  0.00     0.003 A 
HETATM   13  C   UNK N   1      33.807  17.863   7.138  0.00  0.00     0.000 A 
HETATM   14  C   UNK N   1      33.276  17.434   5.921  0.00  0.00     0.003 A 
HETATM   15  C   UNK N   1      31.928  17.084   5.838  0.00  0.00     0.037 A 
ENDBRANCH   9  10
ENDBRANCH   8   9
BRANCH   4  16
HETATM   16  O   UNK N   1      25.660  19.364   4.240  0.00  0.00    -0.358 OA
HETATM   17  H   UNK N   1      25.228  20.099   4.627  0.00  0.00     0.217 HD
ENDBRANCH   4  16
TORSDOF 3
ENDMDL
MODEL 9
REMARK VINA RESULT:      -5.2     16.788     18.565
REMARK  3 active torsions:
REMARK  status: ('A' for Active; 'I' for Inactive)
REMARK    1  A    between atoms: C_4  and  O_5 
REMARK    2  A    between atoms: C_9  and  O_10 
REMARK    3  A    between atoms: O_10  and  C_11 
ROOT
HETATM    1  C   UNK N   1      29.675  25.428  -3.969  0.00  0.00     0.059 A 
HETATM    2  C   UNK N   1      30.994  25.108  -4.273  0.00  0.00     0.048 A 
HETATM    3 Br   UNK N   1      32.201  26.517  -4.724  0.00  0.00    -0.048 Br
HETATM    4  C   UNK N   1      31.409  23.772  -4.244  0.00  0.00     0.100 A 
HETATM    5  C   UNK N   1      30.491  22.764  -3.907  0.00  0.00     0.048 A 
HETATM    6 Br   UNK N   1      31.032  20.932  -3.860  0.00  0.00    -0.048 Br
HETATM    7  C   UNK N   1      29.165  23.099  -3.603  0.00  0.00     0.059 A 
HETATM    8  C   UNK N   1      28.744  24.436  -3.631  0.00  0.00     0.078 A 
ENDROOT
BRANCH   8   9
HETATM    9  O   UNK N   1      27.446  24.730  -3.329  0.00  0.00    -0.311 OA
BRANCH   9  10
HETATM   10  C   UNK N   1      26.630  25.651  -3.922  0.00  0.00     0.076 A 
HETATM   11  C   UNK N   1      25.988  25.310  -5.118  0.00  0.00     0.037 A 
HETATM   12  C   UNK N   1      25.143  26.227  -5.757  0.00  0.00     0.003 A 
HETATM   13  C   UNK N   1      24.934  27.492  -5.204  0.00  0.00     0.000 A 
HETATM   14  C   UNK N   1      25.568  27.845  -4.012  0.00  0.00     0.003 A 
HETATM   15  C   UNK N   1      26.409  26.930  -3.377  0.00  0.00     0.037 A 
ENDBRANCH   9  10
ENDBRANCH   8   9
BRANCH   4  16
HETATM   16  O   UNK N   1      32.684  23.457  -4.537  0.00  0.00    -0.358 OA
HETATM   17  H   UNK N   1      32.921  22.564  -4.696  0.00  0.00     0.217 HD
ENDBRANCH   4  16
TORSDOF 3
ENDMDL
