REMARK  3 active torsions:
REMARK  status: ('A' for Active; 'I' for Inactive)
REMARK    1  A    between atoms: C_4  and  O_5 
REMARK    2  A    between atoms: C_9  and  O_10 
REMARK    3  A    between atoms: O_10  and  C_11 
ROOT
HETATM    1  C   UNK N   1       1.813  -0.743   0.000  0.00  0.00     0.059 A 
HETATM    2  C   UNK N   1       2.986  -1.491   0.000  0.00  0.00     0.048 A 
HETATM    3 Br   UNK N   1       4.660  -0.573   0.000  0.00  0.00    -0.048 Br
HETATM    4  C   UNK N   1       2.919  -2.888  -0.000  0.00  0.00     0.100 A 
HETATM    5  C   UNK N   1       1.668  -3.526  -0.000  0.00  0.00     0.048 A 
HETATM    6 Br   UNK N   1       1.549  -5.433  -0.000  0.00  0.00    -0.048 Br
HETATM    7  C   UNK N   1       0.493  -2.762  -0.000  0.00  0.00     0.059 A 
HETATM    8  C   UNK N   1       0.555  -1.362   0.000  0.00  0.00     0.078 A 
ENDROOT
BRANCH   8   9
HETATM    9  O   UNK N   1      -0.607  -0.646   0.000  0.00  0.00    -0.311 OA
BRANCH   9  10
HETATM   10  C   UNK N   1      -0.762   0.711   0.000  0.00  0.00     0.076 A 
HETATM   11  C   UNK N   1      -2.058   1.240   0.000  0.00  0.00     0.037 A 
HETATM   12  C   UNK N   1      -2.259   2.626   0.000  0.00  0.00     0.003 A 
HETATM   13  C   UNK N   1      -1.165   3.494  -0.000  0.00  0.00     0.000 A 
HETATM   14  C   UNK N   1       0.132   2.980  -0.000  0.00  0.00     0.003 A 
HETATM   15  C   UNK N   1       0.330   1.599  -0.000  0.00  0.00     0.037 A 
ENDBRANCH   9  10
ENDBRANCH   8   9
BRANCH   4  16
HETATM   16  O   UNK N   1       4.051  -3.616  -0.000  0.00  0.00    -0.358 OA
HETATM   17  H   UNK N   1       4.006  -4.552  -0.000  0.00  0.00     0.217 HD
ENDBRANCH   4  16
TORSDOF 3
