REMARK  3 active torsions:
REMARK  status: ('A' for Active; 'I' for Inactive)
REMARK    1  A    between atoms: C_4  and  O_5 
REMARK    2  A    between atoms: C_9  and  N_10 
REMARK       I    between atoms: N_10  and  C_11 
REMARK    3  A    between atoms: C_11  and  C_13 
ROOT
HETATM    1  C   UNK N   1       3.588   0.455   0.092  0.00  0.00     0.051 A 
HETATM    2  C   UNK N   1       4.849  -0.127  -0.069  0.00  0.00     0.047 A 
HETATM    3 Br   UNK N   1       6.362   0.999  -0.374  0.00  0.00    -0.048 Br
HETATM    4  C   UNK N   1       4.985  -1.523  -0.036  0.00  0.00     0.100 A 
HETATM    5  C   UNK N   1       3.856  -2.328   0.173  0.00  0.00     0.047 A 
HETATM    6 Br   UNK N   1       4.000  -4.232   0.224  0.00  0.00    -0.048 Br
HETATM    7  C   UNK N   1       2.600  -1.738   0.321  0.00  0.00     0.051 A 
HETATM    8  C   UNK N   1       2.456  -0.341   0.279  0.00  0.00     0.037 A 
ENDROOT
BRANCH   8   9
HETATM    9  N   UNK N   1       1.178   0.288   0.323  0.00  0.00    -0.323 N 
HETATM   10  C   UNK N   1      -0.018  -0.339   0.148  0.00  0.00     0.256 C 
HETATM   11  O   UNK N   1      -0.070  -1.548  -0.044  0.00  0.00    -0.267 OA
HETATM   12  H   UNK N   1       1.158   1.257   0.494  0.00  0.00     0.169 HD
BRANCH  10  13
HETATM   13  C   UNK N   1      -1.262   0.455   0.087  0.00  0.00     0.032 A 
HETATM   14  C   UNK N   1      -2.471  -0.159  -0.273  0.00  0.00     0.017 A 
HETATM   15  C   UNK N   1      -3.640   0.596  -0.391  0.00  0.00     0.001 A 
HETATM   16  C   UNK N   1      -3.611   1.971  -0.144  0.00  0.00     0.000 A 
HETATM   17  C   UNK N   1      -2.413   2.590   0.222  0.00  0.00     0.001 A 
HETATM   18  C   UNK N   1      -1.240   1.837   0.331  0.00  0.00     0.017 A 
ENDBRANCH  10  13
ENDBRANCH   8   9
BRANCH   4  19
HETATM   19  O   UNK N   1       6.193  -2.088  -0.210  0.00  0.00    -0.358 OA
HETATM   20  H   UNK N   1       6.273  -3.014  -0.331  0.00  0.00     0.217 HD
ENDBRANCH   4  19
TORSDOF 3
