MODEL 1
REMARK VINA RESULT:      -6.6      0.000      0.000
REMARK  3 active torsions:
REMARK  status: ('A' for Active; 'I' for Inactive)
REMARK    1  A    between atoms: C_4  and  O_5 
REMARK    2  A    between atoms: C_9  and  N_10 
REMARK       I    between atoms: N_10  and  C_11 
REMARK    3  A    between atoms: C_11  and  C_13 
ROOT
HETATM    1  C   UNK N   1      37.162  12.527  12.361  0.00  0.00     0.051 A 
HETATM    2  C   UNK N   1      37.344  12.833  11.008  0.00  0.00     0.047 A 
HETATM    3 Br   UNK N   1      38.327  11.622   9.905  0.00  0.00    -0.048 Br
HETATM    4  C   UNK N   1      36.834  14.031  10.487  0.00  0.00     0.100 A 
HETATM    5  C   UNK N   1      36.130  14.910  11.322  0.00  0.00     0.047 A 
HETATM    6 Br   UNK N   1      35.420  16.551  10.649  0.00  0.00    -0.048 Br
HETATM    7  C   UNK N   1      35.964  14.602  12.673  0.00  0.00     0.051 A 
HETATM    8  C   UNK N   1      36.481  13.408  13.203  0.00  0.00     0.037 A 
ENDROOT
BRANCH   8   9
HETATM    9  N   UNK N   1      36.420  13.111  14.596  0.00  0.00    -0.323 N 
HETATM   10  C   UNK N   1      35.324  12.644  15.257  0.00  0.00     0.256 C 
HETATM   11  O   UNK N   1      34.280  12.417  14.658  0.00  0.00    -0.267 OA
HETATM   12  H   UNK N   1      37.237  13.256  15.124  0.00  0.00     0.169 HD
BRANCH  10  13
HETATM   13  C   UNK N   1      35.358  12.504  16.727  0.00  0.00     0.032 A 
HETATM   14  C   UNK N   1      35.514  11.237  17.308  0.00  0.00     0.017 A 
HETATM   15  C   UNK N   1      35.486  11.088  18.697  0.00  0.00     0.001 A 
HETATM   16  C   UNK N   1      35.309  12.206  19.516  0.00  0.00     0.000 A 
HETATM   17  C   UNK N   1      35.160  13.473  18.945  0.00  0.00     0.001 A 
HETATM   18  C   UNK N   1      35.177  13.622  17.555  0.00  0.00     0.017 A 
ENDBRANCH  10  13
ENDBRANCH   8   9
BRANCH   4  19
HETATM   19  O   UNK N   1      37.023  14.338   9.191  0.00  0.00    -0.358 OA
HETATM   20  H   UNK N   1      36.399  14.863   8.729  0.00  0.00     0.217 HD
ENDBRANCH   4  19
TORSDOF 3
ENDMDL
MODEL 2
REMARK VINA RESULT:      -6.5      0.216      2.517
REMARK  3 active torsions:
REMARK  status: ('A' for Active; 'I' for Inactive)
REMARK    1  A    between atoms: C_4  and  O_5 
REMARK    2  A    between atoms: C_9  and  N_10 
REMARK       I    between atoms: N_10  and  C_11 
REMARK    3  A    between atoms: C_11  and  C_13 
ROOT
HETATM    1  C   UNK N   1      36.050  14.678  12.703  0.00  0.00     0.051 A 
HETATM    2  C   UNK N   1      36.059  14.953  11.332  0.00  0.00     0.047 A 
HETATM    3 Br   UNK N   1      35.309  16.596  10.708  0.00  0.00    -0.048 Br
HETATM    4  C   UNK N   1      36.587  14.015  10.433  0.00  0.00     0.100 A 
HETATM    5  C   UNK N   1      37.117  12.809  10.915  0.00  0.00     0.047 A 
HETATM    6 Br   UNK N   1      37.843  11.506   9.723  0.00  0.00    -0.048 Br
HETATM    7  C   UNK N   1      37.093  12.538  12.284  0.00  0.00     0.051 A 
HETATM    8  C   UNK N   1      36.557  13.470  13.189  0.00  0.00     0.037 A 
ENDROOT
BRANCH   8   9
HETATM    9  N   UNK N   1      36.423  13.183  14.578  0.00  0.00    -0.323 N 
HETATM   10  C   UNK N   1      35.307  12.683  15.178  0.00  0.00     0.256 C 
HETATM   11  O   UNK N   1      34.308  12.415  14.520  0.00  0.00    -0.267 OA
HETATM   12  H   UNK N   1      37.202  13.360  15.152  0.00  0.00     0.169 HD
BRANCH  10  13
HETATM   13  C   UNK N   1      35.258  12.555  16.648  0.00  0.00     0.032 A 
HETATM   14  C   UNK N   1      35.132  13.700  17.449  0.00  0.00     0.017 A 
HETATM   15  C   UNK N   1      35.145  13.594  18.842  0.00  0.00     0.001 A 
HETATM   16  C   UNK N   1      35.277  12.340  19.445  0.00  0.00     0.000 A 
HETATM   17  C   UNK N   1      35.396  11.194  18.656  0.00  0.00     0.001 A 
HETATM   18  C   UNK N   1      35.393  11.300  17.261  0.00  0.00     0.017 A 
ENDBRANCH  10  13
ENDBRANCH   8   9
BRANCH   4  19
HETATM   19  O   UNK N   1      36.579  14.267   9.112  0.00  0.00    -0.358 OA
HETATM   20  H   UNK N   1      37.362  14.172   8.604  0.00  0.00     0.217 HD
ENDBRANCH   4  19
TORSDOF 3
ENDMDL
MODEL 3
REMARK VINA RESULT:      -6.1     15.319     16.580
REMARK  3 active torsions:
REMARK  status: ('A' for Active; 'I' for Inactive)
REMARK    1  A    between atoms: C_4  and  O_5 
REMARK    2  A    between atoms: C_9  and  N_10 
REMARK       I    between atoms: N_10  and  C_11 
REMARK    3  A    between atoms: C_11  and  C_13 
ROOT
HETATM    1  C   UNK N   1      24.296  18.584   4.900  0.00  0.00     0.051 A 
HETATM    2  C   UNK N   1      24.689  19.508   3.927  0.00  0.00     0.047 A 
HETATM    3 Br   UNK N   1      26.535  19.981   3.783  0.00  0.00    -0.048 Br
HETATM    4  C   UNK N   1      23.728  20.097   3.092  0.00  0.00     0.100 A 
HETATM    5  C   UNK N   1      22.377  19.745   3.229  0.00  0.00     0.047 A 
HETATM    6 Br   UNK N   1      21.039  20.525   2.112  0.00  0.00    -0.048 Br
HETATM    7  C   UNK N   1      21.994  18.831   4.211  0.00  0.00     0.051 A 
HETATM    8  C   UNK N   1      22.951  18.245   5.056  0.00  0.00     0.037 A 
ENDROOT
BRANCH   8   9
HETATM    9  N   UNK N   1      22.583  17.389   6.134  0.00  0.00    -0.323 N 
HETATM   10  C   UNK N   1      22.551  16.029   6.088  0.00  0.00     0.256 C 
HETATM   11  O   UNK N   1      22.878  15.428   5.071  0.00  0.00    -0.267 OA
HETATM   12  H   UNK N   1      22.330  17.817   6.984  0.00  0.00     0.169 HD
BRANCH  10  13
HETATM   13  C   UNK N   1      22.024  15.266   7.238  0.00  0.00     0.032 A 
HETATM   14  C   UNK N   1      20.969  15.787   8.002  0.00  0.00     0.017 A 
HETATM   15  C   UNK N   1      20.504  15.101   9.126  0.00  0.00     0.001 A 
HETATM   16  C   UNK N   1      21.086  13.885   9.492  0.00  0.00     0.000 A 
HETATM   17  C   UNK N   1      22.132  13.355   8.733  0.00  0.00     0.001 A 
HETATM   18  C   UNK N   1      22.605  14.045   7.613  0.00  0.00     0.017 A 
ENDBRANCH  10  13
ENDBRANCH   8   9
BRANCH   4  19
HETATM   19  O   UNK N   1      24.099  21.001   2.167  0.00  0.00    -0.358 OA
HETATM   20  H   UNK N   1      24.536  21.790   2.421  0.00  0.00     0.217 HD
ENDBRANCH   4  19
TORSDOF 3
ENDMDL
MODEL 4
REMARK VINA RESULT:      -5.9     21.298     23.591
REMARK  3 active torsions:
REMARK  status: ('A' for Active; 'I' for Inactive)
REMARK    1  A    between atoms: C_4  and  O_5 
REMARK    2  A    between atoms: C_9  and  N_10 
REMARK       I    between atoms: N_10  and  C_11 
REMARK    3  A    between atoms: C_11  and  C_13 
ROOT
HETATM    1  C   UNK N   1      30.072  22.877  -4.231  0.00  0.00     0.051 A 
HETATM    2  C   UNK N   1      30.940  21.783  -4.301  0.00  0.00     0.047 A 
HETATM    3 Br   UNK N   1      32.339  21.620  -3.009  0.00  0.00    -0.048 Br
HETATM    4  C   UNK N   1      30.795  20.839  -5.328  0.00  0.00     0.100 A 
HETATM    5  C   UNK N   1      29.770  20.990  -6.274  0.00  0.00     0.047 A 
HETATM    6 Br   UNK N   1      29.541  19.727  -7.688  0.00  0.00    -0.048 Br
HETATM    7  C   UNK N   1      28.917  22.092  -6.202  0.00  0.00     0.051 A 
HETATM    8  C   UNK N   1      29.063  23.046  -5.181  0.00  0.00     0.037 A 
ENDROOT
BRANCH   8   9
HETATM    9  N   UNK N   1      28.277  24.234  -5.139  0.00  0.00    -0.323 N 
HETATM   10  C   UNK N   1      27.279  24.490  -4.249  0.00  0.00     0.256 C 
HETATM   11  O   UNK N   1      26.999  23.682  -3.371  0.00  0.00    -0.267 OA
HETATM   12  H   UNK N   1      28.471  24.927  -5.810  0.00  0.00     0.169 HD
BRANCH  10  13
HETATM   13  C   UNK N   1      26.454  25.706  -4.400  0.00  0.00     0.032 A 
HETATM   14  C   UNK N   1      25.643  25.869  -5.532  0.00  0.00     0.017 A 
HETATM   15  C   UNK N   1      24.906  27.042  -5.712  0.00  0.00     0.001 A 
HETATM   16  C   UNK N   1      24.969  28.059  -4.756  0.00  0.00     0.000 A 
HETATM   17  C   UNK N   1      25.769  27.903  -3.621  0.00  0.00     0.001 A 
HETATM   18  C   UNK N   1      26.515  26.733  -3.445  0.00  0.00     0.017 A 
ENDBRANCH  10  13
ENDBRANCH   8   9
BRANCH   4  19
HETATM   19  O   UNK N   1      31.640  19.795  -5.411  0.00  0.00    -0.358 OA
HETATM   20  H   UNK N   1      32.096  19.614  -6.209  0.00  0.00     0.217 HD
ENDBRANCH   4  19
TORSDOF 3
ENDMDL
MODEL 5
REMARK VINA RESULT:      -5.7      5.029      8.231
REMARK  3 active torsions:
REMARK  status: ('A' for Active; 'I' for Inactive)
REMARK    1  A    between atoms: C_4  and  O_5 
REMARK    2  A    between atoms: C_9  and  N_10 
REMARK       I    between atoms: N_10  and  C_11 
REMARK    3  A    between atoms: C_11  and  C_13 
ROOT
HETATM    1  C   UNK N   1      35.548  14.710   8.766  0.00  0.00     0.051 A 
HETATM    2  C   UNK N   1      36.740  14.170   9.261  0.00  0.00     0.047 A 
HETATM    3 Br   UNK N   1      38.072  13.571   8.030  0.00  0.00    -0.048 Br
HETATM    4  C   UNK N   1      36.930  14.047  10.645  0.00  0.00     0.100 A 
HETATM    5  C   UNK N   1      35.930  14.480  11.527  0.00  0.00     0.047 A 
HETATM    6 Br   UNK N   1      36.152  14.329  13.419  0.00  0.00    -0.048 Br
HETATM    7  C   UNK N   1      34.740  15.006  11.023  0.00  0.00     0.051 A 
HETATM    8  C   UNK N   1      34.539  15.123   9.638  0.00  0.00     0.037 A 
ENDROOT
BRANCH   8   9
HETATM    9  N   UNK N   1      33.298  15.558   9.089  0.00  0.00    -0.323 N 
HETATM   10  C   UNK N   1      33.020  16.823   8.668  0.00  0.00     0.256 C 
HETATM   11  O   UNK N   1      33.873  17.701   8.717  0.00  0.00    -0.267 OA
HETATM   12  H   UNK N   1      32.581  14.888   9.007  0.00  0.00     0.169 HD
BRANCH  10  13
HETATM   13  C   UNK N   1      31.649  17.171   8.241  0.00  0.00     0.032 A 
HETATM   14  C   UNK N   1      31.115  16.615   7.070  0.00  0.00     0.017 A 
HETATM   15  C   UNK N   1      29.843  16.985   6.627  0.00  0.00     0.001 A 
HETATM   16  C   UNK N   1      29.092  17.910   7.357  0.00  0.00     0.000 A 
HETATM   17  C   UNK N   1      29.613  18.464   8.529  0.00  0.00     0.001 A 
HETATM   18  C   UNK N   1      30.890  18.102   8.968  0.00  0.00     0.017 A 
ENDBRANCH  10  13
ENDBRANCH   8   9
BRANCH   4  19
HETATM   19  O   UNK N   1      38.067  13.511  11.125  0.00  0.00    -0.358 OA
HETATM   20  H   UNK N   1      38.055  12.989  11.903  0.00  0.00     0.217 HD
ENDBRANCH   4  19
TORSDOF 3
ENDMDL
MODEL 6
REMARK VINA RESULT:      -5.7     21.281     23.593
REMARK  3 active torsions:
REMARK  status: ('A' for Active; 'I' for Inactive)
REMARK    1  A    between atoms: C_4  and  O_5 
REMARK    2  A    between atoms: C_9  and  N_10 
REMARK       I    between atoms: N_10  and  C_11 
REMARK    3  A    between atoms: C_11  and  C_13 
ROOT
HETATM    1  C   UNK N   1      29.110  22.247  -6.244  0.00  0.00     0.051 A 
HETATM    2  C   UNK N   1      29.831  21.049  -6.250  0.00  0.00     0.047 A 
HETATM    3 Br   UNK N   1      29.415  19.718  -7.556  0.00  0.00    -0.048 Br
HETATM    4  C   UNK N   1      30.824  20.825  -5.284  0.00  0.00     0.100 A 
HETATM    5  C   UNK N   1      31.099  21.812  -4.326  0.00  0.00     0.047 A 
HETATM    6 Br   UNK N   1      32.443  21.545  -2.995  0.00  0.00    -0.048 Br
HETATM    7  C   UNK N   1      30.365  22.999  -4.321  0.00  0.00     0.051 A 
HETATM    8  C   UNK N   1      29.362  23.225  -5.279  0.00  0.00     0.037 A 
ENDROOT
BRANCH   8   9
HETATM    9  N   UNK N   1      28.526  24.378  -5.240  0.00  0.00    -0.323 N 
HETATM   10  C   UNK N   1      27.511  24.589  -4.358  0.00  0.00     0.256 C 
HETATM   11  O   UNK N   1      27.258  23.767  -3.485  0.00  0.00    -0.267 OA
HETATM   12  H   UNK N   1      28.697  25.082  -5.907  0.00  0.00     0.169 HD
BRANCH  10  13
HETATM   13  C   UNK N   1      26.637  25.769  -4.512  0.00  0.00     0.032 A 
HETATM   14  C   UNK N   1      26.599  26.751  -3.511  0.00  0.00     0.017 A 
HETATM   15  C   UNK N   1      25.732  27.840  -3.620  0.00  0.00     0.001 A 
HETATM   16  C   UNK N   1      24.898  27.960  -4.736  0.00  0.00     0.000 A 
HETATM   17  C   UNK N   1      24.934  26.990  -5.741  0.00  0.00     0.001 A 
HETATM   18  C   UNK N   1      25.795  25.895  -5.628  0.00  0.00     0.017 A 
ENDBRANCH  10  13
ENDBRANCH   8   9
BRANCH   4  19
HETATM   19  O   UNK N   1      31.507  19.667  -5.274  0.00  0.00    -0.358 OA
HETATM   20  H   UNK N   1      31.832  19.313  -4.469  0.00  0.00     0.217 HD
ENDBRANCH   4  19
TORSDOF 3
ENDMDL
MODEL 7
REMARK VINA RESULT:      -5.7      3.614      7.411
REMARK  3 active torsions:
REMARK  status: ('A' for Active; 'I' for Inactive)
REMARK    1  A    between atoms: C_4  and  O_5 
REMARK    2  A    between atoms: C_9  and  N_10 
REMARK       I    between atoms: N_10  and  C_11 
REMARK    3  A    between atoms: C_11  and  C_13 
ROOT
HETATM    1  C   UNK N   1      35.527  14.153  13.003  0.00  0.00     0.051 A 
HETATM    2  C   UNK N   1      36.470  13.522  13.820  0.00  0.00     0.047 A 
HETATM    3 Br   UNK N   1      36.961  14.339  15.476  0.00  0.00    -0.048 Br
HETATM    4  C   UNK N   1      37.064  12.321  13.405  0.00  0.00     0.100 A 
HETATM    5  C   UNK N   1      36.697  11.751  12.177  0.00  0.00     0.047 A 
HETATM    6 Br   UNK N   1      37.484  10.117  11.577  0.00  0.00    -0.048 Br
HETATM    7  C   UNK N   1      35.764  12.394  11.363  0.00  0.00     0.051 A 
HETATM    8  C   UNK N   1      35.173  13.603  11.769  0.00  0.00     0.037 A 
ENDROOT
BRANCH   8   9
HETATM    9  N   UNK N   1      34.296  14.337  10.919  0.00  0.00    -0.323 N 
HETATM   10  C   UNK N   1      34.679  15.276  10.010  0.00  0.00     0.256 C 
HETATM   11  O   UNK N   1      35.864  15.541   9.844  0.00  0.00    -0.267 OA
HETATM   12  H   UNK N   1      33.333  14.151  10.996  0.00  0.00     0.169 HD
BRANCH  10  13
HETATM   13  C   UNK N   1      33.656  16.058   9.286  0.00  0.00     0.032 A 
HETATM   14  C   UNK N   1      32.401  15.493   9.014  0.00  0.00     0.017 A 
HETATM   15  C   UNK N   1      31.450  16.204   8.279  0.00  0.00     0.001 A 
HETATM   16  C   UNK N   1      31.744  17.488   7.814  0.00  0.00     0.000 A 
HETATM   17  C   UNK N   1      32.989  18.062   8.086  0.00  0.00     0.001 A 
HETATM   18  C   UNK N   1      33.945  17.348   8.814  0.00  0.00     0.017 A 
ENDBRANCH  10  13
ENDBRANCH   8   9
BRANCH   4  19
HETATM   19  O   UNK N   1      37.985  11.721  14.179  0.00  0.00    -0.358 OA
HETATM   20  H   UNK N   1      38.787  11.407  13.808  0.00  0.00     0.217 HD
ENDBRANCH   4  19
TORSDOF 3
ENDMDL
MODEL 8
REMARK VINA RESULT:      -5.7      3.518      7.626
REMARK  3 active torsions:
REMARK  status: ('A' for Active; 'I' for Inactive)
REMARK    1  A    between atoms: C_4  and  O_5 
REMARK    2  A    between atoms: C_9  and  N_10 
REMARK       I    between atoms: N_10  and  C_11 
REMARK    3  A    between atoms: C_11  and  C_13 
ROOT
HETATM    1  C   UNK N   1      34.901  12.766  12.421  0.00  0.00     0.051 A 
HETATM    2  C   UNK N   1      35.148  12.195  13.673  0.00  0.00     0.047 A 
HETATM    3 Br   UNK N   1      34.493  10.438  14.041  0.00  0.00    -0.048 Br
HETATM    4  C   UNK N   1      35.843  12.924  14.650  0.00  0.00     0.100 A 
HETATM    5  C   UNK N   1      36.299  14.218  14.360  0.00  0.00     0.047 A 
HETATM    6 Br   UNK N   1      37.248  15.242  15.664  0.00  0.00    -0.048 Br
HETATM    7  C   UNK N   1      36.037  14.783  13.112  0.00  0.00     0.051 A 
HETATM    8  C   UNK N   1      35.333  14.062  12.133  0.00  0.00     0.037 A 
ENDROOT
BRANCH   8   9
HETATM    9  N   UNK N   1      34.959  14.646  10.888  0.00  0.00    -0.323 N 
HETATM   10  C   UNK N   1      35.631  15.642  10.249  0.00  0.00     0.256 C 
HETATM   11  O   UNK N   1      36.664  16.104  10.719  0.00  0.00    -0.267 OA
HETATM   12  H   UNK N   1      34.147  14.300  10.453  0.00  0.00     0.169 HD
BRANCH  10  13
HETATM   13  C   UNK N   1      35.062  16.248   9.028  0.00  0.00     0.032 A 
HETATM   14  C   UNK N   1      34.624  17.580   9.042  0.00  0.00     0.017 A 
HETATM   15  C   UNK N   1      34.029  18.142   7.910  0.00  0.00     0.001 A 
HETATM   16  C   UNK N   1      33.873  17.377   6.751  0.00  0.00     0.000 A 
HETATM   17  C   UNK N   1      34.313  16.051   6.725  0.00  0.00     0.001 A 
HETATM   18  C   UNK N   1      34.899  15.484   7.861  0.00  0.00     0.017 A 
ENDBRANCH  10  13
ENDBRANCH   8   9
BRANCH   4  19
HETATM   19  O   UNK N   1      36.066  12.386  15.862  0.00  0.00    -0.358 OA
HETATM   20  H   UNK N   1      35.989  11.461  15.995  0.00  0.00     0.217 HD
ENDBRANCH   4  19
TORSDOF 3
ENDMDL
MODEL 9
REMARK VINA RESULT:      -5.7      2.872      4.348
REMARK  3 active torsions:
REMARK  status: ('A' for Active; 'I' for Inactive)
REMARK    1  A    between atoms: C_4  and  O_5 
REMARK    2  A    between atoms: C_9  and  N_10 
REMARK       I    between atoms: N_10  and  C_11 
REMARK    3  A    between atoms: C_11  and  C_13 
ROOT
HETATM    1  C   UNK N   1      33.919  15.334   9.832  0.00  0.00     0.051 A 
HETATM    2  C   UNK N   1      34.017  16.041   8.630  0.00  0.00     0.047 A 
HETATM    3 Br   UNK N   1      32.917  17.580   8.362  0.00  0.00    -0.048 Br
HETATM    4  C   UNK N   1      34.893  15.599   7.627  0.00  0.00     0.100 A 
HETATM    5  C   UNK N   1      35.678  14.456   7.842  0.00  0.00     0.047 A 
HETATM    6 Br   UNK N   1      36.882  13.822   6.502  0.00  0.00    -0.048 Br
HETATM    7  C   UNK N   1      35.564  13.751   9.041  0.00  0.00     0.051 A 
HETATM    8  C   UNK N   1      34.681  14.184  10.045  0.00  0.00     0.037 A 
ENDROOT
BRANCH   8   9
HETATM    9  N   UNK N   1      34.465  13.431  11.236  0.00  0.00    -0.323 N 
HETATM   10  C   UNK N   1      35.228  13.497  12.362  0.00  0.00     0.256 C 
HETATM   11  O   UNK N   1      36.181  14.265  12.430  0.00  0.00    -0.267 OA
HETATM   12  H   UNK N   1      33.701  12.812  11.245  0.00  0.00     0.169 HD
BRANCH  10  13
HETATM   13  C   UNK N   1      34.972  12.565  13.479  0.00  0.00     0.032 A 
HETATM   14  C   UNK N   1      34.405  11.307  13.228  0.00  0.00     0.017 A 
HETATM   15  C   UNK N   1      34.104  10.443  14.284  0.00  0.00     0.001 A 
HETATM   16  C   UNK N   1      34.374  10.829  15.600  0.00  0.00     0.000 A 
HETATM   17  C   UNK N   1      34.946  12.078  15.859  0.00  0.00     0.001 A 
HETATM   18  C   UNK N   1      35.238  12.947  14.803  0.00  0.00     0.017 A 
ENDBRANCH  10  13
ENDBRANCH   8   9
BRANCH   4  19
HETATM   19  O   UNK N   1      34.976  16.264   6.462  0.00  0.00    -0.358 OA
HETATM   20  H   UNK N   1      34.401  16.055   5.752  0.00  0.00     0.217 HD
ENDBRANCH   4  19
TORSDOF 3
ENDMDL
