MODEL 1
REMARK VINA RESULT:      -6.9      0.000      0.000
REMARK  13 active torsions:
REMARK  status: ('A' for Active; 'I' for Inactive)
REMARK    1  A    between atoms: S_2  and  N_4 
REMARK    2  A    between atoms: S_2  and  C_14 
REMARK    3  A    between atoms: C_5  and  N_4 
REMARK    4  A    between atoms: C_5  and  C_6 
REMARK    5  A    between atoms: C_5  and  C_9 
REMARK    6  A    between atoms: C_6  and  O_7 
REMARK    7  A    between atoms: C_9  and  C_10 
REMARK    8  A    between atoms: C_10  and  C_11 
REMARK    9  A    between atoms: C_11  and  O_12 
REMARK   10  A    between atoms: C_19  and  O_24 
REMARK   11  A    between atoms: O_24  and  C_25 
REMARK   12  A    between atoms: C_25  and  C_26 
REMARK   13  A    between atoms: C_26  and  C_27 
ROOT
HETATM    1  O   UNK N   1      34.975  16.054   6.920  0.00  0.00    -0.201 OA
HETATM    2  S   UNK N   1      33.912  17.025   7.456  0.00  0.00     0.259 S 
HETATM    3  O   UNK N   1      34.670  18.361   7.407  0.00  0.00    -0.201 OA
ENDROOT
BRANCH   2   4
HETATM    4  N   UNK N   1      33.726  16.726   9.205  0.00  0.00    -0.300 N 
HETATM    5  H   UNK N   1      32.966  17.139   9.746  0.00  0.00     0.173 HD
BRANCH   4   6
HETATM    6  C   UNK N   1      34.733  15.849   9.822  0.00  0.00     0.191 C 
BRANCH   6   7
HETATM    7  C   UNK N   1      35.883  16.622  10.424  0.00  0.00     0.164 C 
HETATM    8  O   UNK N   1      35.868  17.843  10.447  0.00  0.00    -0.648 OA
BRANCH   7   9
HETATM    9  O   UNK N   1      36.917  15.961  10.979  0.00  0.00    -0.775 OA
HETATM   10  H   UNK N   1      37.771  15.865  10.607  0.00  0.00     0.167 HD
ENDBRANCH   7   9
ENDBRANCH   6   7
BRANCH   6  11
HETATM   11  C   UNK N   1      34.092  14.893  10.833  0.00  0.00     0.047 C 
BRANCH  11  12
HETATM   12  C   UNK N   1      34.758  13.521  10.856  0.00  0.00     0.112 C 
BRANCH  12  13
HETATM   13  C   UNK N   1      35.275  13.201  12.219  0.00  0.00     0.139 C 
HETATM   14  O   UNK N   1      36.466  13.304  12.463  0.00  0.00    -0.650 OA
BRANCH  13  15
HETATM   15  O   UNK N   1      34.429  12.780  13.176  0.00  0.00    -0.776 OA
HETATM   16  H   UNK N   1      34.132  13.284  13.908  0.00  0.00     0.167 HD
ENDBRANCH  13  15
ENDBRANCH  12  13
ENDBRANCH  11  12
ENDBRANCH   6  11
ENDBRANCH   4   6
ENDBRANCH   2   4
BRANCH   2  17
HETATM   17  C   UNK N   1      32.436  17.116   6.450  0.00  0.00     0.080 A 
HETATM   18  C   UNK N   1      32.541  17.383   5.079  0.00  0.00     0.026 A 
HETATM   19  C   UNK N   1      31.390  17.471   4.290  0.00  0.00     0.014 A 
HETATM   20  C   UNK N   1      30.131  17.293   4.871  0.00  0.00    -0.023 A 
HETATM   21  C   UNK N   1      28.975  17.426   4.098  0.00  0.00     0.049 A 
HETATM   22  C   UNK N   1      30.027  17.017   6.252  0.00  0.00    -0.024 A 
HETATM   23  C   UNK N   1      27.713  17.304   4.692  0.00  0.00     0.069 A 
HETATM   24  C   UNK N   1      27.618  17.004   6.065  0.00  0.00     0.037 A 
HETATM   25  C   UNK N   1      28.771  16.853   6.838  0.00  0.00     0.015 A 
HETATM   26  C   UNK N   1      31.179  16.932   7.032  0.00  0.00     0.037 A 
BRANCH  23  27
HETATM   27  O   UNK N   1      26.612  17.545   3.944  0.00  0.00    -0.351 OA
BRANCH  27  28
HETATM   28  C   UNK N   1      25.757  18.590   4.211  0.00  0.00     0.175 C 
BRANCH  28  29
HETATM   29  C   UNK N   1      26.227  19.853   3.530  0.00  0.00     0.026 C 
BRANCH  29  30
HETATM   30  C   UNK N   1      26.964  20.703   4.541  0.00  0.00    -0.002 C 
HETATM   31  C   UNK N   1      26.316  20.544   5.898  0.00  0.00     0.005 C 
ENDBRANCH  29  30
ENDBRANCH  28  29
ENDBRANCH  27  28
ENDBRANCH  23  27
ENDBRANCH   2  17
TORSDOF 13
ENDMDL
MODEL 2
REMARK VINA RESULT:      -6.6      6.803     12.825
REMARK  13 active torsions:
REMARK  status: ('A' for Active; 'I' for Inactive)
REMARK    1  A    between atoms: S_2  and  N_4 
REMARK    2  A    between atoms: S_2  and  C_14 
REMARK    3  A    between atoms: C_5  and  N_4 
REMARK    4  A    between atoms: C_5  and  C_6 
REMARK    5  A    between atoms: C_5  and  C_9 
REMARK    6  A    between atoms: C_6  and  O_7 
REMARK    7  A    between atoms: C_9  and  C_10 
REMARK    8  A    between atoms: C_10  and  C_11 
REMARK    9  A    between atoms: C_11  and  O_12 
REMARK   10  A    between atoms: C_19  and  O_24 
REMARK   11  A    between atoms: O_24  and  C_25 
REMARK   12  A    between atoms: C_25  and  C_26 
REMARK   13  A    between atoms: C_26  and  C_27 
ROOT
HETATM    1  O   UNK N   1      36.513  14.876  13.707  0.00  0.00    -0.201 OA
HETATM    2  S   UNK N   1      36.011  13.424  13.680  0.00  0.00     0.259 S 
HETATM    3  O   UNK N   1      37.195  12.707  13.012  0.00  0.00    -0.201 OA
ENDROOT
BRANCH   2   4
HETATM    4  N   UNK N   1      34.721  13.311  12.451  0.00  0.00    -0.300 N 
HETATM    5  H   UNK N   1      33.739  13.461  12.684  0.00  0.00     0.173 HD
BRANCH   4   6
HETATM    6  C   UNK N   1      35.158  12.988  11.084  0.00  0.00     0.191 C 
BRANCH   6   7
HETATM    7  C   UNK N   1      34.607  11.669  10.597  0.00  0.00     0.164 C 
HETATM    8  O   UNK N   1      34.906  11.238   9.494  0.00  0.00    -0.648 OA
BRANCH   7   9
HETATM    9  O   UNK N   1      33.811  10.938  11.400  0.00  0.00    -0.775 OA
HETATM   10  H   UNK N   1      33.810  10.003  11.469  0.00  0.00     0.167 HD
ENDBRANCH   7   9
ENDBRANCH   6   7
BRANCH   6  11
HETATM   11  C   UNK N   1      34.845  14.134  10.116  0.00  0.00     0.047 C 
BRANCH  11  12
HETATM   12  C   UNK N   1      34.549  15.449  10.830  0.00  0.00     0.112 C 
BRANCH  12  13
HETATM   13  C   UNK N   1      35.686  16.405  10.682  0.00  0.00     0.139 C 
HETATM   14  O   UNK N   1      35.489  17.530  10.253  0.00  0.00    -0.650 OA
BRANCH  13  15
HETATM   15  O   UNK N   1      36.933  16.018  11.004  0.00  0.00    -0.776 OA
HETATM   16  H   UNK N   1      37.360  16.165  11.825  0.00  0.00     0.167 HD
ENDBRANCH  13  15
ENDBRANCH  12  13
ENDBRANCH  11  12
ENDBRANCH   6  11
ENDBRANCH   4   6
ENDBRANCH   2   4
BRANCH   2  17
HETATM   17  C   UNK N   1      35.703  12.730  15.299  0.00  0.00     0.080 A 
HETATM   18  C   UNK N   1      35.547  13.576  16.404  0.00  0.00     0.026 A 
HETATM   19  C   UNK N   1      35.321  13.038  17.674  0.00  0.00     0.014 A 
HETATM   20  C   UNK N   1      35.252  11.652  17.843  0.00  0.00    -0.023 A 
HETATM   21  C   UNK N   1      35.073  11.107  19.116  0.00  0.00     0.049 A 
HETATM   22  C   UNK N   1      35.402  10.800  16.727  0.00  0.00    -0.024 A 
HETATM   23  C   UNK N   1      35.061   9.718  19.292  0.00  0.00     0.069 A 
HETATM   24  C   UNK N   1      35.186   8.875  18.171  0.00  0.00     0.037 A 
HETATM   25  C   UNK N   1      35.348   9.416  16.894  0.00  0.00     0.015 A 
HETATM   26  C   UNK N   1      35.628  11.344  15.463  0.00  0.00     0.037 A 
BRANCH  23  27
HETATM   27  O   UNK N   1      34.995   9.219  20.548  0.00  0.00    -0.351 OA
BRANCH  27  28
HETATM   28  C   UNK N   1      34.017   8.331  20.935  0.00  0.00     0.175 C 
BRANCH  28  29
HETATM   29  C   UNK N   1      32.644   8.895  20.660  0.00  0.00     0.026 C 
BRANCH  29  30
HETATM   30  C   UNK N   1      31.909   7.951  19.734  0.00  0.00    -0.002 C 
HETATM   31  C   UNK N   1      30.516   7.706  20.269  0.00  0.00     0.005 C 
ENDBRANCH  29  30
ENDBRANCH  28  29
ENDBRANCH  27  28
ENDBRANCH  23  27
ENDBRANCH   2  17
TORSDOF 13
ENDMDL
MODEL 3
REMARK VINA RESULT:      -6.6      1.459      2.427
REMARK  13 active torsions:
REMARK  status: ('A' for Active; 'I' for Inactive)
REMARK    1  A    between atoms: S_2  and  N_4 
REMARK    2  A    between atoms: S_2  and  C_14 
REMARK    3  A    between atoms: C_5  and  N_4 
REMARK    4  A    between atoms: C_5  and  C_6 
REMARK    5  A    between atoms: C_5  and  C_9 
REMARK    6  A    between atoms: C_6  and  O_7 
REMARK    7  A    between atoms: C_9  and  C_10 
REMARK    8  A    between atoms: C_10  and  C_11 
REMARK    9  A    between atoms: C_11  and  O_12 
REMARK   10  A    between atoms: C_19  and  O_24 
REMARK   11  A    between atoms: O_24  and  C_25 
REMARK   12  A    between atoms: C_25  and  C_26 
REMARK   13  A    between atoms: C_26  and  C_27 
ROOT
HETATM    1  O   UNK N   1      34.913  16.819   7.227  0.00  0.00    -0.201 OA
HETATM    2  S   UNK N   1      34.042  17.624   8.203  0.00  0.00     0.259 S 
HETATM    3  O   UNK N   1      34.627  19.035   8.039  0.00  0.00    -0.201 OA
ENDROOT
BRANCH   2   4
HETATM    4  N   UNK N   1      34.519  17.176   9.864  0.00  0.00    -0.300 N 
HETATM    5  H   UNK N   1      34.501  17.849  10.631  0.00  0.00     0.173 HD
BRANCH   4   6
HETATM    6  C   UNK N   1      34.941  15.780  10.061  0.00  0.00     0.191 C 
BRANCH   6   7
HETATM    7  C   UNK N   1      36.079  15.653  11.045  0.00  0.00     0.164 C 
HETATM    8  O   UNK N   1      35.862  15.383  12.216  0.00  0.00    -0.648 OA
BRANCH   7   9
HETATM    9  O   UNK N   1      37.349  15.796  10.623  0.00  0.00    -0.775 OA
HETATM   10  H   UNK N   1      37.626  16.268   9.862  0.00  0.00     0.167 HD
ENDBRANCH   7   9
ENDBRANCH   6   7
BRANCH   6  11
HETATM   11  C   UNK N   1      33.753  14.890  10.437  0.00  0.00     0.047 C 
BRANCH  11  12
HETATM   12  C   UNK N   1      33.054  14.288   9.223  0.00  0.00     0.112 C 
BRANCH  12  13
HETATM   13  C   UNK N   1      34.025  13.560   8.354  0.00  0.00     0.139 C 
HETATM   14  O   UNK N   1      34.601  12.570   8.773  0.00  0.00    -0.650 OA
BRANCH  13  15
HETATM   15  O   UNK N   1      34.280  14.009   7.111  0.00  0.00    -0.776 OA
HETATM   16  H   UNK N   1      34.688  14.824   6.893  0.00  0.00     0.167 HD
ENDBRANCH  13  15
ENDBRANCH  12  13
ENDBRANCH  11  12
ENDBRANCH   6  11
ENDBRANCH   4   6
ENDBRANCH   2   4
BRANCH   2  17
HETATM   17  C   UNK N   1      32.301  17.626   7.793  0.00  0.00     0.080 A 
HETATM   18  C   UNK N   1      31.360  18.045   8.742  0.00  0.00     0.026 A 
HETATM   19  C   UNK N   1      29.997  18.034   8.432  0.00  0.00     0.014 A 
HETATM   20  C   UNK N   1      29.571  17.604   7.172  0.00  0.00    -0.023 A 
HETATM   21  C   UNK N   1      28.209  17.547   6.871  0.00  0.00     0.049 A 
HETATM   22  C   UNK N   1      30.522  17.189   6.213  0.00  0.00    -0.024 A 
HETATM   23  C   UNK N   1      27.781  17.062   5.630  0.00  0.00     0.069 A 
HETATM   24  C   UNK N   1      28.736  16.673   4.670  0.00  0.00     0.037 A 
HETATM   25  C   UNK N   1      30.100  16.745   4.959  0.00  0.00     0.015 A 
HETATM   26  C   UNK N   1      31.879  17.201   6.530  0.00  0.00     0.037 A 
BRANCH  23  27
HETATM   27  O   UNK N   1      26.454  16.915   5.407  0.00  0.00    -0.351 OA
BRANCH  27  28
HETATM   28  C   UNK N   1      25.821  17.502   4.334  0.00  0.00     0.175 C 
BRANCH  28  29
HETATM   29  C   UNK N   1      25.433  18.925   4.657  0.00  0.00     0.026 C 
BRANCH  29  30
HETATM   30  C   UNK N   1      26.359  19.861   3.911  0.00  0.00    -0.002 C 
HETATM   31  C   UNK N   1      27.226  20.605   4.901  0.00  0.00     0.005 C 
ENDBRANCH  29  30
ENDBRANCH  28  29
ENDBRANCH  27  28
ENDBRANCH  23  27
ENDBRANCH   2  17
TORSDOF 13
ENDMDL
MODEL 4
REMARK VINA RESULT:      -6.6      1.661      2.103
REMARK  13 active torsions:
REMARK  status: ('A' for Active; 'I' for Inactive)
REMARK    1  A    between atoms: S_2  and  N_4 
REMARK    2  A    between atoms: S_2  and  C_14 
REMARK    3  A    between atoms: C_5  and  N_4 
REMARK    4  A    between atoms: C_5  and  C_6 
REMARK    5  A    between atoms: C_5  and  C_9 
REMARK    6  A    between atoms: C_6  and  O_7 
REMARK    7  A    between atoms: C_9  and  C_10 
REMARK    8  A    between atoms: C_10  and  C_11 
REMARK    9  A    between atoms: C_11  and  O_12 
REMARK   10  A    between atoms: C_19  and  O_24 
REMARK   11  A    between atoms: O_24  and  C_25 
REMARK   12  A    between atoms: C_25  and  C_26 
REMARK   13  A    between atoms: C_26  and  C_27 
ROOT
HETATM    1  O   UNK N   1      32.614  13.386   8.603  0.00  0.00    -0.201 OA
HETATM    2  S   UNK N   1      32.870  14.886   8.391  0.00  0.00     0.259 S 
HETATM    3  O   UNK N   1      34.139  14.858   7.526  0.00  0.00    -0.201 OA
ENDROOT
BRANCH   2   4
HETATM    4  N   UNK N   1      33.444  15.569   9.936  0.00  0.00    -0.300 N 
HETATM    5  H   UNK N   1      32.881  16.223  10.480  0.00  0.00     0.173 HD
BRANCH   4   6
HETATM    6  C   UNK N   1      34.779  15.135  10.378  0.00  0.00     0.191 C 
BRANCH   6   7
HETATM    7  C   UNK N   1      35.750  16.286  10.504  0.00  0.00     0.164 C 
HETATM    8  O   UNK N   1      35.391  17.431  10.277  0.00  0.00    -0.648 OA
BRANCH   7   9
HETATM    9  O   UNK N   1      37.012  16.055  10.912  0.00  0.00    -0.775 OA
HETATM   10  H   UNK N   1      37.405  15.213  11.036  0.00  0.00     0.167 HD
ENDBRANCH   7   9
ENDBRANCH   6   7
BRANCH   6  11
HETATM   11  C   UNK N   1      34.695  14.310  11.666  0.00  0.00     0.047 C 
BRANCH  11  12
HETATM   12  C   UNK N   1      35.146  12.865  11.475  0.00  0.00     0.112 C 
BRANCH  12  13
HETATM   13  C   UNK N   1      36.372  12.579  12.277  0.00  0.00     0.139 C 
HETATM   14  O   UNK N   1      36.566  11.460  12.723  0.00  0.00    -0.650 OA
BRANCH  13  15
HETATM   15  O   UNK N   1      37.257  13.561  12.524  0.00  0.00    -0.776 OA
HETATM   16  H   UNK N   1      37.066  14.478  12.557  0.00  0.00     0.167 HD
ENDBRANCH  13  15
ENDBRANCH  12  13
ENDBRANCH  11  12
ENDBRANCH   6  11
ENDBRANCH   4   6
ENDBRANCH   2   4
BRANCH   2  17
HETATM   17  C   UNK N   1      31.554  15.734   7.526  0.00  0.00     0.080 A 
HETATM   18  C   UNK N   1      31.248  15.385   6.205  0.00  0.00     0.026 A 
HETATM   19  C   UNK N   1      30.230  16.055   5.519  0.00  0.00     0.014 A 
HETATM   20  C   UNK N   1      29.517  17.077   6.152  0.00  0.00    -0.023 A 
HETATM   21  C   UNK N   1      28.531  17.781   5.458  0.00  0.00     0.049 A 
HETATM   22  C   UNK N   1      29.821  17.423   7.488  0.00  0.00    -0.024 A 
HETATM   23  C   UNK N   1      27.857  18.842   6.075  0.00  0.00     0.069 A 
HETATM   24  C   UNK N   1      28.148  19.165   7.415  0.00  0.00     0.037 A 
HETATM   25  C   UNK N   1      29.121  18.451   8.119  0.00  0.00     0.015 A 
HETATM   26  C   UNK N   1      30.838  16.751   8.164  0.00  0.00     0.037 A 
BRANCH  23  27
HETATM   27  O   UNK N   1      26.986  19.576   5.345  0.00  0.00    -0.351 OA
BRANCH  27  28
HETATM   28  C   UNK N   1      26.884  19.449   3.978  0.00  0.00     0.175 C 
BRANCH  28  29
HETATM   29  C   UNK N   1      26.284  20.693   3.369  0.00  0.00     0.026 C 
BRANCH  29  30
HETATM   30  C   UNK N   1      25.183  20.284   2.416  0.00  0.00    -0.002 C 
HETATM   31  C   UNK N   1      23.842  20.468   3.088  0.00  0.00     0.005 C 
ENDBRANCH  29  30
ENDBRANCH  28  29
ENDBRANCH  27  28
ENDBRANCH  23  27
ENDBRANCH   2  17
TORSDOF 13
ENDMDL
MODEL 5
REMARK VINA RESULT:      -6.6      4.649     11.412
REMARK  13 active torsions:
REMARK  status: ('A' for Active; 'I' for Inactive)
REMARK    1  A    between atoms: S_2  and  N_4 
REMARK    2  A    between atoms: S_2  and  C_14 
REMARK    3  A    between atoms: C_5  and  N_4 
REMARK    4  A    between atoms: C_5  and  C_6 
REMARK    5  A    between atoms: C_5  and  C_9 
REMARK    6  A    between atoms: C_6  and  O_7 
REMARK    7  A    between atoms: C_9  and  C_10 
REMARK    8  A    between atoms: C_10  and  C_11 
REMARK    9  A    between atoms: C_11  and  O_12 
REMARK   10  A    between atoms: C_19  and  O_24 
REMARK   11  A    between atoms: O_24  and  C_25 
REMARK   12  A    between atoms: C_25  and  C_26 
REMARK   13  A    between atoms: C_26  and  C_27 
ROOT
HETATM    1  O   UNK N   1      36.314  16.474  10.962  0.00  0.00    -0.201 OA
HETATM    2  S   UNK N   1      35.503  15.169  10.936  0.00  0.00     0.259 S 
HETATM    3  O   UNK N   1      36.202  14.400   9.805  0.00  0.00    -0.201 OA
ENDROOT
BRANCH   2   4
HETATM    4  N   UNK N   1      33.897  15.534  10.249  0.00  0.00    -0.300 N 
HETATM    5  H   UNK N   1      33.144  15.929  10.814  0.00  0.00     0.173 HD
BRANCH   4   6
HETATM    6  C   UNK N   1      33.721  15.230   8.820  0.00  0.00     0.191 C 
BRANCH   6   7
HETATM    7  C   UNK N   1      33.130  13.859   8.588  0.00  0.00     0.164 C 
HETATM    8  O   UNK N   1      32.113  13.724   7.926  0.00  0.00    -0.648 OA
BRANCH   7   9
HETATM    9  O   UNK N   1      33.751  12.770   9.079  0.00  0.00    -0.775 OA
HETATM   10  H   UNK N   1      33.853  12.557   9.986  0.00  0.00     0.167 HD
ENDBRANCH   7   9
ENDBRANCH   6   7
BRANCH   6  11
HETATM   11  C   UNK N   1      32.919  16.328   8.114  0.00  0.00     0.047 C 
BRANCH  11  12
HETATM   12  C   UNK N   1      33.248  17.726   8.629  0.00  0.00     0.112 C 
BRANCH  12  13
HETATM   13  C   UNK N   1      34.407  18.308   7.891  0.00  0.00     0.139 C 
HETATM   14  O   UNK N   1      34.607  18.007   6.726  0.00  0.00    -0.650 OA
BRANCH  13  15
HETATM   15  O   UNK N   1      35.245  19.153   8.519  0.00  0.00    -0.776 OA
HETATM   16  H   UNK N   1      35.402  20.046   8.286  0.00  0.00     0.167 HD
ENDBRANCH  13  15
ENDBRANCH  12  13
ENDBRANCH  11  12
ENDBRANCH   6  11
ENDBRANCH   4   6
ENDBRANCH   2   4
BRANCH   2  17
HETATM   17  C   UNK N   1      35.581  14.233  12.458  0.00  0.00     0.080 A 
HETATM   18  C   UNK N   1      36.398  14.672  13.507  0.00  0.00     0.026 A 
HETATM   19  C   UNK N   1      36.475  13.936  14.693  0.00  0.00     0.014 A 
HETATM   20  C   UNK N   1      35.736  12.758  14.833  0.00  0.00    -0.023 A 
HETATM   21  C   UNK N   1      35.844  11.994  15.996  0.00  0.00     0.049 A 
HETATM   22  C   UNK N   1      34.906  12.320  13.777  0.00  0.00    -0.024 A 
HETATM   23  C   UNK N   1      35.147  10.785  16.112  0.00  0.00     0.069 A 
HETATM   24  C   UNK N   1      34.302  10.367  15.065  0.00  0.00     0.037 A 
HETATM   25  C   UNK N   1      34.178  11.137  13.907  0.00  0.00     0.015 A 
HETATM   26  C   UNK N   1      34.836  13.059  12.597  0.00  0.00     0.037 A 
BRANCH  23  27
HETATM   27  O   UNK N   1      35.355  10.012  17.203  0.00  0.00    -0.351 OA
BRANCH  27  28
HETATM   28  C   UNK N   1      35.169  10.484  18.483  0.00  0.00     0.175 C 
BRANCH  28  29
HETATM   29  C   UNK N   1      36.410  10.272  19.316  0.00  0.00     0.026 C 
BRANCH  29  30
HETATM   30  C   UNK N   1      36.025  10.317  20.779  0.00  0.00    -0.002 C 
HETATM   31  C   UNK N   1      34.520  10.268  20.905  0.00  0.00     0.005 C 
ENDBRANCH  29  30
ENDBRANCH  28  29
ENDBRANCH  27  28
ENDBRANCH  23  27
ENDBRANCH   2  17
TORSDOF 13
ENDMDL
MODEL 6
REMARK VINA RESULT:      -6.5      5.048     11.848
REMARK  13 active torsions:
REMARK  status: ('A' for Active; 'I' for Inactive)
REMARK    1  A    between atoms: S_2  and  N_4 
REMARK    2  A    between atoms: S_2  and  C_14 
REMARK    3  A    between atoms: C_5  and  N_4 
REMARK    4  A    between atoms: C_5  and  C_6 
REMARK    5  A    between atoms: C_5  and  C_9 
REMARK    6  A    between atoms: C_6  and  O_7 
REMARK    7  A    between atoms: C_9  and  C_10 
REMARK    8  A    between atoms: C_10  and  C_11 
REMARK    9  A    between atoms: C_11  and  O_12 
REMARK   10  A    between atoms: C_19  and  O_24 
REMARK   11  A    between atoms: O_24  and  C_25 
REMARK   12  A    between atoms: C_25  and  C_26 
REMARK   13  A    between atoms: C_26  and  C_27 
ROOT
HETATM    1  O   UNK N   1      36.039  15.513  12.231  0.00  0.00    -0.201 OA
HETATM    2  S   UNK N   1      35.205  14.292  11.812  0.00  0.00     0.259 S 
HETATM    3  O   UNK N   1      36.036  13.747  10.639  0.00  0.00    -0.201 OA
ENDROOT
BRANCH   2   4
HETATM    4  N   UNK N   1      33.722  14.886  11.018  0.00  0.00    -0.300 N 
HETATM    5  H   UNK N   1      32.919  15.219  11.553  0.00  0.00     0.173 HD
BRANCH   4   6
HETATM    6  C   UNK N   1      33.723  14.866   9.547  0.00  0.00     0.191 C 
BRANCH   6   7
HETATM    7  C   UNK N   1      33.064  13.628   8.984  0.00  0.00     0.164 C 
HETATM    8  O   UNK N   1      32.279  13.710   8.052  0.00  0.00    -0.648 OA
BRANCH   7   9
HETATM    9  O   UNK N   1      33.375  12.418   9.484  0.00  0.00    -0.775 OA
HETATM   10  H   UNK N   1      33.077  11.593   9.154  0.00  0.00     0.167 HD
ENDBRANCH   7   9
ENDBRANCH   6   7
BRANCH   6  11
HETATM   11  C   UNK N   1      33.116  16.151   8.974  0.00  0.00     0.047 C 
BRANCH  11  12
HETATM   12  C   UNK N   1      34.086  16.917   8.080  0.00  0.00     0.112 C 
BRANCH  12  13
HETATM   13  C   UNK N   1      34.883  17.897   8.874  0.00  0.00     0.139 C 
HETATM   14  O   UNK N   1      35.132  19.001   8.416  0.00  0.00    -0.650 OA
BRANCH  13  15
HETATM   15  O   UNK N   1      35.345  17.557  10.091  0.00  0.00    -0.776 OA
HETATM   16  H   UNK N   1      35.435  18.130  10.826  0.00  0.00     0.167 HD
ENDBRANCH  13  15
ENDBRANCH  12  13
ENDBRANCH  11  12
ENDBRANCH   6  11
ENDBRANCH   4   6
ENDBRANCH   2   4
BRANCH   2  17
HETATM   17  C   UNK N   1      35.046  13.047  13.085  0.00  0.00     0.080 A 
HETATM   18  C   UNK N   1      34.614  11.758  12.752  0.00  0.00     0.026 A 
HETATM   19  C   UNK N   1      34.472  10.785  13.746  0.00  0.00     0.014 A 
HETATM   20  C   UNK N   1      34.761  11.099  15.076  0.00  0.00    -0.023 A 
HETATM   21  C   UNK N   1      34.578  10.146  16.080  0.00  0.00     0.049 A 
HETATM   22  C   UNK N   1      35.204  12.398  15.411  0.00  0.00    -0.024 A 
HETATM   23  C   UNK N   1      34.814  10.480  17.419  0.00  0.00     0.069 A 
HETATM   24  C   UNK N   1      35.279  11.769  17.743  0.00  0.00     0.037 A 
HETATM   25  C   UNK N   1      35.480  12.720  16.740  0.00  0.00     0.015 A 
HETATM   26  C   UNK N   1      35.342  13.363  14.414  0.00  0.00     0.037 A 
BRANCH  23  27
HETATM   27  O   UNK N   1      34.523   9.572  18.380  0.00  0.00    -0.351 OA
BRANCH  27  28
HETATM   28  C   UNK N   1      34.781   9.805  19.712  0.00  0.00     0.175 C 
BRANCH  28  29
HETATM   29  C   UNK N   1      33.578   9.460  20.557  0.00  0.00     0.026 C 
BRANCH  29  30
HETATM   30  C   UNK N   1      33.268  10.632  21.461  0.00  0.00    -0.002 C 
HETATM   31  C   UNK N   1      32.813  10.121  22.809  0.00  0.00     0.005 C 
ENDBRANCH  29  30
ENDBRANCH  28  29
ENDBRANCH  27  28
ENDBRANCH  23  27
ENDBRANCH   2  17
TORSDOF 13
ENDMDL
MODEL 7
REMARK VINA RESULT:      -6.4      9.385     13.224
REMARK  13 active torsions:
REMARK  status: ('A' for Active; 'I' for Inactive)
REMARK    1  A    between atoms: S_2  and  N_4 
REMARK    2  A    between atoms: S_2  and  C_14 
REMARK    3  A    between atoms: C_5  and  N_4 
REMARK    4  A    between atoms: C_5  and  C_6 
REMARK    5  A    between atoms: C_5  and  C_9 
REMARK    6  A    between atoms: C_6  and  O_7 
REMARK    7  A    between atoms: C_9  and  C_10 
REMARK    8  A    between atoms: C_10  and  C_11 
REMARK    9  A    between atoms: C_11  and  O_12 
REMARK   10  A    between atoms: C_19  and  O_24 
REMARK   11  A    between atoms: O_24  and  C_25 
REMARK   12  A    between atoms: C_25  and  C_26 
REMARK   13  A    between atoms: C_26  and  C_27 
ROOT
HETATM    1  O   UNK N   1      34.889  13.720  13.556  0.00  0.00    -0.201 OA
HETATM    2  S   UNK N   1      36.122  13.443  14.430  0.00  0.00     0.259 S 
HETATM    3  O   UNK N   1      36.787  14.827  14.463  0.00  0.00    -0.201 OA
ENDROOT
BRANCH   2   4
HETATM    4  N   UNK N   1      37.266  12.463  13.473  0.00  0.00    -0.300 N 
HETATM    5  H   UNK N   1      38.226  12.302  13.779  0.00  0.00     0.173 HD
BRANCH   4   6
HETATM    6  C   UNK N   1      36.744  11.904  12.216  0.00  0.00     0.191 C 
BRANCH   6   7
HETATM    7  C   UNK N   1      37.495  12.403  11.004  0.00  0.00     0.164 C 
HETATM    8  O   UNK N   1      37.332  11.880   9.913  0.00  0.00    -0.648 OA
BRANCH   7   9
HETATM    9  O   UNK N   1      38.322  13.459  11.116  0.00  0.00    -0.775 OA
HETATM   10  H   UNK N   1      38.339  14.071  11.826  0.00  0.00     0.167 HD
ENDBRANCH   7   9
ENDBRANCH   6   7
BRANCH   6  11
HETATM   11  C   UNK N   1      36.690  10.374  12.270  0.00  0.00     0.047 C 
BRANCH  11  12
HETATM   12  C   UNK N   1      35.614   9.851  13.217  0.00  0.00     0.112 C 
BRANCH  12  13
HETATM   13  C   UNK N   1      34.256  10.281  12.771  0.00  0.00     0.139 C 
HETATM   14  O   UNK N   1      33.855   9.989  11.656  0.00  0.00    -0.650 OA
BRANCH  13  15
HETATM   15  O   UNK N   1      33.480  11.009  13.593  0.00  0.00    -0.776 OA
HETATM   16  H   UNK N   1      33.777  11.658  14.199  0.00  0.00     0.167 HD
ENDBRANCH  13  15
ENDBRANCH  12  13
ENDBRANCH  11  12
ENDBRANCH   6  11
ENDBRANCH   4   6
ENDBRANCH   2   4
BRANCH   2  17
HETATM   17  C   UNK N   1      35.731  12.908  16.091  0.00  0.00     0.080 A 
HETATM   18  C   UNK N   1      35.556  13.855  17.108  0.00  0.00     0.026 A 
HETATM   19  C   UNK N   1      35.266  13.442  18.412  0.00  0.00     0.014 A 
HETATM   20  C   UNK N   1      35.150  12.079  18.702  0.00  0.00    -0.023 A 
HETATM   21  C   UNK N   1      34.906  11.658  20.011  0.00  0.00     0.049 A 
HETATM   22  C   UNK N   1      35.319  11.125  17.675  0.00  0.00    -0.024 A 
HETATM   23  C   UNK N   1      34.847  10.292  20.311  0.00  0.00     0.069 A 
HETATM   24  C   UNK N   1      34.992   9.346  19.277  0.00  0.00     0.037 A 
HETATM   25  C   UNK N   1      35.219   9.764  17.964  0.00  0.00     0.015 A 
HETATM   26  C   UNK N   1      35.610  11.545  16.378  0.00  0.00     0.037 A 
BRANCH  23  27
HETATM   27  O   UNK N   1      34.719   9.911  21.603  0.00  0.00    -0.351 OA
BRANCH  27  28
HETATM   28  C   UNK N   1      33.693   9.099  22.031  0.00  0.00     0.175 C 
BRANCH  28  29
HETATM   29  C   UNK N   1      32.356   9.761  21.800  0.00  0.00     0.026 C 
BRANCH  29  30
HETATM   30  C   UNK N   1      31.559   8.919  20.829  0.00  0.00    -0.002 C 
HETATM   31  C   UNK N   1      32.106   7.510  20.819  0.00  0.00     0.005 C 
ENDBRANCH  29  30
ENDBRANCH  28  29
ENDBRANCH  27  28
ENDBRANCH  23  27
ENDBRANCH   2  17
TORSDOF 13
ENDMDL
MODEL 8
REMARK VINA RESULT:      -6.4      2.843      9.546
REMARK  13 active torsions:
REMARK  status: ('A' for Active; 'I' for Inactive)
REMARK    1  A    between atoms: S_2  and  N_4 
REMARK    2  A    between atoms: S_2  and  C_14 
REMARK    3  A    between atoms: C_5  and  N_4 
REMARK    4  A    between atoms: C_5  and  C_6 
REMARK    5  A    between atoms: C_5  and  C_9 
REMARK    6  A    between atoms: C_6  and  O_7 
REMARK    7  A    between atoms: C_9  and  C_10 
REMARK    8  A    between atoms: C_10  and  C_11 
REMARK    9  A    between atoms: C_11  and  O_12 
REMARK   10  A    between atoms: C_19  and  O_24 
REMARK   11  A    between atoms: O_24  and  C_25 
REMARK   12  A    between atoms: C_25  and  C_26 
REMARK   13  A    between atoms: C_26  and  C_27 
ROOT
HETATM    1  O   UNK N   1      34.532  17.954   6.941  0.00  0.00    -0.201 OA
HETATM    2  S   UNK N   1      34.266  16.444   7.033  0.00  0.00     0.259 S 
HETATM    3  O   UNK N   1      35.302  15.893   6.041  0.00  0.00    -0.201 OA
ENDROOT
BRANCH   2   4
HETATM    4  N   UNK N   1      32.710  16.108   6.226  0.00  0.00    -0.300 N 
HETATM    5  H   UNK N   1      32.516  15.212   5.779  0.00  0.00     0.173 HD
BRANCH   4   6
HETATM    6  C   UNK N   1      31.725  17.201   6.241  0.00  0.00     0.191 C 
BRANCH   6   7
HETATM    7  C   UNK N   1      31.003  17.348   4.923  0.00  0.00     0.164 C 
HETATM    8  O   UNK N   1      29.883  16.885   4.772  0.00  0.00    -0.648 OA
BRANCH   7   9
HETATM    9  O   UNK N   1      31.578  18.032   3.916  0.00  0.00    -0.775 OA
HETATM   10  H   UNK N   1      32.240  18.690   4.006  0.00  0.00     0.167 HD
ENDBRANCH   7   9
ENDBRANCH   6   7
BRANCH   6  11
HETATM   11  C   UNK N   1      30.753  17.055   7.416  0.00  0.00     0.047 C 
BRANCH  11  12
HETATM   12  C   UNK N   1      30.997  18.081   8.519  0.00  0.00     0.112 C 
BRANCH  12  13
HETATM   13  C   UNK N   1      29.732  18.392   9.248  0.00  0.00     0.139 C 
HETATM   14  O   UNK N   1      28.657  18.308   8.675  0.00  0.00    -0.650 OA
BRANCH  13  15
HETATM   15  O   UNK N   1      29.778  18.784  10.533  0.00  0.00    -0.776 OA
HETATM   16  H   UNK N   1      29.422  19.578  10.880  0.00  0.00     0.167 HD
ENDBRANCH  13  15
ENDBRANCH  12  13
ENDBRANCH  11  12
ENDBRANCH   6  11
ENDBRANCH   4   6
ENDBRANCH   2   4
BRANCH   2  17
HETATM   17  C   UNK N   1      34.543  15.754   8.660  0.00  0.00     0.080 A 
HETATM   18  C   UNK N   1      34.834  16.601   9.737  0.00  0.00     0.026 A 
HETATM   19  C   UNK N   1      35.067  16.066  11.008  0.00  0.00     0.014 A 
HETATM   20  C   UNK N   1      35.010  14.683  11.204  0.00  0.00    -0.023 A 
HETATM   21  C   UNK N   1      35.287  14.139  12.460  0.00  0.00     0.049 A 
HETATM   22  C   UNK N   1      34.709  13.831  10.119  0.00  0.00    -0.024 A 
HETATM   23  C   UNK N   1      35.285  12.751  12.643  0.00  0.00     0.069 A 
HETATM   24  C   UNK N   1      34.960  11.909  11.562  0.00  0.00     0.037 A 
HETATM   25  C   UNK N   1      34.665  12.450  10.308  0.00  0.00     0.015 A 
HETATM   26  C   UNK N   1      34.479  14.372   8.854  0.00  0.00     0.037 A 
BRANCH  23  27
HETATM   27  O   UNK N   1      35.663  12.249  13.841  0.00  0.00    -0.351 OA
BRANCH  27  28
HETATM   28  C   UNK N   1      34.899  12.402  14.976  0.00  0.00     0.175 C 
BRANCH  28  29
HETATM   29  C   UNK N   1      35.760  12.799  16.150  0.00  0.00     0.026 C 
BRANCH  29  30
HETATM   30  C   UNK N   1      34.873  13.384  17.227  0.00  0.00    -0.002 C 
HETATM   31  C   UNK N   1      35.230  12.769  18.561  0.00  0.00     0.005 C 
ENDBRANCH  29  30
ENDBRANCH  28  29
ENDBRANCH  27  28
ENDBRANCH  23  27
ENDBRANCH   2  17
TORSDOF 13
ENDMDL
MODEL 9
REMARK VINA RESULT:      -6.3      3.079      5.020
REMARK  13 active torsions:
REMARK  status: ('A' for Active; 'I' for Inactive)
REMARK    1  A    between atoms: S_2  and  N_4 
REMARK    2  A    between atoms: S_2  and  C_14 
REMARK    3  A    between atoms: C_5  and  N_4 
REMARK    4  A    between atoms: C_5  and  C_6 
REMARK    5  A    between atoms: C_5  and  C_9 
REMARK    6  A    between atoms: C_6  and  O_7 
REMARK    7  A    between atoms: C_9  and  C_10 
REMARK    8  A    between atoms: C_10  and  C_11 
REMARK    9  A    between atoms: C_11  and  O_12 
REMARK   10  A    between atoms: C_19  and  O_24 
REMARK   11  A    between atoms: O_24  and  C_25 
REMARK   12  A    between atoms: C_25  and  C_26 
REMARK   13  A    between atoms: C_26  and  C_27 
ROOT
HETATM    1  O   UNK N   1      30.180  19.041   9.089  0.00  0.00    -0.201 OA
HETATM    2  S   UNK N   1      29.284  18.059   8.318  0.00  0.00     0.259 S 
HETATM    3  O   UNK N   1      28.444  17.458   9.456  0.00  0.00    -0.201 OA
ENDROOT
BRANCH   2   4
HETATM    4  N   UNK N   1      30.297  16.688   7.792  0.00  0.00    -0.300 N 
HETATM    5  H   UNK N   1      29.936  15.952   7.183  0.00  0.00     0.173 HD
BRANCH   4   6
HETATM    6  C   UNK N   1      31.681  16.678   8.288  0.00  0.00     0.191 C 
BRANCH   6   7
HETATM    7  C   UNK N   1      32.085  15.337   8.854  0.00  0.00     0.164 C 
HETATM    8  O   UNK N   1      32.091  14.340   8.148  0.00  0.00    -0.648 OA
BRANCH   7   9
HETATM    9  O   UNK N   1      32.483  15.243  10.136  0.00  0.00    -0.775 OA
HETATM   10  H   UNK N   1      32.160  15.756  10.851  0.00  0.00     0.167 HD
ENDBRANCH   7   9
ENDBRANCH   6   7
BRANCH   6  11
HETATM   11  C   UNK N   1      32.659  17.167   7.215  0.00  0.00     0.047 C 
BRANCH  11  12
HETATM   12  C   UNK N   1      34.118  16.914   7.581  0.00  0.00     0.112 C 
BRANCH  12  13
HETATM   13  C   UNK N   1      34.573  17.859   8.644  0.00  0.00     0.139 C 
HETATM   14  O   UNK N   1      34.943  18.983   8.347  0.00  0.00    -0.650 OA
BRANCH  13  15
HETATM   15  O   UNK N   1      34.593  17.463   9.929  0.00  0.00    -0.776 OA
HETATM   16  H   UNK N   1      34.692  16.582  10.232  0.00  0.00     0.167 HD
ENDBRANCH  13  15
ENDBRANCH  12  13
ENDBRANCH  11  12
ENDBRANCH   6  11
ENDBRANCH   4   6
ENDBRANCH   2   4
BRANCH   2  17
HETATM   17  C   UNK N   1      28.219  18.839   7.112  0.00  0.00     0.080 A 
HETATM   18  C   UNK N   1      27.828  20.173   7.284  0.00  0.00     0.026 A 
HETATM   19  C   UNK N   1      26.983  20.783   6.352  0.00  0.00     0.014 A 
HETATM   20  C   UNK N   1      26.527  20.061   5.246  0.00  0.00    -0.023 A 
HETATM   21  C   UNK N   1      25.646  20.650   4.336  0.00  0.00     0.049 A 
HETATM   22  C   UNK N   1      26.928  18.718   5.069  0.00  0.00    -0.024 A 
HETATM   23  C   UNK N   1      25.145  19.908   3.260  0.00  0.00     0.069 A 
HETATM   24  C   UNK N   1      25.570  18.578   3.076  0.00  0.00     0.037 A 
HETATM   25  C   UNK N   1      26.464  17.990   3.973  0.00  0.00     0.015 A 
HETATM   26  C   UNK N   1      27.770  18.117   6.003  0.00  0.00     0.037 A 
BRANCH  23  27
HETATM   27  O   UNK N   1      24.211  20.469   2.458  0.00  0.00    -0.351 OA
BRANCH  27  28
HETATM   28  C   UNK N   1      22.920  20.693   2.880  0.00  0.00     0.175 C 
BRANCH  28  29
HETATM   29  C   UNK N   1      22.314  19.429   3.441  0.00  0.00     0.026 C 
BRANCH  29  30
HETATM   30  C   UNK N   1      21.047  19.117   2.675  0.00  0.00    -0.002 C 
HETATM   31  C   UNK N   1      20.678  20.301   1.810  0.00  0.00     0.005 C 
ENDBRANCH  29  30
ENDBRANCH  28  29
ENDBRANCH  27  28
ENDBRANCH  23  27
ENDBRANCH   2  17
TORSDOF 13
ENDMDL
