MODEL 1
REMARK VINA RESULT:      -6.5      0.000      0.000
REMARK  14 active torsions:
REMARK  status: ('A' for Active; 'I' for Inactive)
REMARK    1  A    between atoms: S_2  and  N_4 
REMARK    2  A    between atoms: S_2  and  C_14 
REMARK    3  A    between atoms: C_5  and  N_4 
REMARK    4  A    between atoms: C_5  and  C_6 
REMARK    5  A    between atoms: C_5  and  C_9 
REMARK    6  A    between atoms: C_6  and  O_7 
REMARK    7  A    between atoms: C_9  and  C_10 
REMARK    8  A    between atoms: C_10  and  C_11 
REMARK    9  A    between atoms: C_11  and  O_13 
REMARK   10  A    between atoms: C_19  and  O_24 
REMARK   11  A    between atoms: O_24  and  C_25 
REMARK   12  A    between atoms: C_25  and  C_26 
REMARK   13  A    between atoms: C_26  and  C_27 
REMARK   14  A    between atoms: C_27  and  C_28 
ROOT
HETATM    1  C   UNK N   1      32.301  17.657   7.874  0.00  0.00     0.080 A 
HETATM    2  C   UNK N   1      31.302  18.026   8.788  0.00  0.00     0.026 A 
HETATM    3  C   UNK N   1      29.952  18.001   8.396  0.00  0.00     0.014 A 
HETATM    4  C   UNK N   1      29.610  17.614   7.091  0.00  0.00    -0.023 A 
HETATM    5  C   UNK N   1      28.278  17.612   6.664  0.00  0.00     0.049 A 
HETATM    6  C   UNK N   1      27.959  17.221   5.346  0.00  0.00     0.069 A 
HETATM    7  C   UNK N   1      28.980  16.835   4.474  0.00  0.00     0.037 A 
HETATM    8  C   UNK N   1      30.309  16.846   4.892  0.00  0.00     0.015 A 
HETATM    9  C   UNK N   1      30.626  17.235   6.191  0.00  0.00    -0.024 A 
HETATM   10  C   UNK N   1      31.952  17.261   6.591  0.00  0.00     0.037 A 
ENDROOT
BRANCH   1  11
HETATM   11  S   UNK N   1      34.037  17.752   8.283  0.00  0.00     0.259 S 
HETATM   12  O   UNK N   1      34.634  19.167   8.235  0.00  0.00    -0.201 OA
HETATM   13  O   UNK N   1      34.895  17.015   7.245  0.00  0.00    -0.201 OA
BRANCH  11  14
HETATM   14  N   UNK N   1      34.522  17.006   9.831  0.00  0.00    -0.300 N 
HETATM   15  H   UNK N   1      34.578  17.533  10.704  0.00  0.00     0.173 HD
BRANCH  14  16
HETATM   16  C   UNK N   1      34.835  15.574   9.747  0.00  0.00     0.191 C 
BRANCH  16  17
HETATM   17  C   UNK N   1      36.037  15.237  10.609  0.00  0.00     0.164 C 
HETATM   18  O   UNK N   1      36.145  14.130  11.100  0.00  0.00    -0.648 OA
BRANCH  17  19
HETATM   19  O   UNK N   1      36.982  16.163  10.871  0.00  0.00    -0.775 OA
HETATM   20  H   UNK N   1      37.216  16.881  10.316  0.00  0.00     0.167 HD
ENDBRANCH  17  19
ENDBRANCH  16  17
BRANCH  16  21
HETATM   21  C   UNK N   1      33.594  14.817  10.211  0.00  0.00     0.047 C 
BRANCH  21  22
HETATM   22  C   UNK N   1      32.761  14.324   9.036  0.00  0.00     0.112 C 
BRANCH  22  23
HETATM   23  C   UNK N   1      33.640  13.663   8.033  0.00  0.00     0.139 C 
HETATM   24  O   UNK N   1      34.192  12.610   8.308  0.00  0.00    -0.650 OA
BRANCH  23  25
HETATM   25  O   UNK N   1      33.839  14.232   6.829  0.00  0.00    -0.776 OA
HETATM   26  H   UNK N   1      34.062  15.141   6.771  0.00  0.00     0.167 HD
ENDBRANCH  23  25
ENDBRANCH  22  23
ENDBRANCH  21  22
ENDBRANCH  16  21
ENDBRANCH  14  16
ENDBRANCH  11  14
ENDBRANCH   1  11
BRANCH   6  27
HETATM   27  O   UNK N   1      26.685  17.222   4.882  0.00  0.00    -0.351 OA
BRANCH  27  28
HETATM   28  C   UNK N   1      26.293  17.757   3.673  0.00  0.00     0.175 C 
BRANCH  28  29
HETATM   29  C   UNK N   1      25.467  19.014   3.860  0.00  0.00     0.027 C 
BRANCH  29  30
HETATM   30  C   UNK N   1      26.412  20.175   4.074  0.00  0.00     0.002 C 
BRANCH  30  31
HETATM   31  C   UNK N   1      26.248  20.729   5.470  0.00  0.00    -0.004 C 
HETATM   32  C   UNK N   1      27.609  21.134   5.996  0.00  0.00     0.005 C 
ENDBRANCH  30  31
ENDBRANCH  29  30
ENDBRANCH  28  29
ENDBRANCH  27  28
ENDBRANCH   6  27
TORSDOF 14
ENDMDL
MODEL 2
REMARK VINA RESULT:      -6.5      3.365      9.343
REMARK  14 active torsions:
REMARK  status: ('A' for Active; 'I' for Inactive)
REMARK    1  A    between atoms: S_2  and  N_4 
REMARK    2  A    between atoms: S_2  and  C_14 
REMARK    3  A    between atoms: C_5  and  N_4 
REMARK    4  A    between atoms: C_5  and  C_6 
REMARK    5  A    between atoms: C_5  and  C_9 
REMARK    6  A    between atoms: C_6  and  O_7 
REMARK    7  A    between atoms: C_9  and  C_10 
REMARK    8  A    between atoms: C_10  and  C_11 
REMARK    9  A    between atoms: C_11  and  O_13 
REMARK   10  A    between atoms: C_19  and  O_24 
REMARK   11  A    between atoms: O_24  and  C_25 
REMARK   12  A    between atoms: C_25  and  C_26 
REMARK   13  A    between atoms: C_26  and  C_27 
REMARK   14  A    between atoms: C_27  and  C_28 
ROOT
HETATM    1  C   UNK N   1      35.010  16.559   9.384  0.00  0.00     0.080 A 
HETATM    2  C   UNK N   1      35.328  16.921  10.702  0.00  0.00     0.026 A 
HETATM    3  C   UNK N   1      35.783  15.944  11.604  0.00  0.00     0.014 A 
HETATM    4  C   UNK N   1      35.909  14.611  11.186  0.00  0.00    -0.023 A 
HETATM    5  C   UNK N   1      36.327  13.612  12.072  0.00  0.00     0.049 A 
HETATM    6  C   UNK N   1      36.444  12.277  11.629  0.00  0.00     0.069 A 
HETATM    7  C   UNK N   1      36.142  11.961  10.301  0.00  0.00     0.037 A 
HETATM    8  C   UNK N   1      35.715  12.951   9.418  0.00  0.00     0.015 A 
HETATM    9  C   UNK N   1      35.595  14.268   9.855  0.00  0.00    -0.024 A 
HETATM   10  C   UNK N   1      35.152  15.241   8.975  0.00  0.00     0.037 A 
ENDROOT
BRANCH   1  11
HETATM   11  S   UNK N   1      34.345  17.736   8.216  0.00  0.00     0.259 S 
HETATM   12  O   UNK N   1      34.663  17.434   6.743  0.00  0.00    -0.201 OA
HETATM   13  O   UNK N   1      34.983  19.121   8.396  0.00  0.00    -0.201 OA
BRANCH  11  14
HETATM   14  N   UNK N   1      32.594  18.064   8.340  0.00  0.00    -0.300 N 
HETATM   15  H   UNK N   1      32.216  18.850   8.871  0.00  0.00     0.173 HD
BRANCH  14  16
HETATM   16  C   UNK N   1      31.742  17.112   7.618  0.00  0.00     0.191 C 
BRANCH  16  17
HETATM   17  C   UNK N   1      31.774  15.750   8.285  0.00  0.00     0.164 C 
HETATM   18  O   UNK N   1      31.881  14.743   7.612  0.00  0.00    -0.648 OA
BRANCH  17  19
HETATM   19  O   UNK N   1      31.651  15.632   9.623  0.00  0.00    -0.775 OA
HETATM   20  H   UNK N   1      32.309  15.309  10.208  0.00  0.00     0.167 HD
ENDBRANCH  17  19
ENDBRANCH  16  17
BRANCH  16  21
HETATM   21  C   UNK N   1      30.330  17.690   7.612  0.00  0.00     0.047 C 
BRANCH  21  22
HETATM   22  C   UNK N   1      30.030  18.462   8.890  0.00  0.00     0.112 C 
BRANCH  22  23
HETATM   23  C   UNK N   1      28.885  17.832   9.605  0.00  0.00     0.139 C 
HETATM   24  O   UNK N   1      29.088  16.939  10.410  0.00  0.00    -0.650 OA
BRANCH  23  25
HETATM   25  O   UNK N   1      27.625  18.238   9.353  0.00  0.00    -0.776 OA
HETATM   26  H   UNK N   1      27.025  18.366  10.061  0.00  0.00     0.167 HD
ENDBRANCH  23  25
ENDBRANCH  22  23
ENDBRANCH  21  22
ENDBRANCH  16  21
ENDBRANCH  14  16
ENDBRANCH  11  14
ENDBRANCH   1  11
BRANCH   6  27
HETATM   27  O   UNK N   1      36.826  11.273  12.456  0.00  0.00    -0.351 OA
BRANCH  27  28
HETATM   28  C   UNK N   1      37.683  11.422  13.525  0.00  0.00     0.175 C 
BRANCH  28  29
HETATM   29  C   UNK N   1      37.206  10.646  14.737  0.00  0.00     0.027 C 
BRANCH  29  30
HETATM   30  C   UNK N   1      35.940  11.295  15.247  0.00  0.00     0.002 C 
BRANCH  30  31
HETATM   31  C   UNK N   1      34.811  10.291  15.270  0.00  0.00    -0.004 C 
HETATM   32  C   UNK N   1      33.767  10.708  14.256  0.00  0.00     0.005 C 
ENDBRANCH  30  31
ENDBRANCH  29  30
ENDBRANCH  28  29
ENDBRANCH  27  28
ENDBRANCH   6  27
TORSDOF 14
ENDMDL
MODEL 3
REMARK VINA RESULT:      -6.5      7.457     12.756
REMARK  14 active torsions:
REMARK  status: ('A' for Active; 'I' for Inactive)
REMARK    1  A    between atoms: S_2  and  N_4 
REMARK    2  A    between atoms: S_2  and  C_14 
REMARK    3  A    between atoms: C_5  and  N_4 
REMARK    4  A    between atoms: C_5  and  C_6 
REMARK    5  A    between atoms: C_5  and  C_9 
REMARK    6  A    between atoms: C_6  and  O_7 
REMARK    7  A    between atoms: C_9  and  C_10 
REMARK    8  A    between atoms: C_10  and  C_11 
REMARK    9  A    between atoms: C_11  and  O_13 
REMARK   10  A    between atoms: C_19  and  O_24 
REMARK   11  A    between atoms: O_24  and  C_25 
REMARK   12  A    between atoms: C_25  and  C_26 
REMARK   13  A    between atoms: C_26  and  C_27 
REMARK   14  A    between atoms: C_27  and  C_28 
ROOT
HETATM    1  C   UNK N   1      35.753  12.343  14.894  0.00  0.00     0.080 A 
HETATM    2  C   UNK N   1      35.701  10.944  14.979  0.00  0.00     0.026 A 
HETATM    3  C   UNK N   1      35.510  10.326  16.227  0.00  0.00     0.014 A 
HETATM    4  C   UNK N   1      35.380  11.111  17.382  0.00  0.00    -0.023 A 
HETATM    5  C   UNK N   1      35.222  10.521  18.641  0.00  0.00     0.049 A 
HETATM    6  C   UNK N   1      35.096  11.331  19.791  0.00  0.00     0.069 A 
HETATM    7  C   UNK N   1      35.128  12.723  19.661  0.00  0.00     0.037 A 
HETATM    8  C   UNK N   1      35.295  13.313  18.411  0.00  0.00     0.015 A 
HETATM    9  C   UNK N   1      35.424  12.515  17.277  0.00  0.00    -0.024 A 
HETATM   10  C   UNK N   1      35.609  13.112  16.040  0.00  0.00     0.037 A 
ENDROOT
BRANCH   1  11
HETATM   11  S   UNK N   1      36.081  13.184  13.353  0.00  0.00     0.259 S 
HETATM   12  O   UNK N   1      37.296  12.655  12.575  0.00  0.00    -0.201 OA
HETATM   13  O   UNK N   1      36.476  14.649  13.590  0.00  0.00    -0.201 OA
BRANCH  11  14
HETATM   14  N   UNK N   1      34.711  13.301  12.213  0.00  0.00    -0.300 N 
HETATM   15  H   UNK N   1      33.762  13.527  12.513  0.00  0.00     0.173 HD
BRANCH  14  16
HETATM   16  C   UNK N   1      35.061  13.047  10.810  0.00  0.00     0.191 C 
BRANCH  16  17
HETATM   17  C   UNK N   1      34.390  11.780  10.313  0.00  0.00     0.164 C 
HETATM   18  O   UNK N   1      34.972  10.714  10.382  0.00  0.00    -0.648 OA
BRANCH  17  19
HETATM   19  O   UNK N   1      33.161  11.819   9.759  0.00  0.00    -0.775 OA
HETATM   20  H   UNK N   1      32.423  11.308  10.026  0.00  0.00     0.167 HD
ENDBRANCH  17  19
ENDBRANCH  16  17
BRANCH  16  21
HETATM   21  C   UNK N   1      34.607  14.262  10.008  0.00  0.00     0.047 C 
BRANCH  21  22
HETATM   22  C   UNK N   1      34.467  15.499  10.886  0.00  0.00     0.112 C 
BRANCH  22  23
HETATM   23  C   UNK N   1      35.598  16.433  10.627  0.00  0.00     0.139 C 
HETATM   24  O   UNK N   1      35.383  17.522  10.121  0.00  0.00    -0.650 OA
BRANCH  23  25
HETATM   25  O   UNK N   1      36.858  16.073  10.937  0.00  0.00    -0.776 OA
HETATM   26  H   UNK N   1      37.060  15.173  11.103  0.00  0.00     0.167 HD
ENDBRANCH  23  25
ENDBRANCH  22  23
ENDBRANCH  21  22
ENDBRANCH  16  21
ENDBRANCH  14  16
ENDBRANCH  11  14
ENDBRANCH   1  11
BRANCH   6  27
HETATM   27  O   UNK N   1      34.962  10.805  21.033  0.00  0.00    -0.351 OA
BRANCH  27  28
HETATM   28  C   UNK N   1      34.317   9.621  21.316  0.00  0.00     0.175 C 
BRANCH  28  29
HETATM   29  C   UNK N   1      32.877   9.853  21.730  0.00  0.00     0.027 C 
BRANCH  29  30
HETATM   30  C   UNK N   1      32.103   8.577  21.492  0.00  0.00     0.002 C 
BRANCH  30  31
HETATM   31  C   UNK N   1      31.773   8.432  20.025  0.00  0.00    -0.004 C 
HETATM   32  C   UNK N   1      30.449   7.711  19.892  0.00  0.00     0.005 C 
ENDBRANCH  30  31
ENDBRANCH  29  30
ENDBRANCH  28  29
ENDBRANCH  27  28
ENDBRANCH   6  27
TORSDOF 14
ENDMDL
MODEL 4
REMARK VINA RESULT:      -6.3      1.417      2.381
REMARK  14 active torsions:
REMARK  status: ('A' for Active; 'I' for Inactive)
REMARK    1  A    between atoms: S_2  and  N_4 
REMARK    2  A    between atoms: S_2  and  C_14 
REMARK    3  A    between atoms: C_5  and  N_4 
REMARK    4  A    between atoms: C_5  and  C_6 
REMARK    5  A    between atoms: C_5  and  C_9 
REMARK    6  A    between atoms: C_6  and  O_7 
REMARK    7  A    between atoms: C_9  and  C_10 
REMARK    8  A    between atoms: C_10  and  C_11 
REMARK    9  A    between atoms: C_11  and  O_13 
REMARK   10  A    between atoms: C_19  and  O_24 
REMARK   11  A    between atoms: O_24  and  C_25 
REMARK   12  A    between atoms: C_25  and  C_26 
REMARK   13  A    between atoms: C_26  and  C_27 
REMARK   14  A    between atoms: C_27  and  C_28 
ROOT
HETATM    1  C   UNK N   1      32.413  17.278   6.441  0.00  0.00     0.080 A 
HETATM    2  C   UNK N   1      32.494  17.424   5.048  0.00  0.00     0.026 A 
HETATM    3  C   UNK N   1      31.318  17.438   4.277  0.00  0.00     0.014 A 
HETATM    4  C   UNK N   1      30.071  17.298   4.903  0.00  0.00    -0.023 A 
HETATM    5  C   UNK N   1      28.887  17.275   4.158  0.00  0.00     0.049 A 
HETATM    6  C   UNK N   1      27.643  17.131   4.809  0.00  0.00     0.069 A 
HETATM    7  C   UNK N   1      27.603  17.014   6.202  0.00  0.00     0.037 A 
HETATM    8  C   UNK N   1      28.780  17.025   6.947  0.00  0.00     0.015 A 
HETATM    9  C   UNK N   1      30.008  17.164   6.305  0.00  0.00    -0.024 A 
HETATM   10  C   UNK N   1      31.174  17.155   7.053  0.00  0.00     0.037 A 
ENDROOT
BRANCH   1  11
HETATM   11  S   UNK N   1      33.872  17.164   7.465  0.00  0.00     0.259 S 
HETATM   12  O   UNK N   1      34.720  18.446   7.524  0.00  0.00    -0.201 OA
HETATM   13  O   UNK N   1      34.876  16.152   6.894  0.00  0.00    -0.201 OA
BRANCH  11  14
HETATM   14  N   UNK N   1      33.617  16.600   9.140  0.00  0.00    -0.300 N 
HETATM   15  H   UNK N   1      32.788  16.842   9.683  0.00  0.00     0.173 HD
BRANCH  14  16
HETATM   16  C   UNK N   1      34.697  15.760   9.671  0.00  0.00     0.191 C 
BRANCH  16  17
HETATM   17  C   UNK N   1      35.789  16.616  10.285  0.00  0.00     0.164 C 
HETATM   18  O   UNK N   1      36.721  16.093  10.864  0.00  0.00    -0.648 OA
BRANCH  17  19
HETATM   19  O   UNK N   1      35.727  17.962  10.228  0.00  0.00    -0.775 OA
HETATM   20  H   UNK N   1      35.136  18.505  10.712  0.00  0.00     0.167 HD
ENDBRANCH  17  19
ENDBRANCH  16  17
BRANCH  16  21
HETATM   21  C   UNK N   1      34.073  14.834  10.711  0.00  0.00     0.047 C 
BRANCH  21  22
HETATM   22  C   UNK N   1      34.639  13.423  10.624  0.00  0.00     0.112 C 
BRANCH  22  23
HETATM   23  C   UNK N   1      35.347  13.082  11.889  0.00  0.00     0.139 C 
HETATM   24  O   UNK N   1      34.754  12.498  12.780  0.00  0.00    -0.650 OA
BRANCH  23  25
HETATM   25  O   UNK N   1      36.637  13.431  12.056  0.00  0.00    -0.776 OA
HETATM   26  H   UNK N   1      36.873  14.335  12.125  0.00  0.00     0.167 HD
ENDBRANCH  23  25
ENDBRANCH  22  23
ENDBRANCH  21  22
ENDBRANCH  16  21
ENDBRANCH  14  16
ENDBRANCH  11  14
ENDBRANCH   1  11
BRANCH   6  27
HETATM   27  O   UNK N   1      26.472  17.083   4.127  0.00  0.00    -0.351 OA
BRANCH  27  28
HETATM   28  C   UNK N   1      25.872  18.168   3.525  0.00  0.00     0.175 C 
BRANCH  28  29
HETATM   29  C   UNK N   1      25.707  19.323   4.492  0.00  0.00     0.027 C 
BRANCH  29  30
HETATM   30  C   UNK N   1      26.700  20.401   4.118  0.00  0.00     0.002 C 
BRANCH  30  31
HETATM   31  C   UNK N   1      27.617  20.692   5.282  0.00  0.00    -0.004 C 
HETATM   32  C   UNK N   1      26.800  20.698   6.557  0.00  0.00     0.005 C 
ENDBRANCH  30  31
ENDBRANCH  29  30
ENDBRANCH  28  29
ENDBRANCH  27  28
ENDBRANCH   6  27
TORSDOF 14
ENDMDL
MODEL 5
REMARK VINA RESULT:      -6.2      1.139      2.587
REMARK  14 active torsions:
REMARK  status: ('A' for Active; 'I' for Inactive)
REMARK    1  A    between atoms: S_2  and  N_4 
REMARK    2  A    between atoms: S_2  and  C_14 
REMARK    3  A    between atoms: C_5  and  N_4 
REMARK    4  A    between atoms: C_5  and  C_6 
REMARK    5  A    between atoms: C_5  and  C_9 
REMARK    6  A    between atoms: C_6  and  O_7 
REMARK    7  A    between atoms: C_9  and  C_10 
REMARK    8  A    between atoms: C_10  and  C_11 
REMARK    9  A    between atoms: C_11  and  O_13 
REMARK   10  A    between atoms: C_19  and  O_24 
REMARK   11  A    between atoms: O_24  and  C_25 
REMARK   12  A    between atoms: C_25  and  C_26 
REMARK   13  A    between atoms: C_26  and  C_27 
REMARK   14  A    between atoms: C_27  and  C_28 
ROOT
HETATM    1  C   UNK N   1      32.034  17.306   7.364  0.00  0.00     0.080 A 
HETATM    2  C   UNK N   1      31.102  17.632   8.362  0.00  0.00     0.026 A 
HETATM    3  C   UNK N   1      29.733  17.686   8.050  0.00  0.00     0.014 A 
HETATM    4  C   UNK N   1      29.304  17.423   6.740  0.00  0.00    -0.023 A 
HETATM    5  C   UNK N   1      27.952  17.503   6.393  0.00  0.00     0.049 A 
HETATM    6  C   UNK N   1      27.544  17.236   5.068  0.00  0.00     0.069 A 
HETATM    7  C   UNK N   1      28.499  16.890   4.109  0.00  0.00     0.037 A 
HETATM    8  C   UNK N   1      29.849  16.820   4.447  0.00  0.00     0.015 A 
HETATM    9  C   UNK N   1      30.253  17.087   5.753  0.00  0.00    -0.024 A 
HETATM   10  C   UNK N   1      31.599  17.033   6.076  0.00  0.00     0.037 A 
ENDROOT
BRANCH   1  11
HETATM   11  S   UNK N   1      33.792  17.306   7.677  0.00  0.00     0.259 S 
HETATM   12  O   UNK N   1      34.260  18.328   8.727  0.00  0.00    -0.201 OA
HETATM   13  O   UNK N   1      34.579  17.751   6.436  0.00  0.00    -0.201 OA
BRANCH  11  14
HETATM   14  N   UNK N   1      34.518  15.728   8.089  0.00  0.00    -0.300 N 
HETATM   15  H   UNK N   1      35.370  15.381   7.647  0.00  0.00     0.173 HD
BRANCH  14  16
HETATM   16  C   UNK N   1      33.790  14.969   9.113  0.00  0.00     0.191 C 
BRANCH  16  17
HETATM   17  C   UNK N   1      32.954  13.876   8.476  0.00  0.00     0.164 C 
HETATM   18  O   UNK N   1      32.832  13.826   7.268  0.00  0.00    -0.648 OA
BRANCH  17  19
HETATM   19  O   UNK N   1      32.307  12.968   9.236  0.00  0.00    -0.775 OA
HETATM   20  H   UNK N   1      31.381  12.926   9.371  0.00  0.00     0.167 HD
ENDBRANCH  17  19
ENDBRANCH  16  17
BRANCH  16  21
HETATM   21  C   UNK N   1      34.832  14.385  10.062  0.00  0.00     0.047 C 
BRANCH  21  22
HETATM   22  C   UNK N   1      34.795  15.059  11.427  0.00  0.00     0.112 C 
BRANCH  22  23
HETATM   23  C   UNK N   1      35.542  14.236  12.418  0.00  0.00     0.139 C 
HETATM   24  O   UNK N   1      34.938  13.650  13.301  0.00  0.00    -0.650 OA
BRANCH  23  25
HETATM   25  O   UNK N   1      36.884  14.149  12.350  0.00  0.00    -0.776 OA
HETATM   26  H   UNK N   1      37.334  14.437  11.580  0.00  0.00     0.167 HD
ENDBRANCH  23  25
ENDBRANCH  22  23
ENDBRANCH  21  22
ENDBRANCH  16  21
ENDBRANCH  14  16
ENDBRANCH  11  14
ENDBRANCH   1  11
BRANCH   6  27
HETATM   27  O   UNK N   1      26.247  17.321   4.681  0.00  0.00    -0.351 OA
BRANCH  27  28
HETATM   28  C   UNK N   1      25.493  18.474   4.718  0.00  0.00     0.175 C 
BRANCH  28  29
HETATM   29  C   UNK N   1      25.823  19.395   3.561  0.00  0.00     0.027 C 
BRANCH  29  30
HETATM   30  C   UNK N   1      26.715  20.502   4.075  0.00  0.00     0.002 C 
BRANCH  30  31
HETATM   31  C   UNK N   1      26.359  20.838   5.504  0.00  0.00    -0.004 C 
HETATM   32  C   UNK N   1      27.627  21.190   6.253  0.00  0.00     0.005 C 
ENDBRANCH  30  31
ENDBRANCH  29  30
ENDBRANCH  28  29
ENDBRANCH  27  28
ENDBRANCH   6  27
TORSDOF 14
ENDMDL
MODEL 6
REMARK VINA RESULT:      -6.2      3.347      9.463
REMARK  14 active torsions:
REMARK  status: ('A' for Active; 'I' for Inactive)
REMARK    1  A    between atoms: S_2  and  N_4 
REMARK    2  A    between atoms: S_2  and  C_14 
REMARK    3  A    between atoms: C_5  and  N_4 
REMARK    4  A    between atoms: C_5  and  C_6 
REMARK    5  A    between atoms: C_5  and  C_9 
REMARK    6  A    between atoms: C_6  and  O_7 
REMARK    7  A    between atoms: C_9  and  C_10 
REMARK    8  A    between atoms: C_10  and  C_11 
REMARK    9  A    between atoms: C_11  and  O_13 
REMARK   10  A    between atoms: C_19  and  O_24 
REMARK   11  A    between atoms: O_24  and  C_25 
REMARK   12  A    between atoms: C_25  and  C_26 
REMARK   13  A    between atoms: C_26  and  C_27 
REMARK   14  A    between atoms: C_27  and  C_28 
ROOT
HETATM    1  C   UNK N   1      34.682  16.362   8.925  0.00  0.00     0.080 A 
HETATM    2  C   UNK N   1      34.734  15.082   8.352  0.00  0.00     0.026 A 
HETATM    3  C   UNK N   1      35.147  13.986   9.128  0.00  0.00     0.014 A 
HETATM    4  C   UNK N   1      35.512  14.176  10.469  0.00  0.00    -0.023 A 
HETATM    5  C   UNK N   1      35.959  13.108  11.255  0.00  0.00     0.049 A 
HETATM    6  C   UNK N   1      36.323  13.325  12.601  0.00  0.00     0.069 A 
HETATM    7  C   UNK N   1      36.233  14.610  13.143  0.00  0.00     0.037 A 
HETATM    8  C   UNK N   1      35.799  15.678  12.361  0.00  0.00     0.015 A 
HETATM    9  C   UNK N   1      35.442  15.467  11.031  0.00  0.00    -0.024 A 
HETATM   10  C   UNK N   1      35.030  16.539  10.257  0.00  0.00     0.037 A 
ENDROOT
BRANCH   1  11
HETATM   11  S   UNK N   1      34.250  17.808   7.969  0.00  0.00     0.259 S 
HETATM   12  O   UNK N   1      34.623  17.731   6.480  0.00  0.00    -0.201 OA
HETATM   13  O   UNK N   1      35.047  19.038   8.428  0.00  0.00    -0.201 OA
BRANCH  11  14
HETATM   14  N   UNK N   1      32.551  18.346   8.080  0.00  0.00    -0.300 N 
HETATM   15  H   UNK N   1      32.266  19.311   7.910  0.00  0.00     0.173 HD
BRANCH  14  16
HETATM   16  C   UNK N   1      31.597  17.288   8.435  0.00  0.00     0.191 C 
BRANCH  16  17
HETATM   17  C   UNK N   1      30.295  17.886   8.934  0.00  0.00     0.164 C 
HETATM   18  O   UNK N   1      30.295  18.964   9.497  0.00  0.00    -0.648 OA
BRANCH  17  19
HETATM   19  O   UNK N   1      29.130  17.222   8.794  0.00  0.00    -0.775 OA
HETATM   20  H   UNK N   1      28.511  17.050   9.476  0.00  0.00     0.167 HD
ENDBRANCH  17  19
ENDBRANCH  16  17
BRANCH  16  21
HETATM   21  C   UNK N   1      31.374  16.447   7.182  0.00  0.00     0.047 C 
BRANCH  21  22
HETATM   22  C   UNK N   1      31.233  17.314   5.938  0.00  0.00     0.112 C 
BRANCH  22  23
HETATM   23  C   UNK N   1      29.912  17.067   5.296  0.00  0.00     0.139 C 
HETATM   24  O   UNK N   1      29.032  16.493   5.916  0.00  0.00    -0.650 OA
BRANCH  23  25
HETATM   25  O   UNK N   1      29.692  17.464   4.028  0.00  0.00    -0.776 OA
HETATM   26  H   UNK N   1      30.190  18.170   3.665  0.00  0.00     0.167 HD
ENDBRANCH  23  25
ENDBRANCH  22  23
ENDBRANCH  21  22
ENDBRANCH  16  21
ENDBRANCH  14  16
ENDBRANCH  11  14
ENDBRANCH   1  11
BRANCH   6  27
HETATM   27  O   UNK N   1      36.781  12.325  13.395  0.00  0.00    -0.351 OA
BRANCH  27  28
HETATM   28  C   UNK N   1      36.929  12.417  14.763  0.00  0.00     0.175 C 
BRANCH  28  29
HETATM   29  C   UNK N   1      35.860  11.630  15.494  0.00  0.00     0.027 C 
BRANCH  29  30
HETATM   30  C   UNK N   1      34.780  12.592  15.935  0.00  0.00     0.002 C 
BRANCH  30  31
HETATM   31  C   UNK N   1      35.306  13.506  17.017  0.00  0.00    -0.004 C 
HETATM   32  C   UNK N   1      35.192  12.798  18.351  0.00  0.00     0.005 C 
ENDBRANCH  30  31
ENDBRANCH  29  30
ENDBRANCH  28  29
ENDBRANCH  27  28
ENDBRANCH   6  27
TORSDOF 14
ENDMDL
MODEL 7
REMARK VINA RESULT:      -6.2      8.373     12.848
REMARK  14 active torsions:
REMARK  status: ('A' for Active; 'I' for Inactive)
REMARK    1  A    between atoms: S_2  and  N_4 
REMARK    2  A    between atoms: S_2  and  C_14 
REMARK    3  A    between atoms: C_5  and  N_4 
REMARK    4  A    between atoms: C_5  and  C_6 
REMARK    5  A    between atoms: C_5  and  C_9 
REMARK    6  A    between atoms: C_6  and  O_7 
REMARK    7  A    between atoms: C_9  and  C_10 
REMARK    8  A    between atoms: C_10  and  C_11 
REMARK    9  A    between atoms: C_11  and  O_13 
REMARK   10  A    between atoms: C_19  and  O_24 
REMARK   11  A    between atoms: O_24  and  C_25 
REMARK   12  A    between atoms: C_25  and  C_26 
REMARK   13  A    between atoms: C_26  and  C_27 
REMARK   14  A    between atoms: C_27  and  C_28 
ROOT
HETATM    1  C   UNK N   1      36.022  12.744  15.099  0.00  0.00     0.080 A 
HETATM    2  C   UNK N   1      36.307  11.374  15.000  0.00  0.00     0.026 A 
HETATM    3  C   UNK N   1      36.203  10.555  16.137  0.00  0.00     0.014 A 
HETATM    4  C   UNK N   1      35.824  11.112  17.368  0.00  0.00    -0.023 A 
HETATM    5  C   UNK N   1      35.745  10.326  18.523  0.00  0.00     0.049 A 
HETATM    6  C   UNK N   1      35.364  10.909  19.750  0.00  0.00     0.069 A 
HETATM    7  C   UNK N   1      35.063  12.273  19.802  0.00  0.00     0.037 A 
HETATM    8  C   UNK N   1      35.150  13.061  18.657  0.00  0.00     0.015 A 
HETATM    9  C   UNK N   1      35.531  12.488  17.446  0.00  0.00    -0.024 A 
HETATM   10  C   UNK N   1      35.633  13.284  16.317  0.00  0.00     0.037 A 
ENDROOT
BRANCH   1  11
HETATM   11  S   UNK N   1      36.220  13.852  13.712  0.00  0.00     0.259 S 
HETATM   12  O   UNK N   1      36.599  15.294  14.087  0.00  0.00    -0.201 OA
HETATM   13  O   UNK N   1      34.890  14.062  12.973  0.00  0.00    -0.201 OA
BRANCH  11  14
HETATM   14  N   UNK N   1      37.333  13.312  12.425  0.00  0.00    -0.300 N 
HETATM   15  H   UNK N   1      38.278  12.981  12.616  0.00  0.00     0.173 HD
BRANCH  14  16
HETATM   16  C   UNK N   1      36.777  13.383  11.068  0.00  0.00     0.191 C 
BRANCH  16  17
HETATM   17  C   UNK N   1      37.418  14.513  10.285  0.00  0.00     0.164 C 
HETATM   18  O   UNK N   1      38.127  14.268   9.329  0.00  0.00    -0.648 OA
BRANCH  17  19
HETATM   19  O   UNK N   1      37.240  15.798  10.654  0.00  0.00    -0.775 OA
HETATM   20  H   UNK N   1      37.213  16.536  10.077  0.00  0.00     0.167 HD
ENDBRANCH  17  19
ENDBRANCH  16  17
BRANCH  16  21
HETATM   21  C   UNK N   1      37.040  12.034  10.405  0.00  0.00     0.047 C 
BRANCH  21  22
HETATM   22  C   UNK N   1      36.344  10.897  11.141  0.00  0.00     0.112 C 
BRANCH  22  23
HETATM   23  C   UNK N   1      34.867  11.049  11.028  0.00  0.00     0.139 C 
HETATM   24  O   UNK N   1      34.327  10.948   9.939  0.00  0.00    -0.650 OA
BRANCH  23  25
HETATM   25  O   UNK N   1      34.129  11.313  12.123  0.00  0.00    -0.776 OA
HETATM   26  H   UNK N   1      34.055  10.673  12.803  0.00  0.00     0.167 HD
ENDBRANCH  23  25
ENDBRANCH  22  23
ENDBRANCH  21  22
ENDBRANCH  16  21
ENDBRANCH  14  16
ENDBRANCH  11  14
ENDBRANCH   1  11
BRANCH   6  27
HETATM   27  O   UNK N   1      35.293  10.192  20.899  0.00  0.00    -0.351 OA
BRANCH  27  28
HETATM   28  C   UNK N   1      34.141   9.994  21.629  0.00  0.00     0.175 C 
BRANCH  28  29
HETATM   29  C   UNK N   1      33.074   9.295  20.809  0.00  0.00     0.027 C 
BRANCH  29  30
HETATM   30  C   UNK N   1      32.166   8.543  21.756  0.00  0.00     0.002 C 
BRANCH  30  31
HETATM   31  C   UNK N   1      31.559   7.348  21.057  0.00  0.00    -0.004 C 
HETATM   32  C   UNK N   1      30.516   7.836  20.075  0.00  0.00     0.005 C 
ENDBRANCH  30  31
ENDBRANCH  29  30
ENDBRANCH  28  29
ENDBRANCH  27  28
ENDBRANCH   6  27
TORSDOF 14
ENDMDL
MODEL 8
REMARK VINA RESULT:      -6.1      3.200      9.296
REMARK  14 active torsions:
REMARK  status: ('A' for Active; 'I' for Inactive)
REMARK    1  A    between atoms: S_2  and  N_4 
REMARK    2  A    between atoms: S_2  and  C_14 
REMARK    3  A    between atoms: C_5  and  N_4 
REMARK    4  A    between atoms: C_5  and  C_6 
REMARK    5  A    between atoms: C_5  and  C_9 
REMARK    6  A    between atoms: C_6  and  O_7 
REMARK    7  A    between atoms: C_9  and  C_10 
REMARK    8  A    between atoms: C_10  and  C_11 
REMARK    9  A    between atoms: C_11  and  O_13 
REMARK   10  A    between atoms: C_19  and  O_24 
REMARK   11  A    between atoms: O_24  and  C_25 
REMARK   12  A    between atoms: C_25  and  C_26 
REMARK   13  A    between atoms: C_26  and  C_27 
REMARK   14  A    between atoms: C_27  and  C_28 
ROOT
HETATM    1  C   UNK N   1      34.871  16.031   8.326  0.00  0.00     0.080 A 
HETATM    2  C   UNK N   1      34.794  17.026   9.313  0.00  0.00     0.026 A 
HETATM    3  C   UNK N   1      35.189  16.735  10.631  0.00  0.00     0.014 A 
HETATM    4  C   UNK N   1      35.651  15.451  10.954  0.00  0.00    -0.023 A 
HETATM    5  C   UNK N   1      36.019  15.125  12.264  0.00  0.00     0.049 A 
HETATM    6  C   UNK N   1      36.478  13.825  12.567  0.00  0.00     0.069 A 
HETATM    7  C   UNK N   1      36.565  12.869  11.550  0.00  0.00     0.037 A 
HETATM    8  C   UNK N   1      36.189  13.187  10.247  0.00  0.00     0.015 A 
HETATM    9  C   UNK N   1      35.732  14.468   9.947  0.00  0.00    -0.024 A 
HETATM   10  C   UNK N   1      35.343  14.768   8.653  0.00  0.00     0.037 A 
ENDROOT
BRANCH   1  11
HETATM   11  S   UNK N   1      34.302  16.312   6.657  0.00  0.00     0.259 S 
HETATM   12  O   UNK N   1      35.200  15.715   5.561  0.00  0.00    -0.201 OA
HETATM   13  O   UNK N   1      34.329  17.806   6.303  0.00  0.00    -0.201 OA
BRANCH  11  14
HETATM   14  N   UNK N   1      32.619  15.831   6.307  0.00  0.00    -0.300 N 
HETATM   15  H   UNK N   1      32.369  14.898   5.976  0.00  0.00     0.173 HD
BRANCH  14  16
HETATM   16  C   UNK N   1      31.623  16.886   6.532  0.00  0.00     0.191 C 
BRANCH  16  17
HETATM   17  C   UNK N   1      30.427  16.697   5.618  0.00  0.00     0.164 C 
HETATM   18  O   UNK N   1      30.593  16.468   4.436  0.00  0.00    -0.648 OA
BRANCH  17  19
HETATM   19  O   UNK N   1      29.169  16.815   6.091  0.00  0.00    -0.775 OA
HETATM   20  H   UNK N   1      28.925  16.862   6.994  0.00  0.00     0.167 HD
ENDBRANCH  17  19
ENDBRANCH  16  17
BRANCH  16  21
HETATM   21  C   UNK N   1      31.213  16.808   8.000  0.00  0.00     0.047 C 
BRANCH  21  22
HETATM   22  C   UNK N   1      31.294  18.167   8.682  0.00  0.00     0.112 C 
BRANCH  22  23
HETATM   23  C   UNK N   1      29.946  18.568   9.173  0.00  0.00     0.139 C 
HETATM   24  O   UNK N   1      29.047  18.780   8.376  0.00  0.00    -0.650 OA
BRANCH  23  25
HETATM   25  O   UNK N   1      29.722  18.709  10.493  0.00  0.00    -0.776 OA
HETATM   26  H   UNK N   1      29.346  18.004  10.983  0.00  0.00     0.167 HD
ENDBRANCH  23  25
ENDBRANCH  22  23
ENDBRANCH  21  22
ENDBRANCH  16  21
ENDBRANCH  14  16
ENDBRANCH  11  14
ENDBRANCH   1  11
BRANCH   6  27
HETATM   27  O   UNK N   1      36.827  13.457  13.824  0.00  0.00    -0.351 OA
BRANCH  27  28
HETATM   28  C   UNK N   1      35.968  13.445  14.903  0.00  0.00     0.175 C 
BRANCH  28  29
HETATM   29  C   UNK N   1      35.570  12.034  15.286  0.00  0.00     0.027 C 
BRANCH  29  30
HETATM   30  C   UNK N   1      34.061  11.947  15.277  0.00  0.00     0.002 C 
BRANCH  30  31
HETATM   31  C   UNK N   1      33.617  10.640  14.662  0.00  0.00    -0.004 C 
HETATM   32  C   UNK N   1      34.095  10.589  13.227  0.00  0.00     0.005 C 
ENDBRANCH  30  31
ENDBRANCH  29  30
ENDBRANCH  28  29
ENDBRANCH  27  28
ENDBRANCH   6  27
TORSDOF 14
ENDMDL
MODEL 9
REMARK VINA RESULT:      -6.0      1.909      3.554
REMARK  14 active torsions:
REMARK  status: ('A' for Active; 'I' for Inactive)
REMARK    1  A    between atoms: S_2  and  N_4 
REMARK    2  A    between atoms: S_2  and  C_14 
REMARK    3  A    between atoms: C_5  and  N_4 
REMARK    4  A    between atoms: C_5  and  C_6 
REMARK    5  A    between atoms: C_5  and  C_9 
REMARK    6  A    between atoms: C_6  and  O_7 
REMARK    7  A    between atoms: C_9  and  C_10 
REMARK    8  A    between atoms: C_10  and  C_11 
REMARK    9  A    between atoms: C_11  and  O_13 
REMARK   10  A    between atoms: C_19  and  O_24 
REMARK   11  A    between atoms: O_24  and  C_25 
REMARK   12  A    between atoms: C_25  and  C_26 
REMARK   13  A    between atoms: C_26  and  C_27 
REMARK   14  A    between atoms: C_27  and  C_28 
ROOT
HETATM    1  C   UNK N   1      33.029  14.388   6.912  0.00  0.00     0.080 A 
HETATM    2  C   UNK N   1      33.484  14.662   5.613  0.00  0.00     0.026 A 
HETATM    3  C   UNK N   1      32.784  15.576   4.806  0.00  0.00     0.014 A 
HETATM    4  C   UNK N   1      31.630  16.203   5.300  0.00  0.00    -0.023 A 
HETATM    5  C   UNK N   1      30.896  17.091   4.507  0.00  0.00     0.049 A 
HETATM    6  C   UNK N   1      29.737  17.709   5.024  0.00  0.00     0.069 A 
HETATM    7  C   UNK N   1      29.331  17.430   6.332  0.00  0.00     0.037 A 
HETATM    8  C   UNK N   1      30.053  16.538   7.121  0.00  0.00     0.015 A 
HETATM    9  C   UNK N   1      31.195  15.925   6.611  0.00  0.00    -0.024 A 
HETATM   10  C   UNK N   1      31.896  15.025   7.397  0.00  0.00     0.037 A 
ENDROOT
BRANCH   1  11
HETATM   11  S   UNK N   1      33.823  13.174   7.954  0.00  0.00     0.259 S 
HETATM   12  O   UNK N   1      34.466  11.998   7.199  0.00  0.00    -0.201 OA
HETATM   13  O   UNK N   1      32.802  12.451   8.845  0.00  0.00    -0.201 OA
BRANCH  11  14
HETATM   14  N   UNK N   1      35.024  13.799   9.117  0.00  0.00    -0.300 N 
HETATM   15  H   UNK N   1      35.963  13.410   9.203  0.00  0.00     0.173 HD
BRANCH  14  16
HETATM   16  C   UNK N   1      34.551  14.918   9.941  0.00  0.00     0.191 C 
BRANCH  16  17
HETATM   17  C   UNK N   1      34.957  14.726  11.390  0.00  0.00     0.164 C 
HETATM   18  O   UNK N   1      35.950  15.278  11.823  0.00  0.00    -0.648 OA
BRANCH  17  19
HETATM   19  O   UNK N   1      34.249  13.919  12.206  0.00  0.00    -0.775 OA
HETATM   20  H   UNK N   1      33.430  14.130  12.611  0.00  0.00     0.167 HD
ENDBRANCH  17  19
ENDBRANCH  16  17
BRANCH  16  21
HETATM   21  C   UNK N   1      35.161  16.190   9.361  0.00  0.00     0.047 C 
BRANCH  21  22
HETATM   22  C   UNK N   1      34.107  17.262   9.116  0.00  0.00     0.112 C 
BRANCH  22  23
HETATM   23  C   UNK N   1      34.611  18.250   8.123  0.00  0.00     0.139 C 
HETATM   24  O   UNK N   1      35.242  19.224   8.500  0.00  0.00    -0.650 OA
BRANCH  23  25
HETATM   25  O   UNK N   1      34.361  18.078   6.811  0.00  0.00    -0.776 OA
HETATM   26  H   UNK N   1      34.014  18.786   6.304  0.00  0.00     0.167 HD
ENDBRANCH  23  25
ENDBRANCH  22  23
ENDBRANCH  21  22
ENDBRANCH  16  21
ENDBRANCH  14  16
ENDBRANCH  11  14
ENDBRANCH   1  11
BRANCH   6  27
HETATM   27  O   UNK N   1      28.982  18.560   4.286  0.00  0.00    -0.351 OA
BRANCH  27  28
HETATM   28  C   UNK N   1      27.677  18.899   4.573  0.00  0.00     0.175 C 
BRANCH  28  29
HETATM   29  C   UNK N   1      27.476  20.401   4.571  0.00  0.00     0.027 C 
BRANCH  29  30
HETATM   30  C   UNK N   1      27.528  20.888   6.002  0.00  0.00     0.002 C 
BRANCH  30  31
HETATM   31  C   UNK N   1      26.292  21.694   6.324  0.00  0.00    -0.004 C 
HETATM   32  C   UNK N   1      25.976  21.535   7.796  0.00  0.00     0.005 C 
ENDBRANCH  30  31
ENDBRANCH  29  30
ENDBRANCH  28  29
ENDBRANCH  27  28
ENDBRANCH   6  27
TORSDOF 14
ENDMDL
