REMARK  14 active torsions:
REMARK  status: ('A' for Active; 'I' for Inactive)
REMARK    1  A    between atoms: S_2  and  N_4 
REMARK    2  A    between atoms: S_2  and  C_14 
REMARK    3  A    between atoms: C_5  and  N_4 
REMARK    4  A    between atoms: C_5  and  C_6 
REMARK    5  A    between atoms: C_5  and  C_9 
REMARK    6  A    between atoms: C_6  and  O_7 
REMARK    7  A    between atoms: C_9  and  C_10 
REMARK    8  A    between atoms: C_10  and  C_11 
REMARK    9  A    between atoms: C_11  and  O_13 
REMARK   10  A    between atoms: C_19  and  O_24 
REMARK   11  A    between atoms: O_24  and  C_25 
REMARK   12  A    between atoms: C_25  and  C_26 
REMARK   13  A    between atoms: C_26  and  C_27 
REMARK   14  A    between atoms: C_27  and  C_28 
ROOT
HETATM    1  C   UNK N   1      -0.458   0.033  -0.005  0.00  0.00     0.080 A 
HETATM    2  C   UNK N   1      -1.781  -0.345   0.271  0.00  0.00     0.026 A 
HETATM    3  C   UNK N   1      -2.785   0.635   0.354  0.00  0.00     0.014 A 
HETATM    4  C   UNK N   1      -2.459   1.987   0.169  0.00  0.00    -0.023 A 
HETATM    5  C   UNK N   1      -3.432   2.986   0.279  0.00  0.00     0.049 A 
HETATM    6  C   UNK N   1      -3.080   4.340   0.091  0.00  0.00     0.069 A 
HETATM    7  C   UNK N   1      -1.756   4.674  -0.208  0.00  0.00     0.037 A 
HETATM    8  C   UNK N   1      -0.782   3.683  -0.308  0.00  0.00     0.015 A 
HETATM    9  C   UNK N   1      -1.127   2.347  -0.119  0.00  0.00    -0.024 A 
HETATM   10  C   UNK N   1      -0.148   1.371  -0.202  0.00  0.00     0.037 A 
ENDROOT
BRANCH   1  11
HETATM   11  S   UNK N   1       0.876  -1.154  -0.037  0.00  0.00     0.259 S 
HETATM   12  O   UNK N   1       1.293  -1.618  -1.442  0.00  0.00    -0.201 OA
HETATM   13  O   UNK N   1       0.459  -2.479   0.618  0.00  0.00    -0.201 OA
BRANCH  11  14
HETATM   14  N   UNK N   1       2.357  -0.698   0.850  0.00  0.00    -0.300 N 
HETATM   15  H   UNK N   1       2.470  -0.854   1.852  0.00  0.00     0.173 HD
BRANCH  14  16
HETATM   16  C   UNK N   1       3.399  -0.080   0.021  0.00  0.00     0.191 C 
BRANCH  16  17
HETATM   17  C   UNK N   1       3.413   1.425   0.212  0.00  0.00     0.164 C 
HETATM   18  O   UNK N   1       2.473   2.097  -0.166  0.00  0.00    -0.648 OA
BRANCH  17  19
HETATM   19  O   UNK N   1       4.475   2.042   0.769  0.00  0.00    -0.775 OA
HETATM   20  H   UNK N   1       5.215   1.617   1.157  0.00  0.00     0.167 HD
ENDBRANCH  17  19
ENDBRANCH  16  17
BRANCH  16  21
HETATM   21  C   UNK N   1       4.729  -0.701   0.437  0.00  0.00     0.047 C 
BRANCH  21  22
HETATM   22  C   UNK N   1       5.861  -0.290  -0.495  0.00  0.00     0.112 C 
BRANCH  22  23
HETATM   23  C   UNK N   1       7.121  -0.975  -0.094  0.00  0.00     0.139 C 
HETATM   24  O   UNK N   1       8.097  -0.316   0.224  0.00  0.00    -0.650 OA
BRANCH  23  25
HETATM   25  O   UNK N   1       7.189  -2.320  -0.095  0.00  0.00    -0.776 OA
HETATM   26  H   UNK N   1       6.402  -2.829  -0.095  0.00  0.00     0.167 HD
ENDBRANCH  23  25
ENDBRANCH  22  23
ENDBRANCH  21  22
ENDBRANCH  16  21
ENDBRANCH  14  16
ENDBRANCH  11  14
ENDBRANCH   1  11
BRANCH   6  27
HETATM   27  O   UNK N   1      -3.984   5.344   0.208  0.00  0.00    -0.351 OA
BRANCH  27  28
HETATM   28  C   UNK N   1      -5.269   5.189   0.682  0.00  0.00     0.175 C 
BRANCH  28  29
HETATM   29  C   UNK N   1      -6.188   4.608  -0.374  0.00  0.00     0.027 C 
BRANCH  29  30
HETATM   30  C   UNK N   1      -6.583   3.213   0.056  0.00  0.00     0.002 C 
BRANCH  30  31
HETATM   31  C   UNK N   1      -7.906   2.831  -0.565  0.00  0.00    -0.004 C 
HETATM   32  C   UNK N   1      -8.294   1.452  -0.076  0.00  0.00     0.005 C 
ENDBRANCH  30  31
ENDBRANCH  29  30
ENDBRANCH  28  29
ENDBRANCH  27  28
ENDBRANCH   6  27
TORSDOF 14
