MODEL 1
REMARK VINA RESULT:      -7.3      0.000      0.000
REMARK  12 active torsions:
REMARK  status: ('A' for Active; 'I' for Inactive)
REMARK    1  A    between atoms: C_8  and  C_9 
REMARK    2  A    between atoms: C_9  and  O_10 
REMARK    3  A    between atoms: O_10  and  C_11 
REMARK    4  A    between atoms: C_20  and  S_21 
REMARK    5  A    between atoms: S_21  and  N_24 
REMARK    6  A    between atoms: C_25  and  N_24 
REMARK    7  A    between atoms: C_25  and  C_26 
REMARK    8  A    between atoms: C_25  and  C_29 
REMARK    9  A    between atoms: C_26  and  O_28 
REMARK   10  A    between atoms: C_29  and  C_30 
REMARK   11  A    between atoms: C_30  and  C_31 
REMARK   12  A    between atoms: C_31  and  O_33 
ROOT
HETATM    1  N   UNK N   1      34.663  10.216  20.689  0.00  0.00    -0.191 NA
HETATM    2  C   UNK N   1      34.938  10.830  19.753  0.00  0.00     0.099 C 
HETATM    3  C   UNK N   1      35.270  11.594  18.582  0.00  0.00     0.044 A 
HETATM    4  C   UNK N   1      35.169  12.988  18.605  0.00  0.00     0.023 A 
HETATM    5  C   UNK N   1      35.453  13.730  17.453  0.00  0.00     0.011 A 
HETATM    6  C   UNK N   1      35.672  10.938  17.417  0.00  0.00     0.023 A 
HETATM    7  C   UNK N   1      35.961  11.676  16.269  0.00  0.00     0.011 A 
HETATM    8  C   UNK N   1      35.846  13.074  16.285  0.00  0.00    -0.034 A 
ENDROOT
BRANCH   8   9
HETATM    9  C   UNK N   1      36.048  13.843  15.029  0.00  0.00     0.214 C 
BRANCH   9  10
HETATM   10  O   UNK N   1      35.961  12.942  13.999  0.00  0.00    -0.347 OA
BRANCH  10  11
HETATM   11  C   UNK N   1      35.621  13.332  12.760  0.00  0.00     0.070 A 
HETATM   12  C   UNK N   1      35.287  12.387  11.781  0.00  0.00     0.037 A 
HETATM   13  C   UNK N   1      34.967  12.809  10.491  0.00  0.00     0.015 A 
HETATM   14  C   UNK N   1      34.959  14.171  10.188  0.00  0.00    -0.024 A 
HETATM   15  C   UNK N   1      35.267  15.126  11.180  0.00  0.00    -0.023 A 
HETATM   16  C   UNK N   1      34.667  14.588   8.903  0.00  0.00     0.037 A 
HETATM   17  C   UNK N   1      35.609  14.699  12.459  0.00  0.00     0.049 A 
HETATM   18  C   UNK N   1      35.244  16.492  10.866  0.00  0.00     0.014 A 
HETATM   19  C   UNK N   1      34.945  16.903   9.560  0.00  0.00     0.026 A 
HETATM   20  C   UNK N   1      34.669  15.941   8.582  0.00  0.00     0.080 A 
BRANCH  20  21
HETATM   21  S   UNK N   1      34.384  16.379   6.887  0.00  0.00     0.259 S 
HETATM   22  O   UNK N   1      34.430  17.886   6.592  0.00  0.00    -0.201 OA
HETATM   23  O   UNK N   1      35.384  15.778   5.884  0.00  0.00    -0.201 OA
BRANCH  21  24
HETATM   24  N   UNK N   1      32.778  15.861   6.343  0.00  0.00    -0.300 N 
HETATM   25  H   UNK N   1      32.259  15.083   6.752  0.00  0.00     0.173 HD
BRANCH  24  26
HETATM   26  C   UNK N   1      32.289  16.685   5.236  0.00  0.00     0.191 C 
BRANCH  26  27
HETATM   27  C   UNK N   1      32.237  15.828   3.987  0.00  0.00     0.164 C 
HETATM   28  O   UNK N   1      31.259  15.827   3.257  0.00  0.00    -0.648 OA
BRANCH  27  29
HETATM   29  O   UNK N   1      33.294  15.056   3.665  0.00  0.00    -0.775 OA
HETATM   30  H   UNK N   1      33.267  14.436   2.964  0.00  0.00     0.167 HD
ENDBRANCH  27  29
ENDBRANCH  26  27
BRANCH  26  31
HETATM   31  C   UNK N   1      30.936  17.236   5.682  0.00  0.00     0.047 C 
BRANCH  31  32
HETATM   32  C   UNK N   1      30.262  16.468   6.803  0.00  0.00     0.112 C 
BRANCH  32  33
HETATM   33  C   UNK N   1      30.279  17.350   8.008  0.00  0.00     0.139 C 
HETATM   34  O   UNK N   1      31.315  17.896   8.350  0.00  0.00    -0.650 OA
BRANCH  33  35
HETATM   35  O   UNK N   1      29.141  17.581   8.691  0.00  0.00    -0.776 OA
HETATM   36  H   UNK N   1      28.971  18.426   9.059  0.00  0.00     0.167 HD
ENDBRANCH  33  35
ENDBRANCH  32  33
ENDBRANCH  31  32
ENDBRANCH  26  31
ENDBRANCH  24  26
ENDBRANCH  21  24
ENDBRANCH  20  21
ENDBRANCH  10  11
ENDBRANCH   9  10
ENDBRANCH   8   9
TORSDOF 12
ENDMDL
MODEL 2
REMARK VINA RESULT:      -7.2      4.624     11.319
REMARK  12 active torsions:
REMARK  status: ('A' for Active; 'I' for Inactive)
REMARK    1  A    between atoms: C_8  and  C_9 
REMARK    2  A    between atoms: C_9  and  O_10 
REMARK    3  A    between atoms: O_10  and  C_11 
REMARK    4  A    between atoms: C_20  and  S_21 
REMARK    5  A    between atoms: S_21  and  N_24 
REMARK    6  A    between atoms: C_25  and  N_24 
REMARK    7  A    between atoms: C_25  and  C_26 
REMARK    8  A    between atoms: C_25  and  C_29 
REMARK    9  A    between atoms: C_26  and  O_28 
REMARK   10  A    between atoms: C_29  and  C_30 
REMARK   11  A    between atoms: C_30  and  C_31 
REMARK   12  A    between atoms: C_31  and  O_33 
ROOT
HETATM    1  N   UNK N   1      19.931  15.312   7.585  0.00  0.00    -0.191 NA
HETATM    2  C   UNK N   1      20.922  15.628   7.088  0.00  0.00     0.099 C 
HETATM    3  C   UNK N   1      22.155  16.015   6.461  0.00  0.00     0.044 A 
HETATM    4  C   UNK N   1      22.198  17.148   5.642  0.00  0.00     0.023 A 
HETATM    5  C   UNK N   1      23.388  17.502   4.997  0.00  0.00     0.011 A 
HETATM    6  C   UNK N   1      23.303  15.245   6.653  0.00  0.00     0.023 A 
HETATM    7  C   UNK N   1      24.492  15.599   6.016  0.00  0.00     0.011 A 
HETATM    8  C   UNK N   1      24.534  16.726   5.183  0.00  0.00    -0.034 A 
ENDROOT
BRANCH   8   9
HETATM    9  C   UNK N   1      25.773  17.033   4.421  0.00  0.00     0.214 C 
BRANCH   9  10
HETATM   10  O   UNK N   1      26.444  17.993   5.134  0.00  0.00    -0.347 OA
BRANCH  10  11
HETATM   11  C   UNK N   1      27.647  17.745   5.676  0.00  0.00     0.070 A 
HETATM   12  C   UNK N   1      27.774  17.493   7.048  0.00  0.00     0.037 A 
HETATM   13  C   UNK N   1      29.035  17.268   7.598  0.00  0.00     0.015 A 
HETATM   14  C   UNK N   1      30.162  17.273   6.775  0.00  0.00    -0.024 A 
HETATM   15  C   UNK N   1      30.034  17.498   5.389  0.00  0.00    -0.023 A 
HETATM   16  C   UNK N   1      31.415  17.076   7.324  0.00  0.00     0.037 A 
HETATM   17  C   UNK N   1      28.776  17.745   4.848  0.00  0.00     0.049 A 
HETATM   18  C   UNK N   1      31.173  17.489   4.571  0.00  0.00     0.014 A 
HETATM   19  C   UNK N   1      32.438  17.287   5.139  0.00  0.00     0.026 A 
HETATM   20  C   UNK N   1      32.550  17.092   6.520  0.00  0.00     0.080 A 
BRANCH  20  21
HETATM   21  S   UNK N   1      34.123  16.933   7.322  0.00  0.00     0.259 S 
HETATM   22  O   UNK N   1      35.170  16.129   6.538  0.00  0.00    -0.201 OA
HETATM   23  O   UNK N   1      34.834  18.263   7.626  0.00  0.00    -0.201 OA
BRANCH  21  24
HETATM   24  N   UNK N   1      33.978  16.093   8.876  0.00  0.00    -0.300 N 
HETATM   25  H   UNK N   1      33.109  16.014   9.406  0.00  0.00     0.173 HD
BRANCH  24  26
HETATM   26  C   UNK N   1      35.258  15.525   9.307  0.00  0.00     0.191 C 
BRANCH  26  27
HETATM   27  C   UNK N   1      35.830  16.407  10.399  0.00  0.00     0.164 C 
HETATM   28  O   UNK N   1      35.171  17.304  10.901  0.00  0.00    -0.648 OA
BRANCH  27  29
HETATM   29  O   UNK N   1      37.086  16.194  10.836  0.00  0.00    -0.775 OA
HETATM   30  H   UNK N   1      37.565  15.416  10.629  0.00  0.00     0.167 HD
ENDBRANCH  27  29
ENDBRANCH  26  27
BRANCH  26  31
HETATM   31  C   UNK N   1      34.961  14.090   9.741  0.00  0.00     0.047 C 
BRANCH  31  32
HETATM   32  C   UNK N   1      34.842  13.879  11.238  0.00  0.00     0.112 C 
BRANCH  32  33
HETATM   33  C   UNK N   1      35.997  13.028  11.652  0.00  0.00     0.139 C 
HETATM   34  O   UNK N   1      35.922  11.813  11.562  0.00  0.00    -0.650 OA
BRANCH  33  35
HETATM   35  O   UNK N   1      37.138  13.600  12.080  0.00  0.00    -0.776 OA
HETATM   36  H   UNK N   1      37.669  14.100  11.491  0.00  0.00     0.167 HD
ENDBRANCH  33  35
ENDBRANCH  32  33
ENDBRANCH  31  32
ENDBRANCH  26  31
ENDBRANCH  24  26
ENDBRANCH  21  24
ENDBRANCH  20  21
ENDBRANCH  10  11
ENDBRANCH   9  10
ENDBRANCH   8   9
TORSDOF 12
ENDMDL
MODEL 3
REMARK VINA RESULT:      -7.2      4.271      7.532
REMARK  12 active torsions:
REMARK  status: ('A' for Active; 'I' for Inactive)
REMARK    1  A    between atoms: C_8  and  C_9 
REMARK    2  A    between atoms: C_9  and  O_10 
REMARK    3  A    between atoms: O_10  and  C_11 
REMARK    4  A    between atoms: C_20  and  S_21 
REMARK    5  A    between atoms: S_21  and  N_24 
REMARK    6  A    between atoms: C_25  and  N_24 
REMARK    7  A    between atoms: C_25  and  C_26 
REMARK    8  A    between atoms: C_25  and  C_29 
REMARK    9  A    between atoms: C_26  and  O_28 
REMARK   10  A    between atoms: C_29  and  C_30 
REMARK   11  A    between atoms: C_30  and  C_31 
REMARK   12  A    between atoms: C_31  and  O_33 
ROOT
HETATM    1  N   UNK N   1      30.286   4.420  21.406  0.00  0.00    -0.191 NA
HETATM    2  C   UNK N   1      30.763   5.469  21.437  0.00  0.00     0.099 C 
HETATM    3  C   UNK N   1      31.368   6.771  21.473  0.00  0.00     0.044 A 
HETATM    4  C   UNK N   1      31.285   7.612  20.358  0.00  0.00     0.023 A 
HETATM    5  C   UNK N   1      31.909   8.864  20.378  0.00  0.00     0.011 A 
HETATM    6  C   UNK N   1      32.056   7.185  22.615  0.00  0.00     0.023 A 
HETATM    7  C   UNK N   1      32.673   8.436  22.638  0.00  0.00     0.011 A 
HETATM    8  C   UNK N   1      32.605   9.275  21.516  0.00  0.00    -0.034 A 
ENDROOT
BRANCH   8   9
HETATM    9  C   UNK N   1      33.357  10.556  21.508  0.00  0.00     0.214 C 
BRANCH   9  10
HETATM   10  O   UNK N   1      34.535  10.316  20.847  0.00  0.00    -0.347 OA
BRANCH  10  11
HETATM   11  C   UNK N   1      34.839  10.960  19.710  0.00  0.00     0.070 A 
HETATM   12  C   UNK N   1      35.010  12.351  19.700  0.00  0.00     0.037 A 
HETATM   13  C   UNK N   1      35.295  13.007  18.503  0.00  0.00     0.015 A 
HETATM   14  C   UNK N   1      35.431  12.271  17.325  0.00  0.00    -0.024 A 
HETATM   15  C   UNK N   1      35.288  10.869  17.336  0.00  0.00    -0.023 A 
HETATM   16  C   UNK N   1      35.688  12.924  16.134  0.00  0.00     0.037 A 
HETATM   17  C   UNK N   1      34.981  10.221  18.530  0.00  0.00     0.049 A 
HETATM   18  C   UNK N   1      35.440  10.140  16.148  0.00  0.00     0.014 A 
HETATM   19  C   UNK N   1      35.701  10.813  14.947  0.00  0.00     0.026 A 
HETATM   20  C   UNK N   1      35.812  12.207  14.948  0.00  0.00     0.080 A 
BRANCH  20  21
HETATM   21  S   UNK N   1      36.040  13.134  13.453  0.00  0.00     0.259 S 
HETATM   22  O   UNK N   1      36.157  14.653  13.645  0.00  0.00    -0.201 OA
HETATM   23  O   UNK N   1      37.298  12.767  12.647  0.00  0.00    -0.201 OA
BRANCH  21  24
HETATM   24  N   UNK N   1      34.673  12.922  12.344  0.00  0.00    -0.300 N 
HETATM   25  H   UNK N   1      33.707  13.157  12.574  0.00  0.00     0.173 HD
BRANCH  24  26
HETATM   26  C   UNK N   1      35.101  12.368  11.057  0.00  0.00     0.191 C 
BRANCH  26  27
HETATM   27  C   UNK N   1      34.401  11.039  10.851  0.00  0.00     0.164 C 
HETATM   28  O   UNK N   1      34.604  10.362   9.857  0.00  0.00    -0.648 OA
BRANCH  27  29
HETATM   29  O   UNK N   1      33.545  10.586  11.788  0.00  0.00    -0.775 OA
HETATM   30  H   UNK N   1      32.723  10.194  11.569  0.00  0.00     0.167 HD
ENDBRANCH  27  29
ENDBRANCH  26  27
BRANCH  26  31
HETATM   31  C   UNK N   1      34.769  13.428  10.007  0.00  0.00     0.047 C 
BRANCH  31  32
HETATM   32  C   UNK N   1      35.943  14.266   9.541  0.00  0.00     0.112 C 
BRANCH  32  33
HETATM   33  C   UNK N   1      35.856  15.575  10.256  0.00  0.00     0.139 C 
HETATM   34  O   UNK N   1      34.830  16.233  10.201  0.00  0.00    -0.650 OA
BRANCH  33  35
HETATM   35  O   UNK N   1      36.891  16.008  10.999  0.00  0.00    -0.776 OA
HETATM   36  H   UNK N   1      37.774  15.846  10.726  0.00  0.00     0.167 HD
ENDBRANCH  33  35
ENDBRANCH  32  33
ENDBRANCH  31  32
ENDBRANCH  26  31
ENDBRANCH  24  26
ENDBRANCH  21  24
ENDBRANCH  20  21
ENDBRANCH  10  11
ENDBRANCH   9  10
ENDBRANCH   8   9
TORSDOF 12
ENDMDL
MODEL 4
REMARK VINA RESULT:      -7.2      7.273     12.080
REMARK  12 active torsions:
REMARK  status: ('A' for Active; 'I' for Inactive)
REMARK    1  A    between atoms: C_8  and  C_9 
REMARK    2  A    between atoms: C_9  and  O_10 
REMARK    3  A    between atoms: O_10  and  C_11 
REMARK    4  A    between atoms: C_20  and  S_21 
REMARK    5  A    between atoms: S_21  and  N_24 
REMARK    6  A    between atoms: C_25  and  N_24 
REMARK    7  A    between atoms: C_25  and  C_26 
REMARK    8  A    between atoms: C_25  and  C_29 
REMARK    9  A    between atoms: C_26  and  O_28 
REMARK   10  A    between atoms: C_29  and  C_30 
REMARK   11  A    between atoms: C_30  and  C_31 
REMARK   12  A    between atoms: C_31  and  O_33 
ROOT
HETATM    1  N   UNK N   1      35.269  17.577   9.735  0.00  0.00    -0.191 NA
HETATM    2  C   UNK N   1      34.504  17.458   8.881  0.00  0.00     0.099 C 
HETATM    3  C   UNK N   1      33.549  17.322   7.816  0.00  0.00     0.044 A 
HETATM    4  C   UNK N   1      33.986  17.245   6.490  0.00  0.00     0.023 A 
HETATM    5  C   UNK N   1      33.055  17.153   5.450  0.00  0.00     0.011 A 
HETATM    6  C   UNK N   1      32.184  17.288   8.108  0.00  0.00     0.023 A 
HETATM    7  C   UNK N   1      31.255  17.191   7.072  0.00  0.00     0.011 A 
HETATM    8  C   UNK N   1      31.690  17.129   5.741  0.00  0.00    -0.034 A 
ENDROOT
BRANCH   8   9
HETATM    9  C   UNK N   1      30.692  17.138   4.639  0.00  0.00     0.214 C 
BRANCH   9  10
HETATM   10  O   UNK N   1      29.919  18.256   4.818  0.00  0.00    -0.347 OA
BRANCH  10  11
HETATM   11  C   UNK N   1      28.580  18.177   4.865  0.00  0.00     0.070 A 
HETATM   12  C   UNK N   1      27.950  17.178   5.618  0.00  0.00     0.037 A 
HETATM   13  C   UNK N   1      26.558  17.092   5.630  0.00  0.00     0.015 A 
HETATM   14  C   UNK N   1      25.800  18.015   4.908  0.00  0.00    -0.024 A 
HETATM   15  C   UNK N   1      26.431  19.039   4.172  0.00  0.00    -0.023 A 
HETATM   16  C   UNK N   1      24.421  17.915   4.899  0.00  0.00     0.037 A 
HETATM   17  C   UNK N   1      27.821  19.106   4.145  0.00  0.00     0.049 A 
HETATM   18  C   UNK N   1      25.658  19.968   3.461  0.00  0.00     0.014 A 
HETATM   19  C   UNK N   1      24.261  19.856   3.459  0.00  0.00     0.026 A 
HETATM   20  C   UNK N   1      23.652  18.818   4.173  0.00  0.00     0.080 A 
BRANCH  20  21
HETATM   21  S   UNK N   1      21.899  18.553   4.133  0.00  0.00     0.259 S 
HETATM   22  O   UNK N   1      21.103  19.334   5.189  0.00  0.00    -0.201 OA
HETATM   23  O   UNK N   1      21.215  18.927   2.807  0.00  0.00    -0.201 OA
BRANCH  21  24
HETATM   24  N   UNK N   1      21.493  16.852   4.427  0.00  0.00    -0.300 N 
HETATM   25  H   UNK N   1      21.905  16.069   3.917  0.00  0.00     0.173 HD
BRANCH  24  26
HETATM   26  C   UNK N   1      20.495  16.709   5.490  0.00  0.00     0.191 C 
BRANCH  26  27
HETATM   27  C   UNK N   1      19.304  15.957   4.930  0.00  0.00     0.164 C 
HETATM   28  O   UNK N   1      19.376  15.347   3.876  0.00  0.00    -0.648 OA
BRANCH  27  29
HETATM   29  O   UNK N   1      18.142  15.950   5.612  0.00  0.00    -0.775 OA
HETATM   30  H   UNK N   1      17.629  16.724   5.739  0.00  0.00     0.167 HD
ENDBRANCH  27  29
ENDBRANCH  26  27
BRANCH  26  31
HETATM   31  C   UNK N   1      21.204  16.004   6.645  0.00  0.00     0.047 C 
BRANCH  31  32
HETATM   32  C   UNK N   1      20.524  16.130   7.994  0.00  0.00     0.112 C 
BRANCH  32  33
HETATM   33  C   UNK N   1      20.554  14.777   8.626  0.00  0.00     0.139 C 
HETATM   34  O   UNK N   1      19.648  14.428   9.366  0.00  0.00    -0.650 OA
BRANCH  33  35
HETATM   35  O   UNK N   1      21.556  13.923   8.345  0.00  0.00    -0.776 OA
HETATM   36  H   UNK N   1      22.446  14.218   8.345  0.00  0.00     0.167 HD
ENDBRANCH  33  35
ENDBRANCH  32  33
ENDBRANCH  31  32
ENDBRANCH  26  31
ENDBRANCH  24  26
ENDBRANCH  21  24
ENDBRANCH  20  21
ENDBRANCH  10  11
ENDBRANCH   9  10
ENDBRANCH   8   9
TORSDOF 12
ENDMDL
MODEL 5
REMARK VINA RESULT:      -7.2      5.077     12.481
REMARK  12 active torsions:
REMARK  status: ('A' for Active; 'I' for Inactive)
REMARK    1  A    between atoms: C_8  and  C_9 
REMARK    2  A    between atoms: C_9  and  O_10 
REMARK    3  A    between atoms: O_10  and  C_11 
REMARK    4  A    between atoms: C_20  and  S_21 
REMARK    5  A    between atoms: S_21  and  N_24 
REMARK    6  A    between atoms: C_25  and  N_24 
REMARK    7  A    between atoms: C_25  and  C_26 
REMARK    8  A    between atoms: C_25  and  C_29 
REMARK    9  A    between atoms: C_26  and  O_28 
REMARK   10  A    between atoms: C_29  and  C_30 
REMARK   11  A    between atoms: C_30  and  C_31 
REMARK   12  A    between atoms: C_31  and  O_33 
ROOT
HETATM    1  N   UNK N   1      19.858  19.017   3.008  0.00  0.00    -0.191 NA
HETATM    2  C   UNK N   1      20.986  19.166   3.192  0.00  0.00     0.099 C 
HETATM    3  C   UNK N   1      22.390  19.360   3.430  0.00  0.00     0.044 A 
HETATM    4  C   UNK N   1      23.078  18.502   4.295  0.00  0.00     0.023 A 
HETATM    5  C   UNK N   1      24.435  18.715   4.559  0.00  0.00     0.011 A 
HETATM    6  C   UNK N   1      23.058  20.418   2.813  0.00  0.00     0.023 A 
HETATM    7  C   UNK N   1      24.414  20.628   3.070  0.00  0.00     0.011 A 
HETATM    8  C   UNK N   1      25.102  19.779   3.948  0.00  0.00    -0.034 A 
ENDROOT
BRANCH   8   9
HETATM    9  C   UNK N   1      26.514  20.076   4.303  0.00  0.00     0.214 C 
BRANCH   9  10
HETATM   10  O   UNK N   1      26.716  19.574   5.564  0.00  0.00    -0.347 OA
BRANCH  10  11
HETATM   11  C   UNK N   1      27.778  18.803   5.844  0.00  0.00     0.070 A 
HETATM   12  C   UNK N   1      28.448  18.111   4.826  0.00  0.00     0.037 A 
HETATM   13  C   UNK N   1      29.529  17.290   5.141  0.00  0.00     0.015 A 
HETATM   14  C   UNK N   1      29.953  17.177   6.466  0.00  0.00    -0.024 A 
HETATM   15  C   UNK N   1      29.299  17.894   7.489  0.00  0.00    -0.023 A 
HETATM   16  C   UNK N   1      31.009  16.343   6.781  0.00  0.00     0.037 A 
HETATM   17  C   UNK N   1      28.205  18.695   7.173  0.00  0.00     0.049 A 
HETATM   18  C   UNK N   1      29.742  17.783   8.815  0.00  0.00     0.014 A 
HETATM   19  C   UNK N   1      30.813  16.934   9.122  0.00  0.00     0.026 A 
HETATM   20  C   UNK N   1      31.434  16.209   8.099  0.00  0.00     0.080 A 
BRANCH  20  21
HETATM   21  S   UNK N   1      32.727  15.039   8.426  0.00  0.00     0.259 S 
HETATM   22  O   UNK N   1      32.278  13.571   8.455  0.00  0.00    -0.201 OA
HETATM   23  O   UNK N   1      33.883  15.050   7.411  0.00  0.00    -0.201 OA
BRANCH  21  24
HETATM   24  N   UNK N   1      33.468  15.318  10.011  0.00  0.00    -0.300 N 
HETATM   25  H   UNK N   1      32.954  15.622  10.839  0.00  0.00     0.173 HD
BRANCH  24  26
HETATM   26  C   UNK N   1      34.910  15.058   9.988  0.00  0.00     0.191 C 
BRANCH  26  27
HETATM   27  C   UNK N   1      35.635  16.360  10.267  0.00  0.00     0.164 C 
HETATM   28  O   UNK N   1      35.195  17.429   9.875  0.00  0.00    -0.648 OA
BRANCH  27  29
HETATM   29  O   UNK N   1      36.784  16.344  10.970  0.00  0.00    -0.775 OA
HETATM   30  H   UNK N   1      36.837  16.651  11.854  0.00  0.00     0.167 HD
ENDBRANCH  27  29
ENDBRANCH  26  27
BRANCH  26  31
HETATM   31  C   UNK N   1      35.160  13.960  11.020  0.00  0.00     0.047 C 
BRANCH  31  32
HETATM   32  C   UNK N   1      34.732  12.568  10.600  0.00  0.00     0.112 C 
BRANCH  32  33
HETATM   33  C   UNK N   1      35.056  11.651  11.733  0.00  0.00     0.139 C 
HETATM   34  O   UNK N   1      36.173  11.169  11.828  0.00  0.00    -0.650 OA
BRANCH  33  35
HETATM   35  O   UNK N   1      34.132  11.391  12.678  0.00  0.00    -0.776 OA
HETATM   36  H   UNK N   1      33.615  12.084  13.040  0.00  0.00     0.167 HD
ENDBRANCH  33  35
ENDBRANCH  32  33
ENDBRANCH  31  32
ENDBRANCH  26  31
ENDBRANCH  24  26
ENDBRANCH  21  24
ENDBRANCH  20  21
ENDBRANCH  10  11
ENDBRANCH   9  10
ENDBRANCH   8   9
TORSDOF 12
ENDMDL
MODEL 6
REMARK VINA RESULT:      -7.1      7.438     12.320
REMARK  12 active torsions:
REMARK  status: ('A' for Active; 'I' for Inactive)
REMARK    1  A    between atoms: C_8  and  C_9 
REMARK    2  A    between atoms: C_9  and  O_10 
REMARK    3  A    between atoms: O_10  and  C_11 
REMARK    4  A    between atoms: C_20  and  S_21 
REMARK    5  A    between atoms: S_21  and  N_24 
REMARK    6  A    between atoms: C_25  and  N_24 
REMARK    7  A    between atoms: C_25  and  C_26 
REMARK    8  A    between atoms: C_25  and  C_29 
REMARK    9  A    between atoms: C_26  and  O_28 
REMARK   10  A    between atoms: C_29  and  C_30 
REMARK   11  A    between atoms: C_30  and  C_31 
REMARK   12  A    between atoms: C_31  and  O_33 
ROOT
HETATM    1  N   UNK N   1      35.157  17.570   9.612  0.00  0.00    -0.191 NA
HETATM    2  C   UNK N   1      34.337  17.451   8.811  0.00  0.00     0.099 C 
HETATM    3  C   UNK N   1      33.314  17.314   7.811  0.00  0.00     0.044 A 
HETATM    4  C   UNK N   1      33.660  17.260   6.458  0.00  0.00     0.023 A 
HETATM    5  C   UNK N   1      32.662  17.168   5.482  0.00  0.00     0.011 A 
HETATM    6  C   UNK N   1      31.973  17.258   8.196  0.00  0.00     0.023 A 
HETATM    7  C   UNK N   1      30.976  17.160   7.224  0.00  0.00     0.011 A 
HETATM    8  C   UNK N   1      31.320  17.121   5.866  0.00  0.00    -0.034 A 
ENDROOT
BRANCH   8   9
HETATM    9  C   UNK N   1      30.250  17.129   4.835  0.00  0.00     0.214 C 
BRANCH   9  10
HETATM   10  O   UNK N   1      29.689  18.381   4.861  0.00  0.00    -0.347 OA
BRANCH  10  11
HETATM   11  C   UNK N   1      28.357  18.547   4.856  0.00  0.00     0.070 A 
HETATM   12  C   UNK N   1      27.795  19.800   4.580  0.00  0.00     0.037 A 
HETATM   13  C   UNK N   1      26.410  19.961   4.610  0.00  0.00     0.015 A 
HETATM   14  C   UNK N   1      25.590  18.868   4.894  0.00  0.00    -0.024 A 
HETATM   15  C   UNK N   1      26.152  17.599   5.144  0.00  0.00    -0.023 A 
HETATM   16  C   UNK N   1      24.219  19.033   4.949  0.00  0.00     0.037 A 
HETATM   17  C   UNK N   1      27.536  17.448   5.135  0.00  0.00     0.049 A 
HETATM   18  C   UNK N   1      25.318  16.505   5.415  0.00  0.00     0.014 A 
HETATM   19  C   UNK N   1      23.929  16.685   5.468  0.00  0.00     0.026 A 
HETATM   20  C   UNK N   1      23.389  17.956   5.244  0.00  0.00     0.080 A 
BRANCH  20  21
HETATM   21  S   UNK N   1      21.652  18.280   5.396  0.00  0.00     0.259 S 
HETATM   22  O   UNK N   1      21.088  18.126   6.815  0.00  0.00    -0.201 OA
HETATM   23  O   UNK N   1      21.217  19.696   4.979  0.00  0.00    -0.201 OA
BRANCH  21  24
HETATM   24  N   UNK N   1      20.695  17.166   4.404  0.00  0.00    -0.300 N 
HETATM   25  H   UNK N   1      20.253  17.421   3.520  0.00  0.00     0.173 HD
BRANCH  24  26
HETATM   26  C   UNK N   1      20.616  15.834   5.009  0.00  0.00     0.191 C 
BRANCH  26  27
HETATM   27  C   UNK N   1      19.174  15.566   5.392  0.00  0.00     0.164 C 
HETATM   28  O   UNK N   1      18.735  15.892   6.483  0.00  0.00    -0.648 OA
BRANCH  27  29
HETATM   29  O   UNK N   1      18.352  14.965   4.509  0.00  0.00    -0.775 OA
HETATM   30  H   UNK N   1      18.576  14.861   3.605  0.00  0.00     0.167 HD
ENDBRANCH  27  29
ENDBRANCH  26  27
BRANCH  26  31
HETATM   31  C   UNK N   1      21.188  14.864   3.976  0.00  0.00     0.047 C 
BRANCH  31  32
HETATM   32  C   UNK N   1      21.820  15.512   2.760  0.00  0.00     0.112 C 
BRANCH  32  33
HETATM   33  C   UNK N   1      20.855  15.358   1.632  0.00  0.00     0.139 C 
HETATM   34  O   UNK N   1      21.252  15.009   0.532  0.00  0.00    -0.650 OA
BRANCH  33  35
HETATM   35  O   UNK N   1      19.539  15.556   1.837  0.00  0.00    -0.776 OA
HETATM   36  H   UNK N   1      18.987  15.851   1.138  0.00  0.00     0.167 HD
ENDBRANCH  33  35
ENDBRANCH  32  33
ENDBRANCH  31  32
ENDBRANCH  26  31
ENDBRANCH  24  26
ENDBRANCH  21  24
ENDBRANCH  20  21
ENDBRANCH  10  11
ENDBRANCH   9  10
ENDBRANCH   8   9
TORSDOF 12
ENDMDL
MODEL 7
REMARK VINA RESULT:      -6.8      4.843     11.546
REMARK  12 active torsions:
REMARK  status: ('A' for Active; 'I' for Inactive)
REMARK    1  A    between atoms: C_8  and  C_9 
REMARK    2  A    between atoms: C_9  and  O_10 
REMARK    3  A    between atoms: O_10  and  C_11 
REMARK    4  A    between atoms: C_20  and  S_21 
REMARK    5  A    between atoms: S_21  and  N_24 
REMARK    6  A    between atoms: C_25  and  N_24 
REMARK    7  A    between atoms: C_25  and  C_26 
REMARK    8  A    between atoms: C_25  and  C_29 
REMARK    9  A    between atoms: C_26  and  O_28 
REMARK   10  A    between atoms: C_29  and  C_30 
REMARK   11  A    between atoms: C_30  and  C_31 
REMARK   12  A    between atoms: C_31  and  O_33 
ROOT
HETATM    1  N   UNK N   1      20.474  13.795   2.568  0.00  0.00    -0.191 NA
HETATM    2  C   UNK N   1      21.360  14.379   3.019  0.00  0.00     0.099 C 
HETATM    3  C   UNK N   1      22.467  15.110   3.570  0.00  0.00     0.044 A 
HETATM    4  C   UNK N   1      22.323  16.464   3.888  0.00  0.00     0.023 A 
HETATM    5  C   UNK N   1      23.412  17.186   4.386  0.00  0.00     0.011 A 
HETATM    6  C   UNK N   1      23.692  14.470   3.766  0.00  0.00     0.023 A 
HETATM    7  C   UNK N   1      24.778  15.187   4.268  0.00  0.00     0.011 A 
HETATM    8  C   UNK N   1      24.640  16.549   4.574  0.00  0.00    -0.034 A 
ENDROOT
BRANCH   8   9
HETATM    9  C   UNK N   1      25.829  17.331   5.002  0.00  0.00     0.214 C 
BRANCH   9  10
HETATM   10  O   UNK N   1      26.504  16.554   5.909  0.00  0.00    -0.347 OA
BRANCH  10  11
HETATM   11  C   UNK N   1      27.821  16.710   6.114  0.00  0.00     0.070 A 
HETATM   12  C   UNK N   1      28.752  16.194   5.203  0.00  0.00     0.037 A 
HETATM   13  C   UNK N   1      30.117  16.339   5.448  0.00  0.00     0.015 A 
HETATM   14  C   UNK N   1      30.549  17.016   6.590  0.00  0.00    -0.024 A 
HETATM   15  C   UNK N   1      29.614  17.561   7.494  0.00  0.00    -0.023 A 
HETATM   16  C   UNK N   1      31.901  17.137   6.847  0.00  0.00     0.037 A 
HETATM   17  C   UNK N   1      28.253  17.394   7.256  0.00  0.00     0.049 A 
HETATM   18  C   UNK N   1      30.060  18.250   8.631  0.00  0.00     0.014 A 
HETATM   19  C   UNK N   1      31.434  18.367   8.881  0.00  0.00     0.026 A 
HETATM   20  C   UNK N   1      32.348  17.796   7.988  0.00  0.00     0.080 A 
BRANCH  20  21
HETATM   21  S   UNK N   1      34.095  17.814   8.291  0.00  0.00     0.259 S 
HETATM   22  O   UNK N   1      34.934  17.014   7.284  0.00  0.00    -0.201 OA
HETATM   23  O   UNK N   1      34.741  19.211   8.279  0.00  0.00    -0.201 OA
BRANCH  21  24
HETATM   24  N   UNK N   1      34.488  17.110   9.869  0.00  0.00    -0.300 N 
HETATM   25  H   UNK N   1      34.316  17.574  10.762  0.00  0.00     0.173 HD
BRANCH  24  26
HETATM   26  C   UNK N   1      35.089  15.781   9.734  0.00  0.00     0.191 C 
BRANCH  26  27
HETATM   27  C   UNK N   1      36.112  15.604  10.839  0.00  0.00     0.164 C 
HETATM   28  O   UNK N   1      35.795  15.672  12.015  0.00  0.00    -0.648 OA
BRANCH  27  29
HETATM   29  O   UNK N   1      37.398  15.356  10.522  0.00  0.00    -0.775 OA
HETATM   30  H   UNK N   1      37.867  15.869   9.894  0.00  0.00     0.167 HD
ENDBRANCH  27  29
ENDBRANCH  26  27
BRANCH  26  31
HETATM   31  C   UNK N   1      33.931  14.785   9.778  0.00  0.00     0.047 C 
BRANCH  31  32
HETATM   32  C   UNK N   1      34.128  13.528   8.954  0.00  0.00     0.112 C 
BRANCH  32  33
HETATM   33  C   UNK N   1      33.481  13.768   7.629  0.00  0.00     0.139 C 
HETATM   34  O   UNK N   1      32.318  13.446   7.451  0.00  0.00    -0.650 OA
BRANCH  33  35
HETATM   35  O   UNK N   1      34.165  14.384   6.646  0.00  0.00    -0.776 OA
HETATM   36  H   UNK N   1      33.926  15.247   6.369  0.00  0.00     0.167 HD
ENDBRANCH  33  35
ENDBRANCH  32  33
ENDBRANCH  31  32
ENDBRANCH  26  31
ENDBRANCH  24  26
ENDBRANCH  21  24
ENDBRANCH  20  21
ENDBRANCH  10  11
ENDBRANCH   9  10
ENDBRANCH   8   9
TORSDOF 12
ENDMDL
MODEL 8
REMARK VINA RESULT:      -6.7      1.413      2.299
REMARK  12 active torsions:
REMARK  status: ('A' for Active; 'I' for Inactive)
REMARK    1  A    between atoms: C_8  and  C_9 
REMARK    2  A    between atoms: C_9  and  O_10 
REMARK    3  A    between atoms: O_10  and  C_11 
REMARK    4  A    between atoms: C_20  and  S_21 
REMARK    5  A    between atoms: S_21  and  N_24 
REMARK    6  A    between atoms: C_25  and  N_24 
REMARK    7  A    between atoms: C_25  and  C_26 
REMARK    8  A    between atoms: C_25  and  C_29 
REMARK    9  A    between atoms: C_26  and  O_28 
REMARK   10  A    between atoms: C_29  and  C_30 
REMARK   11  A    between atoms: C_30  and  C_31 
REMARK   12  A    between atoms: C_31  and  O_33 
ROOT
HETATM    1  N   UNK N   1      35.590   9.074  20.982  0.00  0.00    -0.191 NA
HETATM    2  C   UNK N   1      35.498   9.811  20.101  0.00  0.00     0.099 C 
HETATM    3  C   UNK N   1      35.395  10.732  19.003  0.00  0.00     0.044 A 
HETATM    4  C   UNK N   1      35.439  10.259  17.687  0.00  0.00     0.023 A 
HETATM    5  C   UNK N   1      35.381  11.160  16.618  0.00  0.00     0.011 A 
HETATM    6  C   UNK N   1      35.274  12.100  19.254  0.00  0.00     0.023 A 
HETATM    7  C   UNK N   1      35.209  12.998  18.188  0.00  0.00     0.011 A 
HETATM    8  C   UNK N   1      35.268  12.528  16.869  0.00  0.00    -0.034 A 
ENDROOT
BRANCH   8   9
HETATM    9  C   UNK N   1      35.311  13.498  15.743  0.00  0.00     0.214 C 
BRANCH   9  10
HETATM   10  O   UNK N   1      35.897  12.849  14.687  0.00  0.00    -0.347 OA
BRANCH  10  11
HETATM   11  C   UNK N   1      35.773  13.308  13.432  0.00  0.00     0.070 A 
HETATM   12  C   UNK N   1      36.011  14.657  13.138  0.00  0.00     0.037 A 
HETATM   13  C   UNK N   1      35.848  15.123  11.834  0.00  0.00     0.015 A 
HETATM   14  C   UNK N   1      35.469  14.237  10.824  0.00  0.00    -0.024 A 
HETATM   15  C   UNK N   1      35.256  12.873  11.111  0.00  0.00    -0.023 A 
HETATM   16  C   UNK N   1      35.281  14.703   9.536  0.00  0.00     0.037 A 
HETATM   17  C   UNK N   1      35.399  12.418  12.419  0.00  0.00     0.049 A 
HETATM   18  C   UNK N   1      34.888  11.991  10.085  0.00  0.00     0.014 A 
HETATM   19  C   UNK N   1      34.702  12.475   8.783  0.00  0.00     0.026 A 
HETATM   20  C   UNK N   1      34.890  13.837   8.521  0.00  0.00     0.080 A 
BRANCH  20  21
HETATM   21  S   UNK N   1      34.573  14.539   6.923  0.00  0.00     0.259 S 
HETATM   22  O   UNK N   1      35.720  15.384   6.350  0.00  0.00    -0.201 OA
HETATM   23  O   UNK N   1      34.279  13.516   5.812  0.00  0.00    -0.201 OA
BRANCH  21  24
HETATM   24  N   UNK N   1      33.179  15.632   6.960  0.00  0.00    -0.300 N 
HETATM   25  H   UNK N   1      32.258  15.374   7.316  0.00  0.00     0.173 HD
BRANCH  24  26
HETATM   26  C   UNK N   1      33.510  16.951   6.415  0.00  0.00     0.191 C 
BRANCH  26  27
HETATM   27  C   UNK N   1      32.681  17.176   5.166  0.00  0.00     0.164 C 
HETATM   28  O   UNK N   1      33.145  17.740   4.189  0.00  0.00    -0.648 OA
BRANCH  27  29
HETATM   29  O   UNK N   1      31.407  16.737   5.125  0.00  0.00    -0.775 OA
HETATM   30  H   UNK N   1      31.182  15.876   4.834  0.00  0.00     0.167 HD
ENDBRANCH  27  29
ENDBRANCH  26  27
BRANCH  26  31
HETATM   31  C   UNK N   1      33.248  17.953   7.539  0.00  0.00     0.047 C 
BRANCH  31  32
HETATM   32  C   UNK N   1      32.546  17.388   8.758  0.00  0.00     0.112 C 
BRANCH  32  33
HETATM   33  C   UNK N   1      31.095  17.715   8.618  0.00  0.00     0.139 C 
HETATM   34  O   UNK N   1      30.398  17.079   7.845  0.00  0.00    -0.650 OA
BRANCH  33  35
HETATM   35  O   UNK N   1      30.545  18.681   9.378  0.00  0.00    -0.776 OA
HETATM   36  H   UNK N   1      30.811  19.574   9.277  0.00  0.00     0.167 HD
ENDBRANCH  33  35
ENDBRANCH  32  33
ENDBRANCH  31  32
ENDBRANCH  26  31
ENDBRANCH  24  26
ENDBRANCH  21  24
ENDBRANCH  20  21
ENDBRANCH  10  11
ENDBRANCH   9  10
ENDBRANCH   8   9
TORSDOF 12
ENDMDL
MODEL 9
REMARK VINA RESULT:      -6.7      4.556      7.681
REMARK  12 active torsions:
REMARK  status: ('A' for Active; 'I' for Inactive)
REMARK    1  A    between atoms: C_8  and  C_9 
REMARK    2  A    between atoms: C_9  and  O_10 
REMARK    3  A    between atoms: O_10  and  C_11 
REMARK    4  A    between atoms: C_20  and  S_21 
REMARK    5  A    between atoms: S_21  and  N_24 
REMARK    6  A    between atoms: C_25  and  N_24 
REMARK    7  A    between atoms: C_25  and  C_26 
REMARK    8  A    between atoms: C_25  and  C_29 
REMARK    9  A    between atoms: C_26  and  O_28 
REMARK   10  A    between atoms: C_29  and  C_30 
REMARK   11  A    between atoms: C_30  and  C_31 
REMARK   12  A    between atoms: C_31  and  O_33 
ROOT
HETATM    1  N   UNK N   1      35.446  12.125  13.397  0.00  0.00    -0.191 NA
HETATM    2  C   UNK N   1      35.359  12.889  12.539  0.00  0.00     0.099 C 
HETATM    3  C   UNK N   1      35.238  13.841  11.470  0.00  0.00     0.044 A 
HETATM    4  C   UNK N   1      35.314  15.211  11.741  0.00  0.00     0.023 A 
HETATM    5  C   UNK N   1      35.155  16.140  10.707  0.00  0.00     0.011 A 
HETATM    6  C   UNK N   1      35.023  13.395  10.165  0.00  0.00     0.023 A 
HETATM    7  C   UNK N   1      34.870  14.320   9.131  0.00  0.00     0.011 A 
HETATM    8  C   UNK N   1      34.931  15.694   9.403  0.00  0.00    -0.034 A 
ENDROOT
BRANCH   8   9
HETATM    9  C   UNK N   1      34.657  16.672   8.318  0.00  0.00     0.214 C 
BRANCH   9  10
HETATM   10  O   UNK N   1      33.637  17.475   8.761  0.00  0.00    -0.347 OA
BRANCH  10  11
HETATM   11  C   UNK N   1      32.446  17.491   8.142  0.00  0.00     0.070 A 
HETATM   12  C   UNK N   1      31.285  17.858   8.837  0.00  0.00     0.037 A 
HETATM   13  C   UNK N   1      30.052  17.839   8.186  0.00  0.00     0.015 A 
HETATM   14  C   UNK N   1      29.984  17.476   6.840  0.00  0.00    -0.024 A 
HETATM   15  C   UNK N   1      31.153  17.134   6.131  0.00  0.00    -0.023 A 
HETATM   16  C   UNK N   1      28.758  17.433   6.202  0.00  0.00     0.037 A 
HETATM   17  C   UNK N   1      32.379  17.133   6.791  0.00  0.00     0.049 A 
HETATM   18  C   UNK N   1      31.073  16.784   4.776  0.00  0.00     0.014 A 
HETATM   19  C   UNK N   1      29.825  16.744   4.140  0.00  0.00     0.026 A 
HETATM   20  C   UNK N   1      28.671  17.060   4.865  0.00  0.00     0.080 A 
BRANCH  20  21
HETATM   21  S   UNK N   1      27.050  16.932   4.156  0.00  0.00     0.259 S 
HETATM   22  O   UNK N   1      27.006  16.313   2.751  0.00  0.00    -0.201 OA
HETATM   23  O   UNK N   1      26.054  16.081   4.963  0.00  0.00    -0.201 OA
BRANCH  21  24
HETATM   24  N   UNK N   1      26.294  18.524   3.973  0.00  0.00    -0.300 N 
HETATM   25  H   UNK N   1      26.258  19.044   3.095  0.00  0.00     0.173 HD
BRANCH  24  26
HETATM   26  C   UNK N   1      25.726  19.002   5.237  0.00  0.00     0.191 C 
BRANCH  26  27
HETATM   27  C   UNK N   1      26.605  20.121   5.763  0.00  0.00     0.164 C 
HETATM   28  O   UNK N   1      27.378  20.718   5.032  0.00  0.00    -0.648 OA
BRANCH  27  29
HETATM   29  O   UNK N   1      26.527  20.472   7.061  0.00  0.00    -0.775 OA
HETATM   30  H   UNK N   1      26.280  19.867   7.732  0.00  0.00     0.167 HD
ENDBRANCH  27  29
ENDBRANCH  26  27
BRANCH  26  31
HETATM   31  C   UNK N   1      24.289  19.419   4.926  0.00  0.00     0.047 C 
BRANCH  31  32
HETATM   32  C   UNK N   1      23.822  19.125   3.514  0.00  0.00     0.112 C 
BRANCH  32  33
HETATM   33  C   UNK N   1      23.788  20.429   2.786  0.00  0.00     0.139 C 
HETATM   34  O   UNK N   1      22.761  21.087   2.761  0.00  0.00    -0.650 OA
BRANCH  33  35
HETATM   35  O   UNK N   1      24.902  20.902   2.196  0.00  0.00    -0.776 OA
HETATM   36  H   UNK N   1      25.407  20.355   1.626  0.00  0.00     0.167 HD
ENDBRANCH  33  35
ENDBRANCH  32  33
ENDBRANCH  31  32
ENDBRANCH  26  31
ENDBRANCH  24  26
ENDBRANCH  21  24
ENDBRANCH  20  21
ENDBRANCH  10  11
ENDBRANCH   9  10
ENDBRANCH   8   9
TORSDOF 12
ENDMDL
