MODEL 1
REMARK VINA RESULT:      -6.1      0.000      0.000
REMARK  9 active torsions:
REMARK  status: ('A' for Active; 'I' for Inactive)
REMARK    1  A    between atoms: C_2  and  C_3 
REMARK    2  A    between atoms: C_3  and  C_4 
REMARK    3  A    between atoms: C_4  and  O_5 
REMARK    4  A    between atoms: C_6  and  O_5 
REMARK    5  A    between atoms: C_12  and  C_13 
REMARK    6  A    between atoms: C_13  and  O_15 
REMARK    7  A    between atoms: C_17  and  C_18 
REMARK    8  A    between atoms: C_18  and  C_21 
REMARK    9  A    between atoms: C_18  and  C_19 
ROOT
HETATM    1  C   UNK N   1      23.216  18.899   3.851  0.00  0.00     0.153 C 
HETATM    2  C   UNK N   1      23.136  18.481   5.346  0.00  0.00     0.036 C 
HETATM    3  C   UNK N   1      22.635  17.043   5.527  0.00  0.00     0.004 C 
HETATM    4  C   UNK N   1      21.268  16.858   4.866  0.00  0.00     0.011 C 
HETATM    5  C   UNK N   1      21.380  17.148   3.371  0.00  0.00     0.043 A 
HETATM    6  C   UNK N   1      21.898  18.547   3.162  0.00  0.00    -0.012 A 
HETATM    7  C   UNK N   1      21.059  19.231   2.366  0.00  0.00     0.108 A 
HETATM    8  N   UNK N   1      19.952  18.443   2.021  0.00  0.00    -0.378 N 
HETATM    9  C   UNK N   1      20.005  17.145   2.642  0.00  0.00     0.101 A 
HETATM   10  H   UNK N   1      19.226  18.740   1.427  0.00  0.00     0.160 HD
ENDROOT
BRANCH   1  11
HETATM   11  O   UNK N   1      23.680  20.222   3.653  0.00  0.00    -0.381 OA
BRANCH  11  12
HETATM   12  C   UNK N   1      24.971  20.228   3.086  0.00  0.00     0.168 C 
BRANCH  12  13
HETATM   13  C   UNK N   1      26.019  20.471   4.160  0.00  0.00     0.026 C 
BRANCH  13  14
HETATM   14  C   UNK N   1      27.253  19.628   3.903  0.00  0.00    -0.002 C 
HETATM   15  C   UNK N   1      26.875  18.162   3.913  0.00  0.00     0.005 C 
ENDBRANCH  13  14
ENDBRANCH  12  13
ENDBRANCH  11  12
ENDBRANCH   1  11
BRANCH   7  16
HETATM   16  C   UNK N   1      21.147  20.617   1.825  0.00  0.00     0.193 C 
HETATM   17  O   UNK N   1      21.138  20.777   0.616  0.00  0.00    -0.645 OA
BRANCH  16  18
HETATM   18  O   UNK N   1      21.293  21.691   2.615  0.00  0.00    -0.772 OA
HETATM   19  H   UNK N   1      22.137  22.030   2.837  0.00  0.00     0.167 HD
ENDBRANCH  16  18
ENDBRANCH   7  16
BRANCH   9  20
HETATM   20  C   UNK N   1      19.891  16.017   1.591  0.00  0.00     0.070 C 
BRANCH  20  21
HETATM   21  C   UNK N   1      19.520  16.560   0.235  0.00  0.00     0.237 C 
HETATM   22  O   UNK N   1      20.331  17.175  -0.441  0.00  0.00    -0.306 OA
ENDBRANCH  20  21
BRANCH  20  23
HETATM   23  C   UNK N   1      21.167  15.163   1.510  0.00  0.00     0.009 C 
HETATM   24  C   UNK N   1      20.966  13.820   0.825  0.00  0.00     0.006 C 
ENDBRANCH  20  23
ENDBRANCH   9  20
TORSDOF 9
ENDMDL
MODEL 2
REMARK VINA RESULT:      -6.0      7.933     11.803
REMARK  9 active torsions:
REMARK  status: ('A' for Active; 'I' for Inactive)
REMARK    1  A    between atoms: C_2  and  C_3 
REMARK    2  A    between atoms: C_3  and  C_4 
REMARK    3  A    between atoms: C_4  and  O_5 
REMARK    4  A    between atoms: C_6  and  O_5 
REMARK    5  A    between atoms: C_12  and  C_13 
REMARK    6  A    between atoms: C_13  and  O_15 
REMARK    7  A    between atoms: C_17  and  C_18 
REMARK    8  A    between atoms: C_18  and  C_21 
REMARK    9  A    between atoms: C_18  and  C_19 
ROOT
HETATM    1  C   UNK N   1      30.461  16.885   5.895  0.00  0.00     0.153 C 
HETATM    2  C   UNK N   1      31.119  17.552   4.654  0.00  0.00     0.036 C 
HETATM    3  C   UNK N   1      32.588  17.147   4.480  0.00  0.00     0.004 C 
HETATM    4  C   UNK N   1      33.395  17.485   5.736  0.00  0.00     0.011 C 
HETATM    5  C   UNK N   1      32.821  16.728   6.931  0.00  0.00     0.043 A 
HETATM    6  C   UNK N   1      31.368  17.084   7.109  0.00  0.00    -0.012 A 
HETATM    7  C   UNK N   1      31.154  17.516   8.363  0.00  0.00     0.108 A 
HETATM    8  N   UNK N   1      32.353  17.540   9.089  0.00  0.00    -0.378 N 
HETATM    9  C   UNK N   1      33.474  17.134   8.284  0.00  0.00     0.101 A 
HETATM   10  H   UNK N   1      32.420  17.802  10.036  0.00  0.00     0.160 HD
ENDROOT
BRANCH   1  11
HETATM   11  O   UNK N   1      29.102  17.237   6.078  0.00  0.00    -0.381 OA
BRANCH  11  12
HETATM   12  C   UNK N   1      28.757  18.354   5.291  0.00  0.00     0.168 C 
BRANCH  12  13
HETATM   13  C   UNK N   1      27.823  19.274   6.060  0.00  0.00     0.026 C 
BRANCH  13  14
HETATM   14  C   UNK N   1      27.621  20.578   5.313  0.00  0.00    -0.002 C 
HETATM   15  C   UNK N   1      27.095  21.631   6.265  0.00  0.00     0.005 C 
ENDBRANCH  13  14
ENDBRANCH  12  13
ENDBRANCH  11  12
ENDBRANCH   1  11
BRANCH   7  16
HETATM   16  C   UNK N   1      29.896  17.932   9.044  0.00  0.00     0.193 C 
HETATM   17  O   UNK N   1      29.924  18.892   9.796  0.00  0.00    -0.645 OA
BRANCH  16  18
HETATM   18  O   UNK N   1      28.745  17.258   8.906  0.00  0.00    -0.772 OA
HETATM   19  H   UNK N   1      28.093  17.249   9.578  0.00  0.00     0.167 HD
ENDBRANCH  16  18
ENDBRANCH   7  16
BRANCH   9  20
HETATM   20  C   UNK N   1      34.246  15.968   8.946  0.00  0.00     0.070 C 
BRANCH  20  21
HETATM   21  C   UNK N   1      35.191  16.465  10.008  0.00  0.00     0.237 C 
HETATM   22  O   UNK N   1      35.443  17.655  10.123  0.00  0.00    -0.306 OA
ENDBRANCH  20  21
BRANCH  20  23
HETATM   23  C   UNK N   1      33.305  14.891   9.508  0.00  0.00     0.009 C 
HETATM   24  C   UNK N   1      33.367  13.567   8.760  0.00  0.00     0.006 C 
ENDBRANCH  20  23
ENDBRANCH   9  20
TORSDOF 9
ENDMDL
MODEL 3
REMARK VINA RESULT:      -5.7     10.615     12.120
REMARK  9 active torsions:
REMARK  status: ('A' for Active; 'I' for Inactive)
REMARK    1  A    between atoms: C_2  and  C_3 
REMARK    2  A    between atoms: C_3  and  C_4 
REMARK    3  A    between atoms: C_4  and  O_5 
REMARK    4  A    between atoms: C_6  and  O_5 
REMARK    5  A    between atoms: C_12  and  C_13 
REMARK    6  A    between atoms: C_13  and  O_15 
REMARK    7  A    between atoms: C_17  and  C_18 
REMARK    8  A    between atoms: C_18  and  C_21 
REMARK    9  A    between atoms: C_18  and  C_19 
ROOT
HETATM    1  C   UNK N   1      29.228  23.062  -5.994  0.00  0.00     0.153 C 
HETATM    2  C   UNK N   1      28.461  22.031  -6.869  0.00  0.00     0.036 C 
HETATM    3  C   UNK N   1      27.209  22.631  -7.520  0.00  0.00     0.004 C 
HETATM    4  C   UNK N   1      26.269  23.205  -6.458  0.00  0.00     0.011 C 
HETATM    5  C   UNK N   1      26.988  24.307  -5.683  0.00  0.00     0.043 A 
HETATM    6  C   UNK N   1      28.240  23.753  -5.055  0.00  0.00    -0.012 A 
HETATM    7  C   UNK N   1      28.238  24.000  -3.735  0.00  0.00     0.108 A 
HETATM    8  N   UNK N   1      27.055  24.653  -3.356  0.00  0.00    -0.378 N 
HETATM    9  C   UNK N   1      26.167  24.839  -4.473  0.00  0.00     0.101 A 
HETATM   10  H   UNK N   1      26.857  24.947  -2.438  0.00  0.00     0.160 HD
ENDROOT
BRANCH   1  11
HETATM   11  O   UNK N   1      30.393  22.537  -5.384  0.00  0.00    -0.381 OA
BRANCH  11  12
HETATM   12  C   UNK N   1      30.268  21.151  -5.160  0.00  0.00     0.168 C 
BRANCH  12  13
HETATM   13  C   UNK N   1      31.132  20.726  -3.984  0.00  0.00     0.026 C 
BRANCH  13  14
HETATM   14  C   UNK N   1      32.354  21.617  -3.868  0.00  0.00    -0.002 C 
HETATM   15  C   UNK N   1      33.448  20.880  -3.125  0.00  0.00     0.005 C 
ENDBRANCH  13  14
ENDBRANCH  12  13
ENDBRANCH  11  12
ENDBRANCH   1  11
BRANCH   7  16
HETATM   16  C   UNK N   1      29.259  23.708  -2.690  0.00  0.00     0.193 C 
HETATM   17  O   UNK N   1      28.960  22.972  -1.765  0.00  0.00    -0.645 OA
BRANCH  16  18
HETATM   18  O   UNK N   1      30.478  24.267  -2.698  0.00  0.00    -0.772 OA
HETATM   19  H   UNK N   1      31.009  24.283  -3.469  0.00  0.00     0.167 HD
ENDBRANCH  16  18
ENDBRANCH   7  16
BRANCH   9  20
HETATM   20  C   UNK N   1      25.771  26.326  -4.630  0.00  0.00     0.070 C 
BRANCH  20  21
HETATM   21  C   UNK N   1      26.443  27.189  -3.595  0.00  0.00     0.237 C 
HETATM   22  O   UNK N   1      25.901  27.434  -2.528  0.00  0.00    -0.306 OA
ENDBRANCH  20  21
BRANCH  20  23
HETATM   23  C   UNK N   1      26.042  26.856  -6.047  0.00  0.00     0.009 C 
HETATM   24  C   UNK N   1      26.973  28.058  -6.088  0.00  0.00     0.006 C 
ENDBRANCH  20  23
ENDBRANCH   9  20
TORSDOF 9
ENDMDL
MODEL 4
REMARK VINA RESULT:      -5.6      5.941      9.033
REMARK  9 active torsions:
REMARK  status: ('A' for Active; 'I' for Inactive)
REMARK    1  A    between atoms: C_2  and  C_3 
REMARK    2  A    between atoms: C_3  and  C_4 
REMARK    3  A    between atoms: C_4  and  O_5 
REMARK    4  A    between atoms: C_6  and  O_5 
REMARK    5  A    between atoms: C_12  and  C_13 
REMARK    6  A    between atoms: C_13  and  O_15 
REMARK    7  A    between atoms: C_17  and  C_18 
REMARK    8  A    between atoms: C_18  and  C_21 
REMARK    9  A    between atoms: C_18  and  C_19 
ROOT
HETATM    1  C   UNK N   1      30.671  16.866   6.931  0.00  0.00     0.153 C 
HETATM    2  C   UNK N   1      30.847  15.716   5.900  0.00  0.00     0.036 C 
HETATM    3  C   UNK N   1      30.541  16.162   4.465  0.00  0.00     0.004 C 
HETATM    4  C   UNK N   1      29.124  16.730   4.365  0.00  0.00     0.011 C 
HETATM    5  C   UNK N   1      28.994  17.940   5.287  0.00  0.00     0.043 A 
HETATM    6  C   UNK N   1      29.317  17.538   6.703  0.00  0.00    -0.012 A 
HETATM    7  C   UNK N   1      28.304  17.878   7.518  0.00  0.00     0.108 A 
HETATM    8  N   UNK N   1      27.255  18.455   6.788  0.00  0.00    -0.378 N 
HETATM    9  C   UNK N   1      27.540  18.488   5.377  0.00  0.00     0.101 A 
HETATM   10  H   UNK N   1      26.425  18.797   7.191  0.00  0.00     0.160 HD
ENDROOT
BRANCH   1  11
HETATM   11  O   UNK N   1      30.951  16.484   8.265  0.00  0.00    -0.381 OA
BRANCH  11  12
HETATM   12  C   UNK N   1      32.323  16.629   8.557  0.00  0.00     0.168 C 
BRANCH  12  13
HETATM   13  C   UNK N   1      32.780  18.047   8.257  0.00  0.00     0.026 C 
BRANCH  13  14
HETATM   14  C   UNK N   1      34.129  18.038   7.562  0.00  0.00    -0.002 C 
HETATM   15  C   UNK N   1      34.387  16.665   6.978  0.00  0.00     0.005 C 
ENDBRANCH  13  14
ENDBRANCH  12  13
ENDBRANCH  11  12
ENDBRANCH   1  11
BRANCH   7  16
HETATM   16  C   UNK N   1      28.160  17.745   8.995  0.00  0.00     0.193 C 
HETATM   17  O   UNK N   1      28.869  18.424   9.718  0.00  0.00    -0.645 OA
BRANCH  16  18
HETATM   18  O   UNK N   1      27.318  16.868   9.560  0.00  0.00    -0.772 OA
HETATM   19  H   UNK N   1      26.482  17.129   9.891  0.00  0.00     0.167 HD
ENDBRANCH  16  18
ENDBRANCH   7  16
BRANCH   9  20
HETATM   20  C   UNK N   1      27.407  19.921   4.813  0.00  0.00     0.070 C 
BRANCH  20  21
HETATM   21  C   UNK N   1      26.924  19.912   3.386  0.00  0.00     0.237 C 
HETATM   22  O   UNK N   1      26.009  20.636   3.025  0.00  0.00    -0.306 OA
ENDBRANCH  20  21
BRANCH  20  23
HETATM   23  C   UNK N   1      26.514  20.813   5.690  0.00  0.00     0.009 C 
HETATM   24  C   UNK N   1      27.266  21.925   6.406  0.00  0.00     0.006 C 
ENDBRANCH  20  23
ENDBRANCH   9  20
TORSDOF 9
ENDMDL
MODEL 5
REMARK VINA RESULT:      -5.5     10.432     12.582
REMARK  9 active torsions:
REMARK  status: ('A' for Active; 'I' for Inactive)
REMARK    1  A    between atoms: C_2  and  C_3 
REMARK    2  A    between atoms: C_3  and  C_4 
REMARK    3  A    between atoms: C_4  and  O_5 
REMARK    4  A    between atoms: C_6  and  O_5 
REMARK    5  A    between atoms: C_12  and  C_13 
REMARK    6  A    between atoms: C_13  and  O_15 
REMARK    7  A    between atoms: C_17  and  C_18 
REMARK    8  A    between atoms: C_18  and  C_21 
REMARK    9  A    between atoms: C_18  and  C_19 
ROOT
HETATM    1  C   UNK N   1      28.467  23.098  -6.211  0.00  0.00     0.153 C 
HETATM    2  C   UNK N   1      27.601  22.277  -7.207  0.00  0.00     0.036 C 
HETATM    3  C   UNK N   1      26.625  23.157  -7.999  0.00  0.00     0.004 C 
HETATM    4  C   UNK N   1      25.716  23.944  -7.052  0.00  0.00     0.011 C 
HETATM    5  C   UNK N   1      26.566  24.845  -6.159  0.00  0.00     0.043 A 
HETATM    6  C   UNK N   1      27.556  24.009  -5.389  0.00  0.00    -0.012 A 
HETATM    7  C   UNK N   1      27.436  24.255  -4.074  0.00  0.00     0.108 A 
HETATM    8  N   UNK N   1      26.403  25.173  -3.835  0.00  0.00    -0.378 N 
HETATM    9  C   UNK N   1      25.741  25.563  -5.052  0.00  0.00     0.101 A 
HETATM   10  H   UNK N   1      26.160  25.510  -2.943  0.00  0.00     0.160 HD
ENDROOT
BRANCH   1  11
HETATM   11  O   UNK N   1      29.381  22.311  -5.469  0.00  0.00    -0.381 OA
BRANCH  11  12
HETATM   12  C   UNK N   1      30.459  21.891  -6.274  0.00  0.00     0.168 C 
BRANCH  12  13
HETATM   13  C   UNK N   1      30.585  20.377  -6.241  0.00  0.00     0.026 C 
BRANCH  13  14
HETATM   14  C   UNK N   1      30.495  19.802  -7.642  0.00  0.00    -0.002 C 
HETATM   15  C   UNK N   1      29.236  18.971  -7.768  0.00  0.00     0.005 C 
ENDBRANCH  13  14
ENDBRANCH  12  13
ENDBRANCH  11  12
ENDBRANCH   1  11
BRANCH   7  16
HETATM   16  C   UNK N   1      28.209  23.730  -2.914  0.00  0.00     0.193 C 
HETATM   17  O   UNK N   1      27.603  23.331  -1.935  0.00  0.00    -0.645 OA
BRANCH  16  18
HETATM   18  O   UNK N   1      29.550  23.730  -2.883  0.00  0.00    -0.772 OA
HETATM   19  H   UNK N   1      30.031  24.291  -2.307  0.00  0.00     0.167 HD
ENDBRANCH  16  18
ENDBRANCH   7  16
BRANCH   9  20
HETATM   20  C   UNK N   1      25.735  27.100  -5.217  0.00  0.00     0.070 C 
BRANCH  20  21
HETATM   21  C   UNK N   1      26.195  27.793  -3.961  0.00  0.00     0.237 C 
HETATM   22  O   UNK N   1      25.463  27.887  -2.988  0.00  0.00    -0.306 OA
ENDBRANCH  20  21
BRANCH  20  23
HETATM   23  C   UNK N   1      26.558  27.560  -6.431  0.00  0.00     0.009 C 
HETATM   24  C   UNK N   1      27.553  28.667  -6.117  0.00  0.00     0.006 C 
ENDBRANCH  20  23
ENDBRANCH   9  20
TORSDOF 9
ENDMDL
MODEL 6
REMARK VINA RESULT:      -5.4     11.509     15.091
REMARK  9 active torsions:
REMARK  status: ('A' for Active; 'I' for Inactive)
REMARK    1  A    between atoms: C_2  and  C_3 
REMARK    2  A    between atoms: C_3  and  C_4 
REMARK    3  A    between atoms: C_4  and  O_5 
REMARK    4  A    between atoms: C_6  and  O_5 
REMARK    5  A    between atoms: C_12  and  C_13 
REMARK    6  A    between atoms: C_13  and  O_15 
REMARK    7  A    between atoms: C_17  and  C_18 
REMARK    8  A    between atoms: C_18  and  C_21 
REMARK    9  A    between atoms: C_18  and  C_19 
ROOT
HETATM    1  C   UNK N   1      35.918  13.721   8.221  0.00  0.00     0.153 C 
HETATM    2  C   UNK N   1      35.099  12.451   7.858  0.00  0.00     0.036 C 
HETATM    3  C   UNK N   1      33.870  12.770   6.999  0.00  0.00     0.004 C 
HETATM    4  C   UNK N   1      32.965  13.782   7.706  0.00  0.00     0.011 C 
HETATM    5  C   UNK N   1      33.737  15.077   7.947  0.00  0.00     0.043 A 
HETATM    6  C   UNK N   1      34.969  14.788   8.765  0.00  0.00    -0.012 A 
HETATM    7  C   UNK N   1      34.988  15.573   9.856  0.00  0.00     0.108 A 
HETATM    8  N   UNK N   1      33.839  16.375   9.907  0.00  0.00    -0.378 N 
HETATM    9  C   UNK N   1      32.950  16.108   8.807  0.00  0.00     0.101 A 
HETATM   10  H   UNK N   1      33.661  17.040  10.611  0.00  0.00     0.160 HD
ENDROOT
BRANCH   1  11
HETATM   11  O   UNK N   1      37.063  13.455   9.009  0.00  0.00    -0.381 OA
BRANCH  11  12
HETATM   12  C   UNK N   1      36.934  12.232   9.697  0.00  0.00     0.168 C 
BRANCH  12  13
HETATM   13  C   UNK N   1      37.456  12.365  11.118  0.00  0.00     0.026 C 
BRANCH  13  14
HETATM   14  C   UNK N   1      36.437  11.844  12.113  0.00  0.00    -0.002 C 
HETATM   15  C   UNK N   1      35.040  12.119  11.598  0.00  0.00     0.005 C 
ENDBRANCH  13  14
ENDBRANCH  12  13
ENDBRANCH  11  12
ENDBRANCH   1  11
BRANCH   7  16
HETATM   16  C   UNK N   1      36.004  15.708  10.937  0.00  0.00     0.193 C 
HETATM   17  O   UNK N   1      35.647  15.594  12.097  0.00  0.00    -0.645 OA
BRANCH  16  18
HETATM   18  O   UNK N   1      37.288  16.005  10.687  0.00  0.00    -0.772 OA
HETATM   19  H   UNK N   1      37.956  15.896  11.334  0.00  0.00     0.167 HD
ENDBRANCH  16  18
ENDBRANCH   7  16
BRANCH   9  20
HETATM   20  C   UNK N   1      32.620  17.403   8.028  0.00  0.00     0.070 C 
BRANCH  20  21
HETATM   21  C   UNK N   1      33.770  17.833   7.156  0.00  0.00     0.237 C 
HETATM   22  O   UNK N   1      34.731  18.425   7.626  0.00  0.00    -0.306 OA
ENDBRANCH  20  21
BRANCH  20  23
HETATM   23  C   UNK N   1      31.326  17.276   7.207  0.00  0.00     0.009 C 
HETATM   24  C   UNK N   1      31.559  17.019   5.726  0.00  0.00     0.006 C 
ENDBRANCH  20  23
ENDBRANCH   9  20
TORSDOF 9
ENDMDL
MODEL 7
REMARK VINA RESULT:      -5.4      7.195     11.198
REMARK  9 active torsions:
REMARK  status: ('A' for Active; 'I' for Inactive)
REMARK    1  A    between atoms: C_2  and  C_3 
REMARK    2  A    between atoms: C_3  and  C_4 
REMARK    3  A    between atoms: C_4  and  O_5 
REMARK    4  A    between atoms: C_6  and  O_5 
REMARK    5  A    between atoms: C_12  and  C_13 
REMARK    6  A    between atoms: C_13  and  O_15 
REMARK    7  A    between atoms: C_17  and  C_18 
REMARK    8  A    between atoms: C_18  and  C_21 
REMARK    9  A    between atoms: C_18  and  C_19 
ROOT
HETATM    1  C   UNK N   1      29.250  17.821   6.674  0.00  0.00     0.153 C 
HETATM    2  C   UNK N   1      28.500  18.136   7.999  0.00  0.00     0.036 C 
HETATM    3  C   UNK N   1      29.437  18.666   9.091  0.00  0.00     0.004 C 
HETATM    4  C   UNK N   1      30.568  17.673   9.363  0.00  0.00     0.011 C 
HETATM    5  C   UNK N   1      31.381  17.463   8.087  0.00  0.00     0.043 A 
HETATM    6  C   UNK N   1      30.479  16.969   6.986  0.00  0.00    -0.012 A 
HETATM    7  C   UNK N   1      30.969  15.829   6.471  0.00  0.00     0.108 A 
HETATM    8  N   UNK N   1      32.134  15.441   7.149  0.00  0.00    -0.378 N 
HETATM    9  C   UNK N   1      32.454  16.345   8.222  0.00  0.00     0.101 A 
HETATM   10  H   UNK N   1      32.668  14.647   6.918  0.00  0.00     0.160 HD
ENDROOT
BRANCH   1  11
HETATM   11  O   UNK N   1      28.408  17.334   5.645  0.00  0.00    -0.381 OA
BRANCH  11  12
HETATM   12  C   UNK N   1      28.238  18.296   4.629  0.00  0.00     0.168 C 
BRANCH  12  13
HETATM   13  C   UNK N   1      27.069  19.211   4.957  0.00  0.00     0.026 C 
BRANCH  13  14
HETATM   14  C   UNK N   1      27.548  20.634   5.173  0.00  0.00    -0.002 C 
HETATM   15  C   UNK N   1      26.767  21.264   6.306  0.00  0.00     0.005 C 
ENDBRANCH  13  14
ENDBRANCH  12  13
ENDBRANCH  11  12
ENDBRANCH   1  11
BRANCH   7  16
HETATM   16  C   UNK N   1      30.483  14.985   5.343  0.00  0.00     0.193 C 
HETATM   17  O   UNK N   1      30.365  13.785   5.515  0.00  0.00    -0.645 OA
BRANCH  16  18
HETATM   18  O   UNK N   1      30.224  15.489   4.127  0.00  0.00    -0.772 OA
HETATM   19  H   UNK N   1      30.907  15.700   3.523  0.00  0.00     0.167 HD
ENDBRANCH  16  18
ENDBRANCH   7  16
BRANCH   9  20
HETATM   20  C   UNK N   1      33.897  16.885   8.086  0.00  0.00     0.070 C 
BRANCH  20  21
HETATM   21  C   UNK N   1      33.922  18.391   8.043  0.00  0.00     0.237 C 
HETATM   22  O   UNK N   1      34.921  19.015   8.367  0.00  0.00    -0.306 OA
ENDBRANCH  20  21
BRANCH  20  23
HETATM   23  C   UNK N   1      34.827  16.352   9.188  0.00  0.00     0.009 C 
HETATM   24  C   UNK N   1      34.135  15.437  10.188  0.00  0.00     0.006 C 
ENDBRANCH  20  23
ENDBRANCH   9  20
TORSDOF 9
ENDMDL
MODEL 8
REMARK VINA RESULT:      -5.3      6.746     10.677
REMARK  9 active torsions:
REMARK  status: ('A' for Active; 'I' for Inactive)
REMARK    1  A    between atoms: C_2  and  C_3 
REMARK    2  A    between atoms: C_3  and  C_4 
REMARK    3  A    between atoms: C_4  and  O_5 
REMARK    4  A    between atoms: C_6  and  O_5 
REMARK    5  A    between atoms: C_12  and  C_13 
REMARK    6  A    between atoms: C_13  and  O_15 
REMARK    7  A    between atoms: C_17  and  C_18 
REMARK    8  A    between atoms: C_18  and  C_21 
REMARK    9  A    between atoms: C_18  and  C_19 
ROOT
HETATM    1  C   UNK N   1      29.087  17.078   5.844  0.00  0.00     0.153 C 
HETATM    2  C   UNK N   1      29.947  17.827   4.788  0.00  0.00     0.036 C 
HETATM    3  C   UNK N   1      31.378  17.284   4.705  0.00  0.00     0.004 C 
HETATM    4  C   UNK N   1      32.064  17.353   6.071  0.00  0.00     0.011 C 
HETATM    5  C   UNK N   1      31.283  16.511   7.077  0.00  0.00     0.043 A 
HETATM    6  C   UNK N   1      29.862  17.004   7.159  0.00  0.00    -0.012 A 
HETATM    7  C   UNK N   1      29.548  17.284   8.435  0.00  0.00     0.108 A 
HETATM    8  N   UNK N   1      30.651  17.070   9.273  0.00  0.00    -0.378 N 
HETATM    9  C   UNK N   1      31.812  16.651   8.533  0.00  0.00     0.101 A 
HETATM   10  H   UNK N   1      30.634  17.192  10.250  0.00  0.00     0.160 HD
ENDROOT
BRANCH   1  11
HETATM   11  O   UNK N   1      27.757  17.556   5.939  0.00  0.00    -0.381 OA
BRANCH  11  12
HETATM   12  C   UNK N   1      26.897  16.839   5.083  0.00  0.00     0.168 C 
BRANCH  12  13
HETATM   13  C   UNK N   1      26.476  17.707   3.909  0.00  0.00     0.026 C 
BRANCH  13  14
HETATM   14  C   UNK N   1      26.146  19.113   4.374  0.00  0.00    -0.002 C 
HETATM   15  C   UNK N   1      27.033  20.105   3.653  0.00  0.00     0.005 C 
ENDBRANCH  13  14
ENDBRANCH  12  13
ENDBRANCH  11  12
ENDBRANCH   1  11
BRANCH   7  16
HETATM   16  C   UNK N   1      28.267  17.745   9.041  0.00  0.00     0.193 C 
HETATM   17  O   UNK N   1      27.671  16.998   9.796  0.00  0.00    -0.645 OA
BRANCH  16  18
HETATM   18  O   UNK N   1      27.716  18.931   8.743  0.00  0.00    -0.772 OA
HETATM   19  H   UNK N   1      28.237  19.695   8.595  0.00  0.00     0.167 HD
ENDBRANCH  16  18
ENDBRANCH   7  16
BRANCH   9  20
HETATM   20  C   UNK N   1      32.382  15.325   9.090  0.00  0.00     0.070 C 
BRANCH  20  21
HETATM   21  C   UNK N   1      32.454  14.264   8.024  0.00  0.00     0.237 C 
HETATM   22  O   UNK N   1      32.415  13.077   8.311  0.00  0.00    -0.306 OA
ENDBRANCH  20  21
BRANCH  20  23
HETATM   23  C   UNK N   1      33.748  15.516   9.769  0.00  0.00     0.009 C 
HETATM   24  C   UNK N   1      34.828  16.051   8.841  0.00  0.00     0.006 C 
ENDBRANCH  20  23
ENDBRANCH   9  20
TORSDOF 9
ENDMDL
MODEL 9
REMARK VINA RESULT:      -5.1      7.703     11.901
REMARK  9 active torsions:
REMARK  status: ('A' for Active; 'I' for Inactive)
REMARK    1  A    between atoms: C_2  and  C_3 
REMARK    2  A    between atoms: C_3  and  C_4 
REMARK    3  A    between atoms: C_4  and  O_5 
REMARK    4  A    between atoms: C_6  and  O_5 
REMARK    5  A    between atoms: C_12  and  C_13 
REMARK    6  A    between atoms: C_13  and  O_15 
REMARK    7  A    between atoms: C_17  and  C_18 
REMARK    8  A    between atoms: C_18  and  C_21 
REMARK    9  A    between atoms: C_18  and  C_19 
ROOT
HETATM    1  C   UNK N   1      30.485  16.762   5.788  0.00  0.00     0.153 C 
HETATM    2  C   UNK N   1      30.935  17.470   4.479  0.00  0.00     0.036 C 
HETATM    3  C   UNK N   1      32.412  17.220   4.155  0.00  0.00     0.004 C 
HETATM    4  C   UNK N   1      33.304  17.666   5.315  0.00  0.00     0.011 C 
HETATM    5  C   UNK N   1      32.943  16.876   6.570  0.00  0.00     0.043 A 
HETATM    6  C   UNK N   1      31.486  17.080   6.897  0.00  0.00    -0.012 A 
HETATM    7  C   UNK N   1      31.358  17.512   8.163  0.00  0.00     0.108 A 
HETATM    8  N   UNK N   1      32.617  17.677   8.759  0.00  0.00    -0.378 N 
HETATM    9  C   UNK N   1      33.685  17.376   7.843  0.00  0.00     0.101 A 
HETATM   10  H   UNK N   1      32.753  17.963   9.691  0.00  0.00     0.160 HD
ENDROOT
BRANCH   1  11
HETATM   11  O   UNK N   1      29.122  16.971   6.109  0.00  0.00    -0.381 OA
BRANCH  11  12
HETATM   12  C   UNK N   1      28.335  17.074   4.945  0.00  0.00     0.168 C 
BRANCH  12  13
HETATM   13  C   UNK N   1      26.924  16.578   5.214  0.00  0.00     0.026 C 
BRANCH  13  14
HETATM   14  C   UNK N   1      26.955  15.252   5.950  0.00  0.00    -0.002 C 
HETATM   15  C   UNK N   1      25.819  15.201   6.949  0.00  0.00     0.005 C 
ENDBRANCH  13  14
ENDBRANCH  12  13
ENDBRANCH  11  12
ENDBRANCH   1  11
BRANCH   7  16
HETATM   16  C   UNK N   1      30.140  17.806   8.970  0.00  0.00     0.193 C 
HETATM   17  O   UNK N   1      29.852  17.062   9.891  0.00  0.00    -0.645 OA
BRANCH  16  18
HETATM   18  O   UNK N   1      29.318  18.827   8.686  0.00  0.00    -0.772 OA
HETATM   19  H   UNK N   1      28.585  18.726   8.113  0.00  0.00     0.167 HD
ENDBRANCH  16  18
ENDBRANCH   7  16
BRANCH   9  20
HETATM   20  C   UNK N   1      34.642  16.312   8.430  0.00  0.00     0.070 C 
BRANCH  20  21
HETATM   21  C   UNK N   1      34.859  16.519   9.907  0.00  0.00     0.237 C 
HETATM   22  O   UNK N   1      35.477  17.487  10.324  0.00  0.00    -0.306 OA
ENDBRANCH  20  21
BRANCH  20  23
HETATM   23  C   UNK N   1      34.170  14.878   8.140  0.00  0.00     0.009 C 
HETATM   24  C   UNK N   1      33.402  14.239   9.287  0.00  0.00     0.006 C 
ENDBRANCH  20  23
ENDBRANCH   9  20
TORSDOF 9
ENDMDL
