REMARK  9 active torsions:
REMARK  status: ('A' for Active; 'I' for Inactive)
REMARK    1  A    between atoms: C_2  and  C_3 
REMARK    2  A    between atoms: C_3  and  C_4 
REMARK    3  A    between atoms: C_4  and  O_5 
REMARK    4  A    between atoms: C_6  and  O_5 
REMARK    5  A    between atoms: C_12  and  C_13 
REMARK    6  A    between atoms: C_13  and  O_15 
REMARK    7  A    between atoms: C_17  and  C_18 
REMARK    8  A    between atoms: C_18  and  C_21 
REMARK    9  A    between atoms: C_18  and  C_19 
ROOT
HETATM    1  C   UNK N   1      -1.287   0.436  -0.294  0.00  0.00     0.153 C 
HETATM    2  C   UNK N   1      -1.403   1.493   0.840  0.00  0.00     0.036 C 
HETATM    3  C   UNK N   1      -0.161   2.387   0.938  0.00  0.00     0.004 C 
HETATM    4  C   UNK N   1       1.098   1.543   1.147  0.00  0.00     0.011 C 
HETATM    5  C   UNK N   1       1.277   0.592  -0.034  0.00  0.00     0.043 A 
HETATM    6  C   UNK N   1       0.057  -0.281  -0.173  0.00  0.00    -0.012 A 
HETATM    7  C   UNK N   1       0.418  -1.575  -0.172  0.00  0.00     0.108 A 
HETATM    8  N   UNK N   1       1.804  -1.701   0.002  0.00  0.00    -0.378 N 
HETATM    9  C   UNK N   1       2.441  -0.421   0.167  0.00  0.00     0.101 A 
HETATM   10  H   UNK N   1       2.283  -2.561   0.010  0.00  0.00     0.160 HD
ENDROOT
BRANCH   1  11
HETATM   11  O   UNK N   1      -2.423  -0.401  -0.411  0.00  0.00    -0.381 OA
BRANCH  11  12
HETATM   12  C   UNK N   1      -2.930  -0.750   0.857  0.00  0.00     0.168 C 
BRANCH  12  13
HETATM   13  C   UNK N   1      -4.339  -1.305   0.729  0.00  0.00     0.026 C 
BRANCH  13  14
HETATM   14  C   UNK N   1      -5.273  -0.263   0.144  0.00  0.00    -0.002 C 
HETATM   15  C   UNK N   1      -6.675  -0.489   0.669  0.00  0.00     0.005 C 
ENDBRANCH  13  14
ENDBRANCH  12  13
ENDBRANCH  11  12
ENDBRANCH   1  11
BRANCH   7  16
HETATM   16  C   UNK N   1      -0.398  -2.811  -0.334  0.00  0.00     0.193 C 
HETATM   17  O   UNK N   1       0.149  -3.895  -0.228  0.00  0.00    -0.645 OA
BRANCH  16  18
HETATM   18  O   UNK N   1      -1.702  -2.777  -0.647  0.00  0.00    -0.772 OA
HETATM   19  H   UNK N   1      -2.137  -1.977  -0.865  0.00  0.00     0.167 HD
ENDBRANCH  16  18
ENDBRANCH   7  16
BRANCH   9  20
HETATM   20  C   UNK N   1       3.582  -0.228  -0.859  0.00  0.00     0.070 C 
BRANCH  20  21
HETATM   21  C   UNK N   1       4.224   1.128  -0.723  0.00  0.00     0.237 C 
HETATM   22  O   UNK N   1       4.771   1.466   0.316  0.00  0.00    -0.306 OA
ENDBRANCH  20  21
BRANCH  20  23
HETATM   23  C   UNK N   1       4.635  -1.345  -0.778  0.00  0.00     0.009 C 
HETATM   24  C   UNK N   1       5.323  -1.446   0.575  0.00  0.00     0.006 C 
ENDBRANCH  20  23
ENDBRANCH   9  20
TORSDOF 9
