MODEL 1
REMARK VINA RESULT:      -6.5      0.000      0.000
REMARK  5 active torsions:
REMARK  status: ('A' for Active; 'I' for Inactive)
REMARK    1  A    between atoms: C_3  and  C_4 
REMARK    2  A    between atoms: C_6  and  C_3 
REMARK    3  A    between atoms: C_8  and  C_9 
REMARK    4  A    between atoms: C_9  and  O_11 
REMARK    5  A    between atoms: C_17  and  O_18 
ROOT
HETATM    1  C   UNK N   1      31.999  16.771   8.315  0.00  0.00     0.126 C 
HETATM    2  N   UNK N   1      30.952  17.186   9.218  0.00  0.00    -0.375 N 
HETATM    3  C   UNK N   1      29.774  17.444   8.508  0.00  0.00     0.108 C 
HETATM    4  C   UNK N   1      29.994  17.413   7.195  0.00  0.00    -0.012 C 
HETATM    5  C   UNK N   1      31.453  17.200   6.919  0.00  0.00     0.047 C 
HETATM    6  C   UNK N   1      31.612  16.120   5.845  0.00  0.00     0.011 C 
HETATM    7  C   UNK N   1      30.757  16.381   4.587  0.00  0.00     0.004 C 
HETATM    8  C   UNK N   1      29.754  17.539   4.723  0.00  0.00     0.036 C 
HETATM    9  C   UNK N   1      28.996  17.543   6.063  0.00  0.00     0.152 C 
HETATM   10  H   UNK N   1      31.051  17.273  10.193  0.00  0.00     0.160 HD
ENDROOT
BRANCH   1  11
HETATM   11  C   UNK N   1      33.411  17.268   8.647  0.00  0.00    -0.001 C 
HETATM   12  C   UNK N   1      34.280  16.617   9.446  0.00  0.00    -0.019 C 
HETATM   13  C   UNK N   1      34.035  15.318  10.141  0.00  0.00     0.036 C 
BRANCH  11  14
HETATM   14  C   UNK N   1      33.922  18.502   8.015  0.00  0.00     0.267 C 
HETATM   15  O   UNK N   1      34.949  19.040   8.397  0.00  0.00    -0.302 OA
ENDBRANCH  11  14
ENDBRANCH   1  11
BRANCH   3  16
HETATM   16  C   UNK N   1      28.487  17.684   9.205  0.00  0.00     0.193 C 
HETATM   17  O   UNK N   1      28.006  16.853   9.951  0.00  0.00    -0.645 OA
BRANCH  16  18
HETATM   18  O   UNK N   1      27.829  18.841   8.991  0.00  0.00    -0.772 OA
HETATM   19  H   UNK N   1      27.105  18.878   8.397  0.00  0.00     0.167 HD
ENDBRANCH  16  18
ENDBRANCH   3  16
BRANCH   9  20
HETATM   20  O   UNK N   1      28.265  18.743   6.176  0.00  0.00    -0.386 OA
HETATM   21  C   UNK N   1      28.102  19.277   4.886  0.00  0.00     0.202 C 
ENDBRANCH   9  20
TORSDOF 5
ENDMDL
MODEL 2
REMARK VINA RESULT:      -6.2      1.804      2.592
REMARK  5 active torsions:
REMARK  status: ('A' for Active; 'I' for Inactive)
REMARK    1  A    between atoms: C_3  and  C_4 
REMARK    2  A    between atoms: C_6  and  C_3 
REMARK    3  A    between atoms: C_8  and  C_9 
REMARK    4  A    between atoms: C_9  and  O_11 
REMARK    5  A    between atoms: C_17  and  O_18 
ROOT
HETATM    1  C   UNK N   1      30.792  16.604   6.604  0.00  0.00     0.126 C 
HETATM    2  N   UNK N   1      30.522  17.040   7.953  0.00  0.00    -0.375 N 
HETATM    3  C   UNK N   1      29.383  17.851   7.982  0.00  0.00     0.108 C 
HETATM    4  C   UNK N   1      28.975  18.142   6.747  0.00  0.00    -0.012 C 
HETATM    5  C   UNK N   1      29.930  17.573   5.739  0.00  0.00     0.047 C 
HETATM    6  C   UNK N   1      29.139  16.865   4.636  0.00  0.00     0.011 C 
HETATM    7  C   UNK N   1      28.021  17.739   4.031  0.00  0.00     0.004 C 
HETATM    8  C   UNK N   1      27.764  19.059   4.779  0.00  0.00     0.036 C 
HETATM    9  C   UNK N   1      27.743  18.905   6.310  0.00  0.00     0.152 C 
HETATM   10  H   UNK N   1      31.061  16.800   8.741  0.00  0.00     0.160 HD
ENDROOT
BRANCH   1  11
HETATM   11  C   UNK N   1      32.271  16.512   6.208  0.00  0.00    -0.001 C 
HETATM   12  C   UNK N   1      32.777  15.596   5.360  0.00  0.00    -0.019 C 
HETATM   13  C   UNK N   1      32.009  14.523   4.659  0.00  0.00     0.036 C 
BRANCH  11  14
HETATM   14  C   UNK N   1      33.229  17.517   6.712  0.00  0.00     0.267 C 
HETATM   15  O   UNK N   1      34.208  17.851   6.065  0.00  0.00    -0.302 OA
ENDBRANCH  11  14
ENDBRANCH   1  11
BRANCH   3  16
HETATM   16  C   UNK N   1      28.758  18.266   9.261  0.00  0.00     0.193 C 
HETATM   17  O   UNK N   1      29.429  18.671  10.192  0.00  0.00    -0.645 OA
BRANCH  16  18
HETATM   18  O   UNK N   1      27.421  18.174   9.401  0.00  0.00    -0.772 OA
HETATM   19  H   UNK N   1      26.942  18.829   9.871  0.00  0.00     0.167 HD
ENDBRANCH  16  18
ENDBRANCH   3  16
BRANCH   9  20
HETATM   20  O   UNK N   1      27.711  20.184   6.902  0.00  0.00    -0.386 OA
HETATM   21  C   UNK N   1      27.328  21.111   5.916  0.00  0.00     0.202 C 
ENDBRANCH   9  20
TORSDOF 5
ENDMDL
MODEL 3
REMARK VINA RESULT:      -6.0      1.820      5.491
REMARK  5 active torsions:
REMARK  status: ('A' for Active; 'I' for Inactive)
REMARK    1  A    between atoms: C_3  and  C_4 
REMARK    2  A    between atoms: C_6  and  C_3 
REMARK    3  A    between atoms: C_8  and  C_9 
REMARK    4  A    between atoms: C_9  and  O_11 
REMARK    5  A    between atoms: C_17  and  O_18 
ROOT
HETATM    1  C   UNK N   1      31.033  17.463   7.685  0.00  0.00     0.126 C 
HETATM    2  N   UNK N   1      32.082  18.213   8.334  0.00  0.00    -0.375 N 
HETATM    3  C   UNK N   1      33.263  17.465   8.367  0.00  0.00     0.108 C 
HETATM    4  C   UNK N   1      33.046  16.215   7.960  0.00  0.00    -0.012 C 
HETATM    5  C   UNK N   1      31.586  16.005   7.688  0.00  0.00     0.047 C 
HETATM    6  C   UNK N   1      31.419  15.288   6.346  0.00  0.00     0.011 C 
HETATM    7  C   UNK N   1      32.279  14.012   6.226  0.00  0.00     0.004 C 
HETATM    8  C   UNK N   1      33.292  13.813   7.367  0.00  0.00     0.036 C 
HETATM    9  C   UNK N   1      34.047  15.099   7.751  0.00  0.00     0.152 C 
HETATM   10  H   UNK N   1      31.981  19.121   8.699  0.00  0.00     0.160 HD
ENDROOT
BRANCH   1  11
HETATM   11  C   UNK N   1      29.624  17.631   8.267  0.00  0.00    -0.001 C 
HETATM   12  C   UNK N   1      28.490  17.592   7.541  0.00  0.00    -0.019 C 
HETATM   13  C   UNK N   1      28.394  17.381   6.065  0.00  0.00     0.036 C 
BRANCH  11  14
HETATM   14  C   UNK N   1      29.446  17.777   9.726  0.00  0.00     0.267 C 
HETATM   15  O   UNK N   1      29.683  18.829  10.298  0.00  0.00    -0.302 OA
ENDBRANCH  11  14
ENDBRANCH   1  11
BRANCH   3  16
HETATM   16  C   UNK N   1      34.550  18.068   8.787  0.00  0.00     0.193 C 
HETATM   17  O   UNK N   1      35.003  19.050   8.228  0.00  0.00    -0.645 OA
BRANCH  16  18
HETATM   18  O   UNK N   1      35.242  17.506   9.799  0.00  0.00    -0.772 OA
HETATM   19  H   UNK N   1      35.633  18.037  10.465  0.00  0.00     0.167 HD
ENDBRANCH  16  18
ENDBRANCH   3  16
BRANCH   9  20
HETATM   20  O   UNK N   1      34.788  14.864   8.926  0.00  0.00    -0.386 OA
HETATM   21  C   UNK N   1      34.026  14.029   9.763  0.00  0.00     0.202 C 
ENDBRANCH   9  20
TORSDOF 5
ENDMDL
MODEL 4
REMARK VINA RESULT:      -5.9     13.951     16.726
REMARK  5 active torsions:
REMARK  status: ('A' for Active; 'I' for Inactive)
REMARK    1  A    between atoms: C_3  and  C_4 
REMARK    2  A    between atoms: C_6  and  C_3 
REMARK    3  A    between atoms: C_8  and  C_9 
REMARK    4  A    between atoms: C_9  and  O_11 
REMARK    5  A    between atoms: C_17  and  O_18 
ROOT
HETATM    1  C   UNK N   1      27.805  27.811  -5.025  0.00  0.00     0.126 C 
HETATM    2  N   UNK N   1      27.847  26.807  -3.988  0.00  0.00    -0.375 N 
HETATM    3  C   UNK N   1      27.400  25.578  -4.484  0.00  0.00     0.108 C 
HETATM    4  C   UNK N   1      26.895  25.715  -5.709  0.00  0.00    -0.012 C 
HETATM    5  C   UNK N   1      26.892  27.161  -6.109  0.00  0.00     0.047 C 
HETATM    6  C   UNK N   1      27.446  27.293  -7.530  0.00  0.00     0.011 C 
HETATM    7  C   UNK N   1      26.760  26.352  -8.542  0.00  0.00     0.004 C 
HETATM    8  C   UNK N   1      25.813  25.315  -7.912  0.00  0.00     0.036 C 
HETATM    9  C   UNK N   1      26.387  24.644  -6.650  0.00  0.00     0.152 C 
HETATM   10  H   UNK N   1      28.149  26.965  -3.064  0.00  0.00     0.160 HD
ENDROOT
BRANCH   1  11
HETATM   11  C   UNK N   1      27.396  29.221  -4.583  0.00  0.00    -0.001 C 
HETATM   12  C   UNK N   1      27.869  30.358  -5.131  0.00  0.00    -0.019 C 
HETATM   13  C   UNK N   1      28.856  30.455  -6.248  0.00  0.00     0.036 C 
BRANCH  11  14
HETATM   14  C   UNK N   1      26.367  29.392  -3.538  0.00  0.00     0.267 C 
HETATM   15  O   UNK N   1      25.755  28.441  -3.078  0.00  0.00    -0.302 OA
ENDBRANCH  11  14
ENDBRANCH   1  11
BRANCH   3  16
HETATM   16  C   UNK N   1      27.535  24.330  -3.696  0.00  0.00     0.193 C 
HETATM   17  O   UNK N   1      28.585  23.715  -3.655  0.00  0.00    -0.645 OA
BRANCH  16  18
HETATM   18  O   UNK N   1      26.466  23.856  -3.024  0.00  0.00    -0.772 OA
HETATM   19  H   UNK N   1      26.130  22.999  -3.201  0.00  0.00     0.167 HD
ENDBRANCH  16  18
ENDBRANCH   3  16
BRANCH   9  20
HETATM   20  O   UNK N   1      25.377  23.876  -6.037  0.00  0.00    -0.386 OA
HETATM   21  C   UNK N   1      25.459  22.565  -6.540  0.00  0.00     0.202 C 
ENDBRANCH   9  20
TORSDOF 5
ENDMDL
MODEL 5
REMARK VINA RESULT:      -5.6     11.870     14.769
REMARK  5 active torsions:
REMARK  status: ('A' for Active; 'I' for Inactive)
REMARK    1  A    between atoms: C_3  and  C_4 
REMARK    2  A    between atoms: C_6  and  C_3 
REMARK    3  A    between atoms: C_8  and  C_9 
REMARK    4  A    between atoms: C_9  and  O_11 
REMARK    5  A    between atoms: C_17  and  O_18 
ROOT
HETATM    1  C   UNK N   1      29.370  23.711  -4.559  0.00  0.00     0.126 C 
HETATM    2  N   UNK N   1      28.155  23.481  -5.303  0.00  0.00    -0.375 N 
HETATM    3  C   UNK N   1      27.479  24.687  -5.514  0.00  0.00     0.108 C 
HETATM    4  C   UNK N   1      28.043  25.675  -4.821  0.00  0.00    -0.012 C 
HETATM    5  C   UNK N   1      29.162  25.142  -3.975  0.00  0.00     0.047 C 
HETATM    6  C   UNK N   1      30.387  26.047  -4.129  0.00  0.00     0.011 C 
HETATM    7  C   UNK N   1      30.075  27.541  -3.903  0.00  0.00     0.004 C 
HETATM    8  C   UNK N   1      28.577  27.870  -3.781  0.00  0.00     0.036 C 
HETATM    9  C   UNK N   1      27.701  27.150  -4.824  0.00  0.00     0.152 C 
HETATM   10  H   UNK N   1      27.847  22.601  -5.619  0.00  0.00     0.160 HD
ENDROOT
BRANCH   1  11
HETATM   11  C   UNK N   1      29.748  22.635  -3.534  0.00  0.00    -0.001 C 
HETATM   12  C   UNK N   1      30.319  21.454  -3.845  0.00  0.00    -0.019 C 
HETATM   13  C   UNK N   1      30.682  20.983  -5.216  0.00  0.00     0.036 C 
BRANCH  11  14
HETATM   14  C   UNK N   1      29.558  22.895  -2.093  0.00  0.00     0.267 C 
HETATM   15  O   UNK N   1      30.505  23.017  -1.333  0.00  0.00    -0.302 OA
ENDBRANCH  11  14
ENDBRANCH   1  11
BRANCH   3  16
HETATM   16  C   UNK N   1      26.314  24.773  -6.426  0.00  0.00     0.193 C 
HETATM   17  O   UNK N   1      26.437  24.632  -7.628  0.00  0.00    -0.645 OA
BRANCH  16  18
HETATM   18  O   UNK N   1      25.094  25.030  -5.913  0.00  0.00    -0.772 OA
HETATM   19  H   UNK N   1      24.969  25.106  -4.987  0.00  0.00     0.167 HD
ENDBRANCH  16  18
ENDBRANCH   3  16
BRANCH   9  20
HETATM   20  O   UNK N   1      26.344  27.350  -4.502  0.00  0.00    -0.386 OA
HETATM   21  C   UNK N   1      26.202  27.222  -3.109  0.00  0.00     0.202 C 
ENDBRANCH   9  20
TORSDOF 5
ENDMDL
MODEL 6
REMARK VINA RESULT:      -5.4      2.797      5.013
REMARK  5 active torsions:
REMARK  status: ('A' for Active; 'I' for Inactive)
REMARK    1  A    between atoms: C_3  and  C_4 
REMARK    2  A    between atoms: C_6  and  C_3 
REMARK    3  A    between atoms: C_8  and  C_9 
REMARK    4  A    between atoms: C_9  and  O_11 
REMARK    5  A    between atoms: C_17  and  O_18 
ROOT
HETATM    1  C   UNK N   1      29.147  18.395   6.846  0.00  0.00     0.126 C 
HETATM    2  N   UNK N   1      29.419  17.342   5.896  0.00  0.00    -0.375 N 
HETATM    3  C   UNK N   1      28.577  17.462   4.786  0.00  0.00     0.108 C 
HETATM    4  C   UNK N   1      27.646  18.392   4.993  0.00  0.00    -0.012 C 
HETATM    5  C   UNK N   1      27.759  18.937   6.386  0.00  0.00     0.047 C 
HETATM    6  C   UNK N   1      27.688  20.465   6.338  0.00  0.00     0.011 C 
HETATM    7  C   UNK N   1      26.476  20.995   5.544  0.00  0.00     0.004 C 
HETATM    8  C   UNK N   1      25.694  19.917   4.774  0.00  0.00     0.036 C 
HETATM    9  C   UNK N   1      26.597  18.913   4.034  0.00  0.00     0.152 C 
HETATM   10  H   UNK N   1      30.100  16.641   6.013  0.00  0.00     0.160 HD
ENDROOT
BRANCH   1  11
HETATM   11  C   UNK N   1      29.240  18.008   8.327  0.00  0.00    -0.001 C 
HETATM   12  C   UNK N   1      30.394  17.767   8.981  0.00  0.00    -0.019 C 
HETATM   13  C   UNK N   1      31.768  17.833   8.397  0.00  0.00     0.036 C 
BRANCH  11  14
HETATM   14  C   UNK N   1      28.015  17.951   9.149  0.00  0.00     0.267 C 
HETATM   15  O   UNK N   1      27.573  16.894   9.571  0.00  0.00    -0.302 OA
ENDBRANCH  11  14
ENDBRANCH   1  11
BRANCH   3  16
HETATM   16  C   UNK N   1      28.781  16.641   3.568  0.00  0.00     0.193 C 
HETATM   17  O   UNK N   1      28.114  15.646   3.354  0.00  0.00    -0.645 OA
BRANCH  16  18
HETATM   18  O   UNK N   1      29.737  16.997   2.687  0.00  0.00    -0.772 OA
HETATM   19  H   UNK N   1      29.918  17.900   2.514  0.00  0.00     0.167 HD
ENDBRANCH  16  18
ENDBRANCH   3  16
BRANCH   9  20
HETATM   20  O   UNK N   1      25.804  17.858   3.539  0.00  0.00    -0.386 OA
HETATM   21  C   UNK N   1      24.766  17.624   4.458  0.00  0.00     0.202 C 
ENDBRANCH   9  20
TORSDOF 5
ENDMDL
MODEL 7
REMARK VINA RESULT:      -5.4      2.838      5.109
REMARK  5 active torsions:
REMARK  status: ('A' for Active; 'I' for Inactive)
REMARK    1  A    between atoms: C_3  and  C_4 
REMARK    2  A    between atoms: C_6  and  C_3 
REMARK    3  A    between atoms: C_8  and  C_9 
REMARK    4  A    between atoms: C_9  and  O_11 
REMARK    5  A    between atoms: C_17  and  O_18 
ROOT
HETATM    1  C   UNK N   1      29.636  16.870   7.052  0.00  0.00     0.126 C 
HETATM    2  N   UNK N   1      29.135  15.818   6.200  0.00  0.00    -0.375 N 
HETATM    3  C   UNK N   1      30.157  15.334   5.376  0.00  0.00     0.108 C 
HETATM    4  C   UNK N   1      31.247  16.092   5.475  0.00  0.00    -0.012 C 
HETATM    5  C   UNK N   1      30.982  17.265   6.372  0.00  0.00     0.047 C 
HETATM    6  C   UNK N   1      32.142  17.419   7.360  0.00  0.00     0.011 C 
HETATM    7  C   UNK N   1      33.525  17.439   6.678  0.00  0.00     0.004 C 
HETATM    8  C   UNK N   1      33.506  17.089   5.180  0.00  0.00     0.036 C 
HETATM    9  C   UNK N   1      32.606  15.887   4.840  0.00  0.00     0.152 C 
HETATM   10  H   UNK N   1      28.208  15.487   6.200  0.00  0.00     0.160 HD
ENDROOT
BRANCH   1  11
HETATM   11  C   UNK N   1      28.673  18.033   7.324  0.00  0.00    -0.001 C 
HETATM   12  C   UNK N   1      28.608  18.711   8.487  0.00  0.00    -0.019 C 
HETATM   13  C   UNK N   1      29.443  18.464   9.700  0.00  0.00     0.036 C 
BRANCH  11  14
HETATM   14  C   UNK N   1      27.790  18.521   6.246  0.00  0.00     0.267 C 
HETATM   15  O   UNK N   1      27.056  17.768   5.627  0.00  0.00    -0.302 OA
ENDBRANCH  11  14
ENDBRANCH   1  11
BRANCH   3  16
HETATM   16  C   UNK N   1      29.975  14.114   4.553  0.00  0.00     0.193 C 
HETATM   17  O   UNK N   1      29.916  13.009   5.060  0.00  0.00    -0.645 OA
BRANCH  16  18
HETATM   18  O   UNK N   1      29.892  14.230   3.212  0.00  0.00    -0.772 OA
HETATM   19  H   UNK N   1      30.198  15.003   2.778  0.00  0.00     0.167 HD
ENDBRANCH  16  18
ENDBRANCH   3  16
BRANCH   9  20
HETATM   20  O   UNK N   1      32.492  15.777   3.439  0.00  0.00    -0.386 OA
HETATM   21  C   UNK N   1      32.289  17.067   2.916  0.00  0.00     0.202 C 
ENDBRANCH   9  20
TORSDOF 5
ENDMDL
MODEL 8
REMARK VINA RESULT:      -5.3     11.855     15.103
REMARK  5 active torsions:
REMARK  status: ('A' for Active; 'I' for Inactive)
REMARK    1  A    between atoms: C_3  and  C_4 
REMARK    2  A    between atoms: C_6  and  C_3 
REMARK    3  A    between atoms: C_8  and  C_9 
REMARK    4  A    between atoms: C_9  and  O_11 
REMARK    5  A    between atoms: C_17  and  O_18 
ROOT
HETATM    1  C   UNK N   1      27.343  25.169  -3.977  0.00  0.00     0.126 C 
HETATM    2  N   UNK N   1      27.799  23.920  -3.414  0.00  0.00    -0.375 N 
HETATM    3  C   UNK N   1      29.190  23.937  -3.261  0.00  0.00     0.108 C 
HETATM    4  C   UNK N   1      29.719  25.015  -3.837  0.00  0.00    -0.012 C 
HETATM    5  C   UNK N   1      28.652  25.804  -4.537  0.00  0.00     0.047 C 
HETATM    6  C   UNK N   1      28.808  27.286  -4.187  0.00  0.00     0.011 C 
HETATM    7  C   UNK N   1      30.240  27.817  -4.406  0.00  0.00     0.004 C 
HETATM    8  C   UNK N   1      31.284  26.732  -4.722  0.00  0.00     0.036 C 
HETATM    9  C   UNK N   1      31.159  25.481  -3.834  0.00  0.00     0.152 C 
HETATM   10  H   UNK N   1      27.216  23.165  -3.173  0.00  0.00     0.160 HD
ENDROOT
BRANCH   1  11
HETATM   11  C   UNK N   1      26.181  25.076  -4.973  0.00  0.00    -0.001 C 
HETATM   12  C   UNK N   1      25.338  26.088  -5.258  0.00  0.00    -0.019 C 
HETATM   13  C   UNK N   1      25.378  27.460  -4.669  0.00  0.00     0.036 C 
BRANCH  11  14
HETATM   14  C   UNK N   1      25.978  23.835  -5.748  0.00  0.00     0.267 C 
HETATM   15  O   UNK N   1      26.912  23.237  -6.259  0.00  0.00    -0.302 OA
ENDBRANCH  11  14
ENDBRANCH   1  11
BRANCH   3  16
HETATM   16  C   UNK N   1      29.899  22.869  -2.516  0.00  0.00     0.193 C 
HETATM   17  O   UNK N   1      30.281  23.040  -1.373  0.00  0.00    -0.645 OA
BRANCH  16  18
HETATM   18  O   UNK N   1      30.142  21.691  -3.124  0.00  0.00    -0.772 OA
HETATM   19  H   UNK N   1      30.477  21.664  -3.999  0.00  0.00     0.167 HD
ENDBRANCH  16  18
ENDBRANCH   3  16
BRANCH   9  20
HETATM   20  O   UNK N   1      32.011  24.475  -4.333  0.00  0.00    -0.386 OA
HETATM   21  C   UNK N   1      31.991  24.542  -5.737  0.00  0.00     0.202 C 
ENDBRANCH   9  20
TORSDOF 5
ENDMDL
MODEL 9
REMARK VINA RESULT:      -5.3      6.784      9.583
REMARK  5 active torsions:
REMARK  status: ('A' for Active; 'I' for Inactive)
REMARK    1  A    between atoms: C_3  and  C_4 
REMARK    2  A    between atoms: C_6  and  C_3 
REMARK    3  A    between atoms: C_8  and  C_9 
REMARK    4  A    between atoms: C_9  and  O_11 
REMARK    5  A    between atoms: C_17  and  O_18 
ROOT
HETATM    1  C   UNK N   1      24.080  18.887   4.467  0.00  0.00     0.126 C 
HETATM    2  N   UNK N   1      23.727  19.817   3.420  0.00  0.00    -0.375 N 
HETATM    3  C   UNK N   1      22.387  19.651   3.055  0.00  0.00     0.108 C 
HETATM    4  C   UNK N   1      21.865  18.572   3.639  0.00  0.00    -0.012 C 
HETATM    5  C   UNK N   1      22.919  17.847   4.421  0.00  0.00     0.047 C 
HETATM    6  C   UNK N   1      22.367  17.490   5.804  0.00  0.00     0.011 C 
HETATM    7  C   UNK N   1      21.005  16.768   5.749  0.00  0.00     0.004 C 
HETATM    8  C   UNK N   1      20.356  16.730   4.354  0.00  0.00     0.036 C 
HETATM    9  C   UNK N   1      20.437  18.071   3.602  0.00  0.00     0.152 C 
HETATM   10  H   UNK N   1      24.341  20.475   3.021  0.00  0.00     0.160 HD
ENDROOT
BRANCH   1  11
HETATM   11  C   UNK N   1      25.493  18.296   4.396  0.00  0.00    -0.001 C 
HETATM   12  C   UNK N   1      26.606  18.930   4.817  0.00  0.00    -0.019 C 
HETATM   13  C   UNK N   1      26.669  20.295   5.420  0.00  0.00     0.036 C 
BRANCH  11  14
HETATM   14  C   UNK N   1      25.687  16.917   3.906  0.00  0.00     0.267 C 
HETATM   15  O   UNK N   1      25.904  16.679   2.728  0.00  0.00    -0.302 OA
ENDBRANCH  11  14
ENDBRANCH   1  11
BRANCH   3  16
HETATM   16  C   UNK N   1      21.704  20.610   2.154  0.00  0.00     0.193 C 
HETATM   17  O   UNK N   1      21.742  20.481   0.945  0.00  0.00    -0.645 OA
BRANCH  16  18
HETATM   18  O   UNK N   1      21.043  21.657   2.686  0.00  0.00    -0.772 OA
HETATM   19  H   UNK N   1      21.504  22.426   2.961  0.00  0.00     0.167 HD
ENDBRANCH  16  18
ENDBRANCH   3  16
BRANCH   9  20
HETATM   20  O   UNK N   1      20.009  17.880   2.272  0.00  0.00    -0.386 OA
HETATM   21  C   UNK N   1      20.267  16.544   1.918  0.00  0.00     0.202 C 
ENDBRANCH   9  20
TORSDOF 5
ENDMDL
