REMARK  5 active torsions:
REMARK  status: ('A' for Active; 'I' for Inactive)
REMARK    1  A    between atoms: C_3  and  C_4 
REMARK    2  A    between atoms: C_6  and  C_3 
REMARK    3  A    between atoms: C_8  and  C_9 
REMARK    4  A    between atoms: C_9  and  O_11 
REMARK    5  A    between atoms: C_17  and  O_18 
ROOT
HETATM    1  C   UNK N   1      -0.925  -1.167  -0.353  0.00  0.00     0.126 C 
HETATM    2  N   UNK N   1      -1.836  -0.047  -0.353  0.00  0.00    -0.375 N 
HETATM    3  C   UNK N   1      -1.127   1.155  -0.259  0.00  0.00     0.108 C 
HETATM    4  C   UNK N   1       0.163   0.928  -0.015  0.00  0.00    -0.012 C 
HETATM    5  C   UNK N   1       0.405  -0.541   0.167  0.00  0.00     0.047 C 
HETATM    6  C   UNK N   1       1.633  -0.956  -0.648  0.00  0.00     0.011 C 
HETATM    7  C   UNK N   1       2.868  -0.070  -0.384  0.00  0.00     0.004 C 
HETATM    8  C   UNK N   1       2.589   1.180   0.469  0.00  0.00     0.036 C 
HETATM    9  C   UNK N   1       1.301   1.923   0.069  0.00  0.00     0.152 C 
HETATM   10  H   UNK N   1      -2.816  -0.119  -0.412  0.00  0.00     0.160 HD
ENDROOT
BRANCH   1  11
HETATM   11  C   UNK N   1      -1.396  -2.420   0.395  0.00  0.00    -0.001 C 
HETATM   12  C   UNK N   1      -2.622  -2.570   0.934  0.00  0.00    -0.019 C 
HETATM   13  C   UNK N   1      -3.728  -1.566   0.903  0.00  0.00     0.036 C 
BRANCH  11  14
HETATM   14  C   UNK N   1      -0.504  -3.593   0.495  0.00  0.00     0.267 C 
HETATM   15  O   UNK N   1       0.613  -3.593   0.003  0.00  0.00    -0.302 OA
ENDBRANCH  11  14
ENDBRANCH   1  11
BRANCH   3  16
HETATM   16  C   UNK N   1      -1.795   2.465  -0.447  0.00  0.00     0.193 C 
HETATM   17  O   UNK N   1      -1.169   3.508  -0.406  0.00  0.00    -0.645 OA
BRANCH  16  18
HETATM   18  O   UNK N   1      -3.127   2.502  -0.650  0.00  0.00    -0.772 OA
HETATM   19  H   UNK N   1      -3.568   3.317  -0.791  0.00  0.00     0.167 HD
ENDBRANCH  16  18
ENDBRANCH   3  16
BRANCH   9  20
HETATM   20  O   UNK N   1       1.026   2.918   1.029  0.00  0.00    -0.386 OA
HETATM   21  C   UNK N   1       1.684   4.097   0.636  0.00  0.00     0.202 C 
ENDBRANCH   9  20
TORSDOF 5
