REMARK  4 active torsions:
REMARK  status: ('A' for Active; 'I' for Inactive)
REMARK    1  A    between atoms: C_4  and  C_7 
REMARK    2  A    between atoms: C_10  and  C_17 
REMARK    3  A    between atoms: C_14  and  O_15 
REMARK    4  A    between atoms: C_17  and  C_18 
ROOT
HETATM    1  N   UNK N   1      -0.085   1.394  -0.219  0.00  0.00    -0.224 N 
HETATM    2  N   UNK N   1      -1.340   3.187  -0.440  0.00  0.00    -0.283 N 
ATOM      3  HN  UNK N   1      -1.633   4.164  -0.456  1.00  0.00     0.188 HD
HETATM    4  C   UNK N   1       2.190   1.258   0.176  0.00  0.00     0.059 A 
HETATM    5  C   UNK N   1       2.242   2.677   0.254  0.00  0.00     0.036 A 
HETATM    6  C   UNK N   1      -0.106   2.720  -0.167  0.00  0.00     0.143 A 
HETATM    7  C   UNK N   1      -1.319   1.024  -0.538  0.00  0.00     0.124 A 
HETATM    8  N   UNK N   1       0.995   0.652  -0.055  0.00  0.00    -0.290 N 
ATOM      9  HN  UNK N   1       0.932  -0.365  -0.100  1.00  0.00     0.187 HD
HETATM   10  N   UNK N   1      -2.104   2.118  -0.688  0.00  0.00    -0.286 N 
ATOM     11  HN  UNK N   1      -3.092   2.125  -0.942  1.00  0.00     0.188 HD
HETATM   12  C   UNK N   1       1.060   3.433   0.089  0.00  0.00     0.054 A 
ENDROOT
BRANCH   7  13
HETATM   13  C   UNK N   1      -1.700  -0.398  -0.821  0.00  0.00     0.118 C 
BRANCH  13  14
HETATM   14  C   UNK N   1      -3.022  -0.858  -0.303  0.00  0.00    -0.051 A 
HETATM   15  C   UNK N   1      -3.454  -2.140  -0.657  0.00  0.00     0.010 A 
HETATM   16  C   UNK N   1      -4.728  -2.578  -0.294  0.00  0.00     0.037 A 
HETATM   17  C   UNK N   1      -5.577  -1.732   0.425  0.00  0.00     0.065 A 
HETATM   18  C   UNK N   1      -5.141  -0.460   0.806  0.00  0.00     0.037 A 
HETATM   19  C   UNK N   1      -3.867  -0.022   0.441  0.00  0.00     0.010 A 
BRANCH  17  20
HETATM   20  O   UNK N   1      -6.816  -2.139   0.739  0.00  0.00    -0.361 OA
HETATM   21  H   UNK N   1      -7.494  -1.531   0.959  0.00  0.00     0.217 HD
ENDBRANCH  17  20
ENDBRANCH  13  14
ENDBRANCH   7  13
BRANCH   4  22
HETATM   22  C   UNK N   1       3.392   0.410   0.221  0.00  0.00    -0.008 A 
HETATM   23  C   UNK N   1       4.682   0.957   0.241  0.00  0.00     0.014 A 
HETATM   24  C   UNK N   1       5.798   0.114   0.183  0.00  0.00     0.001 A 
HETATM   25  C   UNK N   1       5.630  -1.273   0.108  0.00  0.00     0.000 A 
HETATM   26  C   UNK N   1       4.348  -1.823   0.099  0.00  0.00     0.001 A 
HETATM   27  C   UNK N   1       3.237  -0.984   0.148  0.00  0.00     0.014 A 
ENDBRANCH   4  22
TORSDOF 4
