MODEL 1
REMARK VINA RESULT:      -7.5      0.000      0.000
REMARK  4 active torsions:
REMARK  status: ('A' for Active; 'I' for Inactive)
REMARK    1  A    between atoms: C_4  and  C_7 
REMARK    2  A    between atoms: C_10  and  C_17 
REMARK    3  A    between atoms: C_14  and  O_15 
REMARK    4  A    between atoms: C_17  and  C_18 
ROOT
HETATM    1  N   UNK N   1      35.197  11.869  12.652  0.00  0.00    -0.224 N 
HETATM    2  N   UNK N   1      33.880  10.401  11.678  0.00  0.00    -0.283 N 
ATOM      3  HN  UNK N   1      33.179   9.671  11.546  1.00  0.00     0.188 HD
HETATM    4  C   UNK N   1      35.261  12.509  14.874  0.00  0.00     0.059 A 
HETATM    5  C   UNK N   1      34.248  11.552  15.158  0.00  0.00     0.036 A 
HETATM    6  C   UNK N   1      34.246  10.964  12.846  0.00  0.00     0.143 A 
HETATM    7  C   UNK N   1      35.424  11.881  11.344  0.00  0.00     0.124 A 
HETATM    8  N   UNK N   1      35.717  12.629  13.598  0.00  0.00    -0.290 N 
ATOM      9  HN  UNK N   1      36.453  13.298  13.374  1.00  0.00     0.187 HD
HETATM   10  N   UNK N   1      34.613  10.988  10.727  0.00  0.00    -0.286 N 
ATOM     11  HN  UNK N   1      34.570  10.799   9.726  1.00  0.00     0.188 HD
HETATM   12  C   UNK N   1      33.730  10.747  14.119  0.00  0.00     0.054 A 
ENDROOT
BRANCH   7  13
HETATM   13  C   UNK N   1      36.348  12.858  10.683  0.00  0.00     0.118 C 
BRANCH  13  14
HETATM   14  C   UNK N   1      35.781  14.195  10.337  0.00  0.00    -0.051 A 
HETATM   15  C   UNK N   1      35.268  14.375   9.049  0.00  0.00     0.010 A 
HETATM   16  C   UNK N   1      34.828  15.634   8.637  0.00  0.00     0.037 A 
HETATM   17  C   UNK N   1      34.902  16.719   9.515  0.00  0.00     0.065 A 
HETATM   18  C   UNK N   1      35.388  16.540  10.813  0.00  0.00     0.037 A 
HETATM   19  C   UNK N   1      35.829  15.281  11.223  0.00  0.00     0.010 A 
BRANCH  17  20
HETATM   20  O   UNK N   1      34.517  17.937   9.105  0.00  0.00    -0.361 OA
HETATM   21  H   UNK N   1      34.121  18.073   8.266  0.00  0.00     0.217 HD
ENDBRANCH  17  20
ENDBRANCH  13  14
ENDBRANCH   7  13
BRANCH   4  22
HETATM   22  C   UNK N   1      35.766  13.461  15.875  0.00  0.00    -0.008 A 
HETATM   23  C   UNK N   1      35.188  13.572  17.147  0.00  0.00     0.014 A 
HETATM   24  C   UNK N   1      35.635  14.559  18.033  0.00  0.00     0.001 A 
HETATM   25  C   UNK N   1      36.659  15.434  17.654  0.00  0.00     0.000 A 
HETATM   26  C   UNK N   1      37.245  15.321  16.393  0.00  0.00     0.001 A 
HETATM   27  C   UNK N   1      36.794  14.344  15.508  0.00  0.00     0.014 A 
ENDBRANCH   4  22
TORSDOF 4
ENDMDL
MODEL 2
REMARK VINA RESULT:      -7.4      8.717     11.527
REMARK  4 active torsions:
REMARK  status: ('A' for Active; 'I' for Inactive)
REMARK    1  A    between atoms: C_4  and  C_7 
REMARK    2  A    between atoms: C_10  and  C_17 
REMARK    3  A    between atoms: C_14  and  O_15 
REMARK    4  A    between atoms: C_17  and  C_18 
ROOT
HETATM    1  N   UNK N   1      28.874  18.238   6.936  0.00  0.00    -0.224 N 
HETATM    2  N   UNK N   1      27.597  19.414   8.287  0.00  0.00    -0.283 N 
ATOM      3  HN  UNK N   1      27.241  19.863   9.131  1.00  0.00     0.188 HD
HETATM    4  C   UNK N   1      30.927  17.263   7.366  0.00  0.00     0.059 A 
HETATM    5  C   UNK N   1      30.832  17.704   8.715  0.00  0.00     0.036 A 
HETATM    6  C   UNK N   1      28.726  18.687   8.176  0.00  0.00     0.143 A 
HETATM    7  C   UNK N   1      27.830  18.698   6.257  0.00  0.00     0.124 A 
HETATM    8  N   UNK N   1      29.913  17.546   6.506  0.00  0.00    -0.290 N 
ATOM      9  HN  UNK N   1      29.953  17.227   5.538  1.00  0.00     0.187 HD
HETATM   10  N   UNK N   1      27.037  19.433   7.073  0.00  0.00    -0.286 N 
ATOM     11  HN  UNK N   1      26.175  19.911   6.811  1.00  0.00     0.188 HD
HETATM   12  C   UNK N   1      29.696  18.428   9.139  0.00  0.00     0.054 A 
ENDROOT
BRANCH   7  13
HETATM   13  C   UNK N   1      27.674  18.522   4.777  0.00  0.00     0.118 C 
BRANCH  13  14
HETATM   14  C   UNK N   1      26.442  19.091   4.156  0.00  0.00    -0.051 A 
HETATM   15  C   UNK N   1      26.571  20.258   3.397  0.00  0.00     0.010 A 
HETATM   16  C   UNK N   1      25.438  20.894   2.887  0.00  0.00     0.037 A 
HETATM   17  C   UNK N   1      24.170  20.364   3.138  0.00  0.00     0.065 A 
HETATM   18  C   UNK N   1      24.036  19.182   3.872  0.00  0.00     0.037 A 
HETATM   19  C   UNK N   1      25.170  18.547   4.382  0.00  0.00     0.010 A 
BRANCH  17  20
HETATM   20  O   UNK N   1      23.079  20.997   2.681  0.00  0.00    -0.361 OA
HETATM   21  H   UNK N   1      22.598  21.598   3.216  0.00  0.00     0.217 HD
ENDBRANCH  17  20
ENDBRANCH  13  14
ENDBRANCH   7  13
BRANCH   4  22
HETATM   22  C   UNK N   1      32.126  16.607   6.822  0.00  0.00    -0.008 A 
HETATM   23  C   UNK N   1      32.833  15.638   7.547  0.00  0.00     0.014 A 
HETATM   24  C   UNK N   1      34.024  15.113   7.033  0.00  0.00     0.001 A 
HETATM   25  C   UNK N   1      34.511  15.550   5.796  0.00  0.00     0.000 A 
HETATM   26  C   UNK N   1      33.805  16.506   5.065  0.00  0.00     0.001 A 
HETATM   27  C   UNK N   1      32.624  17.035   5.580  0.00  0.00     0.014 A 
ENDBRANCH   4  22
TORSDOF 4
ENDMDL
MODEL 3
REMARK VINA RESULT:      -7.3      5.298      9.071
REMARK  4 active torsions:
REMARK  status: ('A' for Active; 'I' for Inactive)
REMARK    1  A    between atoms: C_4  and  C_7 
REMARK    2  A    between atoms: C_10  and  C_17 
REMARK    3  A    between atoms: C_14  and  O_15 
REMARK    4  A    between atoms: C_17  and  C_18 
ROOT
HETATM    1  N   UNK N   1      35.303  11.858  18.290  0.00  0.00    -0.224 N 
HETATM    2  N   UNK N   1      35.155  13.724  19.446  0.00  0.00    -0.283 N 
ATOM      3  HN  UNK N   1      35.068  14.715  19.672  1.00  0.00     0.188 HD
HETATM    4  C   UNK N   1      35.079  11.545  16.010  0.00  0.00     0.059 A 
HETATM    5  C   UNK N   1      34.917  12.949  15.852  0.00  0.00     0.036 A 
HETATM    6  C   UNK N   1      35.151  13.174  18.216  0.00  0.00     0.143 A 
HETATM    7  C   UNK N   1      35.394  11.576  19.584  0.00  0.00     0.124 A 
HETATM    8  N   UNK N   1      35.280  11.038  17.255  0.00  0.00    -0.290 N 
ATOM      9  HN  UNK N   1      35.413  10.036  17.390  1.00  0.00     0.187 HD
HETATM   10  N   UNK N   1      35.295  12.715  20.312  0.00  0.00    -0.286 N 
ATOM     11  HN  UNK N   1      35.322  12.788  21.329  1.00  0.00     0.188 HD
HETATM   12  C   UNK N   1      34.965  13.793  16.984  0.00  0.00     0.054 A 
ENDROOT
BRANCH   7  13
HETATM   13  C   UNK N   1      35.451  10.175  20.115  0.00  0.00     0.118 C 
BRANCH  13  14
HETATM   14  C   UNK N   1      34.148   9.477  20.317  0.00  0.00    -0.051 A 
HETATM   15  C   UNK N   1      33.800   8.466  19.415  0.00  0.00     0.010 A 
HETATM   16  C   UNK N   1      32.547   7.858  19.490  0.00  0.00     0.037 A 
HETATM   17  C   UNK N   1      31.633   8.261  20.468  0.00  0.00     0.065 A 
HETATM   18  C   UNK N   1      31.985   9.252  21.389  0.00  0.00     0.037 A 
HETATM   19  C   UNK N   1      33.238   9.861  21.313  0.00  0.00     0.010 A 
BRANCH  17  20
HETATM   20  O   UNK N   1      30.414   7.704  20.514  0.00  0.00    -0.361 OA
HETATM   21  H   UNK N   1      30.253   6.842  20.183  0.00  0.00     0.217 HD
ENDBRANCH  17  20
ENDBRANCH  13  14
ENDBRANCH   7  13
BRANCH   4  22
HETATM   22  C   UNK N   1      34.926  10.593  14.898  0.00  0.00    -0.008 A 
HETATM   23  C   UNK N   1      35.663   9.402  14.838  0.00  0.00     0.014 A 
HETATM   24  C   UNK N   1      35.560   8.574  13.714  0.00  0.00     0.001 A 
HETATM   25  C   UNK N   1      34.722   8.929  12.652  0.00  0.00     0.000 A 
HETATM   26  C   UNK N   1      33.978  10.108  12.711  0.00  0.00     0.001 A 
HETATM   27  C   UNK N   1      34.086  10.937  13.826  0.00  0.00     0.014 A 
ENDBRANCH   4  22
TORSDOF 4
ENDMDL
MODEL 4
REMARK VINA RESULT:      -7.3     19.577     23.703
REMARK  4 active torsions:
REMARK  status: ('A' for Active; 'I' for Inactive)
REMARK    1  A    between atoms: C_4  and  C_7 
REMARK    2  A    between atoms: C_10  and  C_17 
REMARK    3  A    between atoms: C_14  and  O_15 
REMARK    4  A    between atoms: C_17  and  C_18 
ROOT
HETATM    1  N   UNK N   1      27.020  25.246  -5.846  0.00  0.00    -0.224 N 
HETATM    2  N   UNK N   1      25.281  23.921  -5.601  0.00  0.00    -0.283 N 
ATOM      3  HN  UNK N   1      24.322  23.603  -5.460  1.00  0.00     0.188 HD
HETATM    4  C   UNK N   1      27.070  27.552  -6.024  0.00  0.00     0.059 A 
HETATM    5  C   UNK N   1      25.661  27.578  -5.838  0.00  0.00     0.036 A 
HETATM    6  C   UNK N   1      25.705  25.198  -5.675  0.00  0.00     0.143 A 
HETATM    7  C   UNK N   1      27.427  23.984  -5.889  0.00  0.00     0.124 A 
HETATM    8  N   UNK N   1      27.717  26.356  -6.012  0.00  0.00    -0.290 N 
ATOM      9  HN  UNK N   1      28.729  26.315  -6.129  1.00  0.00     0.187 HD
HETATM   10  N   UNK N   1      26.366  23.153  -5.749  0.00  0.00    -0.286 N 
ATOM     11  HN  UNK N   1      26.389  22.133  -5.756  1.00  0.00     0.188 HD
HETATM   12  C   UNK N   1      24.955  26.369  -5.647  0.00  0.00     0.054 A 
ENDROOT
BRANCH   7  13
HETATM   13  C   UNK N   1      28.840  23.589  -6.194  0.00  0.00     0.118 C 
BRANCH  13  14
HETATM   14  C   UNK N   1      29.619  22.959  -5.087  0.00  0.00    -0.051 A 
HETATM   15  C   UNK N   1      30.000  23.768  -4.012  0.00  0.00     0.010 A 
HETATM   16  C   UNK N   1      30.822  23.259  -3.006  0.00  0.00     0.037 A 
HETATM   17  C   UNK N   1      31.269  21.937  -3.074  0.00  0.00     0.065 A 
HETATM   18  C   UNK N   1      30.869  21.115  -4.132  0.00  0.00     0.037 A 
HETATM   19  C   UNK N   1      30.048  21.625  -5.138  0.00  0.00     0.010 A 
BRANCH  17  20
HETATM   20  O   UNK N   1      32.092  21.461  -2.128  0.00  0.00    -0.361 OA
HETATM   21  H   UNK N   1      32.872  21.916  -1.878  0.00  0.00     0.217 HD
ENDBRANCH  17  20
ENDBRANCH  13  14
ENDBRANCH   7  13
BRANCH   4  22
HETATM   22  C   UNK N   1      27.857  28.754  -6.345  0.00  0.00    -0.008 A 
HETATM   23  C   UNK N   1      28.675  28.821  -7.480  0.00  0.00     0.014 A 
HETATM   24  C   UNK N   1      29.482  29.944  -7.694  0.00  0.00     0.001 A 
HETATM   25  C   UNK N   1      29.473  31.002  -6.778  0.00  0.00     0.000 A 
HETATM   26  C   UNK N   1      28.652  30.945  -5.651  0.00  0.00     0.001 A 
HETATM   27  C   UNK N   1      27.855  29.823  -5.434  0.00  0.00     0.014 A 
ENDBRANCH   4  22
TORSDOF 4
ENDMDL
MODEL 5
REMARK VINA RESULT:      -7.3      8.599     11.338
REMARK  4 active torsions:
REMARK  status: ('A' for Active; 'I' for Inactive)
REMARK    1  A    between atoms: C_4  and  C_7 
REMARK    2  A    between atoms: C_10  and  C_17 
REMARK    3  A    between atoms: C_14  and  O_15 
REMARK    4  A    between atoms: C_17  and  C_18 
ROOT
HETATM    1  N   UNK N   1      29.301  17.546   7.441  0.00  0.00    -0.224 N 
HETATM    2  N   UNK N   1      28.788  18.553   9.328  0.00  0.00    -0.283 N 
ATOM      3  HN  UNK N   1      28.882  19.004  10.238  1.00  0.00     0.188 HD
HETATM    4  C   UNK N   1      31.393  17.112   6.553  0.00  0.00     0.059 A 
HETATM    5  C   UNK N   1      31.983  17.673   7.719  0.00  0.00     0.036 A 
HETATM    6  C   UNK N   1      29.786  18.090   8.550  0.00  0.00     0.143 A 
HETATM    7  C   UNK N   1      27.983  17.677   7.518  0.00  0.00     0.124 A 
HETATM    8  N   UNK N   1      30.037  17.059   6.458  0.00  0.00    -0.290 N 
ATOM      9  HN  UNK N   1      29.593  16.648   5.638  1.00  0.00     0.187 HD
HETATM   10  N   UNK N   1      27.649  18.306   8.672  0.00  0.00    -0.286 N 
ATOM     11  HN  UNK N   1      26.707  18.545   8.981  1.00  0.00     0.188 HD
HETATM   12  C   UNK N   1      31.159  18.168   8.755  0.00  0.00     0.054 A 
ENDROOT
BRANCH   7  13
HETATM   13  C   UNK N   1      27.055  17.301   6.402  0.00  0.00     0.118 C 
BRANCH  13  14
HETATM   14  C   UNK N   1      26.717  18.370   5.417  0.00  0.00    -0.051 A 
HETATM   15  C   UNK N   1      25.531  18.237   4.688  0.00  0.00     0.010 A 
HETATM   16  C   UNK N   1      25.222  19.147   3.677  0.00  0.00     0.037 A 
HETATM   17  C   UNK N   1      26.101  20.195   3.389  0.00  0.00     0.065 A 
HETATM   18  C   UNK N   1      27.275  20.349   4.132  0.00  0.00     0.037 A 
HETATM   19  C   UNK N   1      27.584  19.438   5.143  0.00  0.00     0.010 A 
BRANCH  17  20
HETATM   20  O   UNK N   1      25.822  21.045   2.390  0.00  0.00    -0.361 OA
HETATM   21  H   UNK N   1      26.448  21.242   1.721  0.00  0.00     0.217 HD
ENDBRANCH  17  20
ENDBRANCH  13  14
ENDBRANCH   7  13
BRANCH   4  22
HETATM   22  C   UNK N   1      32.179  16.684   5.385  0.00  0.00    -0.008 A 
HETATM   23  C   UNK N   1      32.139  17.382   4.171  0.00  0.00     0.014 A 
HETATM   24  C   UNK N   1      32.825  16.884   3.057  0.00  0.00     0.001 A 
HETATM   25  C   UNK N   1      33.552  15.693   3.152  0.00  0.00     0.000 A 
HETATM   26  C   UNK N   1      33.604  15.000   4.362  0.00  0.00     0.001 A 
HETATM   27  C   UNK N   1      32.915  15.491   5.469  0.00  0.00     0.014 A 
ENDBRANCH   4  22
TORSDOF 4
ENDMDL
MODEL 6
REMARK VINA RESULT:      -7.2     14.610     17.510
REMARK  4 active torsions:
REMARK  status: ('A' for Active; 'I' for Inactive)
REMARK    1  A    between atoms: C_4  and  C_7 
REMARK    2  A    between atoms: C_10  and  C_17 
REMARK    3  A    between atoms: C_14  and  O_15 
REMARK    4  A    between atoms: C_17  and  C_18 
ROOT
HETATM    1  N   UNK N   1      21.042  18.256   3.225  0.00  0.00    -0.224 N 
HETATM    2  N   UNK N   1      19.046  18.630   2.380  0.00  0.00    -0.283 N 
ATOM      3  HN  UNK N   1      18.251  19.111   1.959  1.00  0.00     0.188 HD
HETATM    4  C   UNK N   1      22.860  19.682   3.335  0.00  0.00     0.059 A 
HETATM    5  C   UNK N   1      22.066  20.707   2.751  0.00  0.00     0.036 A 
HETATM    6  C   UNK N   1      20.249  19.163   2.670  0.00  0.00     0.143 A 
HETATM    7  C   UNK N   1      20.332  17.136   3.275  0.00  0.00     0.124 A 
HETATM    8  N   UNK N   1      22.301  18.464   3.565  0.00  0.00    -0.290 N 
ATOM      9  HN  UNK N   1      22.847  17.718   3.997  1.00  0.00     0.187 HD
HETATM   10  N   UNK N   1      19.101  17.346   2.748  0.00  0.00    -0.286 N 
ATOM     11  HN  UNK N   1      18.357  16.655   2.652  1.00  0.00     0.188 HD
HETATM   12  C   UNK N   1      20.718  20.448   2.417  0.00  0.00     0.054 A 
ENDROOT
BRANCH   7  13
HETATM   13  C   UNK N   1      20.902  15.824   3.724  0.00  0.00     0.118 C 
BRANCH  13  14
HETATM   14  C   UNK N   1      21.589  14.998   2.688  0.00  0.00    -0.051 A 
HETATM   15  C   UNK N   1      22.987  15.028   2.647  0.00  0.00     0.010 A 
HETATM   16  C   UNK N   1      23.675  14.365   1.631  0.00  0.00     0.037 A 
HETATM   17  C   UNK N   1      22.966  13.668   0.649  0.00  0.00     0.065 A 
HETATM   18  C   UNK N   1      21.570  13.610   0.700  0.00  0.00     0.037 A 
HETATM   19  C   UNK N   1      20.882  14.275   1.716  0.00  0.00     0.010 A 
BRANCH  17  20
HETATM   20  O   UNK N   1      23.627  13.063  -0.350  0.00  0.00    -0.361 OA
HETATM   21  H   UNK N   1      23.179  12.579  -1.016  0.00  0.00     0.217 HD
ENDBRANCH  17  20
ENDBRANCH  13  14
ENDBRANCH   7  13
BRANCH   4  22
HETATM   22  C   UNK N   1      24.298  19.838   3.603  0.00  0.00    -0.008 A 
HETATM   23  C   UNK N   1      25.122  20.620   2.781  0.00  0.00     0.014 A 
HETATM   24  C   UNK N   1      26.502  20.661   3.014  0.00  0.00     0.001 A 
HETATM   25  C   UNK N   1      27.061  19.927   4.066  0.00  0.00     0.000 A 
HETATM   26  C   UNK N   1      26.244  19.156   4.893  0.00  0.00     0.001 A 
HETATM   27  C   UNK N   1      24.872  19.108   4.657  0.00  0.00     0.014 A 
ENDBRANCH   4  22
TORSDOF 4
ENDMDL
MODEL 7
REMARK VINA RESULT:      -7.0      8.750     12.597
REMARK  4 active torsions:
REMARK  status: ('A' for Active; 'I' for Inactive)
REMARK    1  A    between atoms: C_4  and  C_7 
REMARK    2  A    between atoms: C_10  and  C_17 
REMARK    3  A    between atoms: C_14  and  O_15 
REMARK    4  A    between atoms: C_17  and  C_18 
ROOT
HETATM    1  N   UNK N   1      27.533  18.268   5.948  0.00  0.00    -0.224 N 
HETATM    2  N   UNK N   1      26.912  20.171   6.861  0.00  0.00    -0.283 N 
ATOM      3  HN  UNK N   1      26.459  21.075   6.994  1.00  0.00     0.188 HD
HETATM    4  C   UNK N   1      26.807  17.303   3.976  0.00  0.00     0.059 A 
HETATM    5  C   UNK N   1      25.992  18.444   3.740  0.00  0.00     0.036 A 
HETATM    6  C   UNK N   1      26.790  19.357   5.794  0.00  0.00     0.143 A 
HETATM    7  C   UNK N   1      28.121  18.395   7.131  0.00  0.00     0.124 A 
HETATM    8  N   UNK N   1      27.575  17.260   5.097  0.00  0.00    -0.290 N 
ATOM      9  HN  UNK N   1      28.178  16.458   5.279  1.00  0.00     0.187 HD
HETATM   10  N   UNK N   1      27.741  19.559   7.713  0.00  0.00    -0.286 N 
ATOM     11  HN  UNK N   1      28.034  19.903   8.627  1.00  0.00     0.188 HD
HETATM   12  C   UNK N   1      25.988  19.509   4.668  0.00  0.00     0.054 A 
ENDROOT
BRANCH   7  13
HETATM   13  C   UNK N   1      28.958  17.316   7.749  0.00  0.00     0.118 C 
BRANCH  13  14
HETATM   14  C   UNK N   1      30.425  17.360   7.477  0.00  0.00    -0.051 A 
HETATM   15  C   UNK N   1      31.265  17.837   8.488  0.00  0.00     0.010 A 
HETATM   16  C   UNK N   1      32.629  18.005   8.248  0.00  0.00     0.037 A 
HETATM   17  C   UNK N   1      33.159  17.697   6.992  0.00  0.00     0.065 A 
HETATM   18  C   UNK N   1      32.330  17.193   5.986  0.00  0.00     0.037 A 
HETATM   19  C   UNK N   1      30.965  17.027   6.226  0.00  0.00     0.010 A 
BRANCH  17  20
HETATM   20  O   UNK N   1      34.463  17.896   6.750  0.00  0.00    -0.361 OA
HETATM   21  H   UNK N   1      34.830  17.776   5.897  0.00  0.00     0.217 HD
ENDBRANCH  17  20
ENDBRANCH  13  14
ENDBRANCH   7  13
BRANCH   4  22
HETATM   22  C   UNK N   1      26.777  16.108   3.118  0.00  0.00    -0.008 A 
HETATM   23  C   UNK N   1      25.572  15.547   2.674  0.00  0.00     0.014 A 
HETATM   24  C   UNK N   1      25.585  14.353   1.943  0.00  0.00     0.001 A 
HETATM   25  C   UNK N   1      26.798  13.719   1.652  0.00  0.00     0.000 A 
HETATM   26  C   UNK N   1      28.001  14.279   2.082  0.00  0.00     0.001 A 
HETATM   27  C   UNK N   1      27.987  15.463   2.817  0.00  0.00     0.014 A 
ENDBRANCH   4  22
TORSDOF 4
ENDMDL
MODEL 8
REMARK VINA RESULT:      -7.0      9.577     12.595
REMARK  4 active torsions:
REMARK  status: ('A' for Active; 'I' for Inactive)
REMARK    1  A    between atoms: C_4  and  C_7 
REMARK    2  A    between atoms: C_10  and  C_17 
REMARK    3  A    between atoms: C_14  and  O_15 
REMARK    4  A    between atoms: C_17  and  C_18 
ROOT
HETATM    1  N   UNK N   1      28.659  18.326   6.107  0.00  0.00    -0.224 N 
HETATM    2  N   UNK N   1      27.708  19.102   7.933  0.00  0.00    -0.283 N 
ATOM      3  HN  UNK N   1      27.518  19.287   8.918  1.00  0.00     0.188 HD
HETATM    4  C   UNK N   1      30.627  17.129   5.895  0.00  0.00     0.059 A 
HETATM    5  C   UNK N   1      30.759  17.132   7.311  0.00  0.00     0.036 A 
HETATM    6  C   UNK N   1      28.724  18.373   7.432  0.00  0.00     0.143 A 
HETATM    7  C   UNK N   1      27.594  19.043   5.772  0.00  0.00     0.124 A 
HETATM    8  N   UNK N   1      29.549  17.735   5.331  0.00  0.00    -0.290 N 
ATOM      9  HN  UNK N   1      29.427  17.733   4.318  1.00  0.00     0.187 HD
HETATM   10  N   UNK N   1      27.002  19.538   6.885  0.00  0.00    -0.286 N 
ATOM     11  HN  UNK N   1      26.172  20.131   6.918  1.00  0.00     0.188 HD
HETATM   12  C   UNK N   1      29.775  17.761   8.107  0.00  0.00     0.054 A 
ENDROOT
BRANCH   7  13
HETATM   13  C   UNK N   1      27.229  19.350   4.350  0.00  0.00     0.118 C 
BRANCH  13  14
HETATM   14  C   UNK N   1      25.778  19.533   4.051  0.00  0.00    -0.051 A 
HETATM   15  C   UNK N   1      24.881  18.587   4.557  0.00  0.00     0.010 A 
HETATM   16  C   UNK N   1      23.529  18.647   4.215  0.00  0.00     0.037 A 
HETATM   17  C   UNK N   1      23.070  19.656   3.363  0.00  0.00     0.065 A 
HETATM   18  C   UNK N   1      23.956  20.620   2.877  0.00  0.00     0.037 A 
HETATM   19  C   UNK N   1      25.308  20.559   3.218  0.00  0.00     0.010 A 
BRANCH  17  20
HETATM   20  O   UNK N   1      21.778  19.689   3.004  0.00  0.00    -0.361 OA
HETATM   21  H   UNK N   1      21.091  19.743   3.638  0.00  0.00     0.217 HD
ENDBRANCH  17  20
ENDBRANCH  13  14
ENDBRANCH   7  13
BRANCH   4  22
HETATM   22  C   UNK N   1      31.664  16.598   4.997  0.00  0.00    -0.008 A 
HETATM   23  C   UNK N   1      32.043  17.270   3.827  0.00  0.00     0.014 A 
HETATM   24  C   UNK N   1      32.962  16.681   2.950  0.00  0.00     0.001 A 
HETATM   25  C   UNK N   1      33.505  15.424   3.240  0.00  0.00     0.000 A 
HETATM   26  C   UNK N   1      33.140  14.756   4.409  0.00  0.00     0.001 A 
HETATM   27  C   UNK N   1      32.219  15.339   5.277  0.00  0.00     0.014 A 
ENDBRANCH   4  22
TORSDOF 4
ENDMDL
MODEL 9
REMARK VINA RESULT:      -6.9      6.731     10.374
REMARK  4 active torsions:
REMARK  status: ('A' for Active; 'I' for Inactive)
REMARK    1  A    between atoms: C_4  and  C_7 
REMARK    2  A    between atoms: C_10  and  C_17 
REMARK    3  A    between atoms: C_14  and  O_15 
REMARK    4  A    between atoms: C_17  and  C_18 
ROOT
HETATM    1  N   UNK N   1      30.187  15.707   5.492  0.00  0.00    -0.224 N 
HETATM    2  N   UNK N   1      30.175  13.533   5.162  0.00  0.00    -0.283 N 
ATOM      3  HN  UNK N   1      29.840  12.581   5.012  1.00  0.00     0.188 HD
HETATM    4  C   UNK N   1      28.405  17.182   5.487  0.00  0.00     0.059 A 
HETATM    5  C   UNK N   1      27.523  16.086   5.280  0.00  0.00     0.036 A 
HETATM    6  C   UNK N   1      29.421  14.642   5.291  0.00  0.00     0.143 A 
HETATM    7  C   UNK N   1      31.437  15.263   5.479  0.00  0.00     0.124 A 
HETATM    8  N   UNK N   1      29.739  16.945   5.597  0.00  0.00    -0.290 N 
ATOM      9  HN  UNK N   1      30.388  17.715   5.760  1.00  0.00     0.187 HD
HETATM   10  N   UNK N   1      31.449  13.925   5.266  0.00  0.00    -0.286 N 
ATOM     11  HN  UNK N   1      32.275  13.330   5.199  1.00  0.00     0.188 HD
HETATM   12  C   UNK N   1      28.041  14.775   5.190  0.00  0.00     0.054 A 
ENDROOT
BRANCH   7  13
HETATM   13  C   UNK N   1      32.629  16.171   5.548  0.00  0.00     0.118 C 
BRANCH  13  14
HETATM   14  C   UNK N   1      33.160  16.484   6.908  0.00  0.00    -0.051 A 
HETATM   15  C   UNK N   1      33.858  17.684   7.077  0.00  0.00     0.010 A 
HETATM   16  C   UNK N   1      34.471  17.974   8.297  0.00  0.00     0.037 A 
HETATM   17  C   UNK N   1      34.388  17.062   9.353  0.00  0.00     0.065 A 
HETATM   18  C   UNK N   1      33.668  15.874   9.198  0.00  0.00     0.037 A 
HETATM   19  C   UNK N   1      33.057  15.584   7.978  0.00  0.00     0.010 A 
BRANCH  17  20
HETATM   20  O   UNK N   1      35.011  17.324  10.511  0.00  0.00    -0.361 OA
HETATM   21  H   UNK N   1      35.050  16.694  11.204  0.00  0.00     0.217 HD
ENDBRANCH  17  20
ENDBRANCH  13  14
ENDBRANCH   7  13
BRANCH   4  22
HETATM   22  C   UNK N   1      27.955  18.584   5.475  0.00  0.00    -0.008 A 
HETATM   23  C   UNK N   1      27.866  19.341   6.651  0.00  0.00     0.014 A 
HETATM   24  C   UNK N   1      27.340  20.637   6.607  0.00  0.00     0.001 A 
HETATM   25  C   UNK N   1      26.905  21.180   5.393  0.00  0.00     0.000 A 
HETATM   26  C   UNK N   1      27.002  20.435   4.218  0.00  0.00     0.001 A 
HETATM   27  C   UNK N   1      27.518  19.142   4.263  0.00  0.00     0.014 A 
ENDBRANCH   4  22
TORSDOF 4
ENDMDL
