MODEL 1
REMARK VINA RESULT:      -7.8      0.000      0.000
REMARK  12 active torsions:
REMARK  status: ('A' for Active; 'I' for Inactive)
REMARK    1  A    between atoms: C_8  and  C_9 
REMARK    2  A    between atoms: C_9  and  O_10 
REMARK    3  A    between atoms: O_10  and  C_11 
REMARK    4  A    between atoms: C_20  and  S_21 
REMARK    5  A    between atoms: S_21  and  N_24 
REMARK    6  A    between atoms: C_25  and  N_24 
REMARK    7  A    between atoms: C_25  and  C_26 
REMARK    8  A    between atoms: C_25  and  C_29 
REMARK    9  A    between atoms: C_26  and  O_27 
REMARK   10  A    between atoms: C_29  and  C_30 
REMARK   11  A    between atoms: C_30  and  C_31 
REMARK   12  A    between atoms: C_31  and  O_32 
ROOT
HETATM    1  N   UNK N   1      34.947  17.588   9.411  0.00  0.00    -0.191 NA
HETATM    2  C   UNK N   1      34.049  17.524   8.690  0.00  0.00     0.099 C 
HETATM    3  C   UNK N   1      32.937  17.433   7.786  0.00  0.00     0.047 A 
HETATM    4  C   UNK N   1      31.635  17.313   8.284  0.00  0.00     0.023 A 
HETATM    5  C   UNK N   1      30.558  17.188   7.400  0.00  0.00     0.014 A 
HETATM    6  C   UNK N   1      33.162  17.437   6.409  0.00  0.00     0.065 A 
HETATM    7  C   UNK N   1      32.090  17.314   5.524  0.00  0.00     0.126 A 
HETATM    8  C   UNK N   1      30.783  17.190   6.021  0.00  0.00     0.005 A 
HETATM    9  F   UNK N   1      32.330  17.287   4.190  0.00  0.00    -0.205 F 
ENDROOT
BRANCH   8  10
HETATM   10  C   UNK N   1      29.647  16.967   5.088  0.00  0.00     0.217 C 
BRANCH  10  11
HETATM   11  O   UNK N   1      29.132  18.140   4.581  0.00  0.00    -0.347 OA
BRANCH  11  12
HETATM   12  C   UNK N   1      27.797  18.346   4.564  0.00  0.00     0.070 A 
HETATM   13  C   UNK N   1      26.963  17.460   5.252  0.00  0.00     0.037 A 
HETATM   14  C   UNK N   1      25.575  17.579   5.151  0.00  0.00     0.015 A 
HETATM   15  C   UNK N   1      25.019  18.600   4.378  0.00  0.00    -0.024 A 
HETATM   16  C   UNK N   1      25.852  19.532   3.724  0.00  0.00    -0.023 A 
HETATM   17  C   UNK N   1      23.642  18.678   4.222  0.00  0.00     0.037 A 
HETATM   18  C   UNK N   1      27.235  19.393   3.813  0.00  0.00     0.049 A 
HETATM   19  C   UNK N   1      25.285  20.557   2.958  0.00  0.00     0.014 A 
HETATM   20  C   UNK N   1      23.894  20.625   2.802  0.00  0.00     0.026 A 
HETATM   21  C   UNK N   1      23.079  19.676   3.429  0.00  0.00     0.080 A 
BRANCH  21  22
HETATM   22  S   UNK N   1      21.334  19.589   3.089  0.00  0.00     0.259 S 
HETATM   23  O   UNK N   1      20.990  19.806   1.608  0.00  0.00    -0.201 OA
HETATM   24  O   UNK N   1      20.453  20.620   3.812  0.00  0.00    -0.201 OA
BRANCH  22  25
HETATM   25  N   UNK N   1      20.650  17.994   3.460  0.00  0.00    -0.300 N 
HETATM   26  H   UNK N   1      19.957  17.820   4.188  0.00  0.00     0.173 HD
BRANCH  25  27
HETATM   27  C   UNK N   1      21.207  16.958   2.586  0.00  0.00     0.191 C 
BRANCH  27  28
HETATM   28  C   UNK N   1      20.327  16.814   1.364  0.00  0.00     0.164 C 
HETATM   29  O   UNK N   1      20.686  16.103   0.438  0.00  0.00    -0.648 OA
BRANCH  28  30
HETATM   30  O   UNK N   1      19.141  17.451   1.282  0.00  0.00    -0.775 OA
HETATM   31  H   UNK N   1      18.856  17.876   0.496  0.00  0.00     0.167 HD
ENDBRANCH  28  30
ENDBRANCH  27  28
BRANCH  27  32
HETATM   32  C   UNK N   1      21.285  15.677   3.408  0.00  0.00     0.047 C 
BRANCH  32  33
HETATM   33  C   UNK N   1      21.542  15.936   4.882  0.00  0.00     0.112 C 
BRANCH  33  34
HETATM   34  C   UNK N   1      22.569  14.970   5.367  0.00  0.00     0.139 C 
HETATM   35  O   UNK N   1      22.668  14.720   6.558  0.00  0.00    -0.650 OA
BRANCH  34  36
HETATM   36  O   UNK N   1      23.381  14.359   4.484  0.00  0.00    -0.776 OA
HETATM   37  H   UNK N   1      23.105  13.629   3.963  0.00  0.00     0.167 HD
ENDBRANCH  34  36
ENDBRANCH  33  34
ENDBRANCH  32  33
ENDBRANCH  27  32
ENDBRANCH  25  27
ENDBRANCH  22  25
ENDBRANCH  21  22
ENDBRANCH  11  12
ENDBRANCH  10  11
ENDBRANCH   8  10
TORSDOF 12
ENDMDL
MODEL 2
REMARK VINA RESULT:      -7.3      2.185      3.954
REMARK  12 active torsions:
REMARK  status: ('A' for Active; 'I' for Inactive)
REMARK    1  A    between atoms: C_8  and  C_9 
REMARK    2  A    between atoms: C_9  and  O_10 
REMARK    3  A    between atoms: O_10  and  C_11 
REMARK    4  A    between atoms: C_20  and  S_21 
REMARK    5  A    between atoms: S_21  and  N_24 
REMARK    6  A    between atoms: C_25  and  N_24 
REMARK    7  A    between atoms: C_25  and  C_26 
REMARK    8  A    between atoms: C_25  and  C_29 
REMARK    9  A    between atoms: C_26  and  O_27 
REMARK   10  A    between atoms: C_29  and  C_30 
REMARK   11  A    between atoms: C_30  and  C_31 
REMARK   12  A    between atoms: C_31  and  O_32 
ROOT
HETATM    1  N   UNK N   1      36.187  14.383   9.169  0.00  0.00    -0.191 NA
HETATM    2  C   UNK N   1      35.472  14.872   8.406  0.00  0.00     0.099 C 
HETATM    3  C   UNK N   1      34.587  15.494   7.461  0.00  0.00     0.047 A 
HETATM    4  C   UNK N   1      34.741  15.254   6.092  0.00  0.00     0.023 A 
HETATM    5  C   UNK N   1      33.899  15.890   5.173  0.00  0.00     0.014 A 
HETATM    6  C   UNK N   1      33.590  16.359   7.914  0.00  0.00     0.065 A 
HETATM    7  C   UNK N   1      32.748  16.994   7.000  0.00  0.00     0.126 A 
HETATM    8  C   UNK N   1      32.902  16.759   5.625  0.00  0.00     0.005 A 
HETATM    9  F   UNK N   1      31.806  17.857   7.455  0.00  0.00    -0.205 F 
ENDROOT
BRANCH   8  10
HETATM   10  C   UNK N   1      32.068  17.501   4.641  0.00  0.00     0.217 C 
BRANCH  10  11
HETATM   11  O   UNK N   1      31.109  16.710   4.047  0.00  0.00    -0.347 OA
BRANCH  11  12
HETATM   12  C   UNK N   1      29.805  17.049   4.126  0.00  0.00     0.070 A 
HETATM   13  C   UNK N   1      29.415  18.056   5.014  0.00  0.00     0.037 A 
HETATM   14  C   UNK N   1      28.061  18.342   5.202  0.00  0.00     0.015 A 
HETATM   15  C   UNK N   1      27.094  17.635   4.485  0.00  0.00    -0.024 A 
HETATM   16  C   UNK N   1      27.480  16.654   3.547  0.00  0.00    -0.023 A 
HETATM   17  C   UNK N   1      25.747  17.870   4.722  0.00  0.00     0.037 A 
HETATM   18  C   UNK N   1      28.831  16.360   3.380  0.00  0.00     0.049 A 
HETATM   19  C   UNK N   1      26.504  15.956   2.826  0.00  0.00     0.014 A 
HETATM   20  C   UNK N   1      25.146  16.197   3.075  0.00  0.00     0.026 A 
HETATM   21  C   UNK N   1      24.775  17.149   4.032  0.00  0.00     0.080 A 
BRANCH  21  22
HETATM   22  S   UNK N   1      23.079  17.337   4.537  0.00  0.00     0.259 S 
HETATM   23  O   UNK N   1      22.898  18.301   5.720  0.00  0.00    -0.201 OA
HETATM   24  O   UNK N   1      22.369  16.059   5.010  0.00  0.00    -0.201 OA
BRANCH  22  25
HETATM   25  N   UNK N   1      22.064  18.033   3.258  0.00  0.00    -0.300 N 
HETATM   26  H   UNK N   1      22.327  18.074   2.273  0.00  0.00     0.173 HD
BRANCH  25  27
HETATM   27  C   UNK N   1      20.800  18.541   3.796  0.00  0.00     0.191 C 
BRANCH  27  28
HETATM   28  C   UNK N   1      19.659  17.704   3.259  0.00  0.00     0.164 C 
HETATM   29  O   UNK N   1      19.431  16.607   3.746  0.00  0.00    -0.648 OA
BRANCH  28  30
HETATM   30  O   UNK N   1      18.879  18.153   2.256  0.00  0.00    -0.775 OA
HETATM   31  H   UNK N   1      18.412  17.571   1.687  0.00  0.00     0.167 HD
ENDBRANCH  28  30
ENDBRANCH  27  28
BRANCH  27  32
HETATM   32  C   UNK N   1      20.698  20.005   3.386  0.00  0.00     0.047 C 
BRANCH  32  33
HETATM   33  C   UNK N   1      21.690  20.385   2.302  0.00  0.00     0.112 C 
BRANCH  33  34
HETATM   34  C   UNK N   1      20.940  20.690   1.049  0.00  0.00     0.139 C 
HETATM   35  O   UNK N   1      20.649  21.842   0.769  0.00  0.00    -0.650 OA
BRANCH  34  36
HETATM   36  O   UNK N   1      20.598  19.690   0.217  0.00  0.00    -0.776 OA
HETATM   37  H   UNK N   1      19.915  19.078   0.413  0.00  0.00     0.167 HD
ENDBRANCH  34  36
ENDBRANCH  33  34
ENDBRANCH  32  33
ENDBRANCH  27  32
ENDBRANCH  25  27
ENDBRANCH  22  25
ENDBRANCH  21  22
ENDBRANCH  11  12
ENDBRANCH  10  11
ENDBRANCH   8  10
TORSDOF 12
ENDMDL
MODEL 3
REMARK VINA RESULT:      -7.2     13.517     18.590
REMARK  12 active torsions:
REMARK  status: ('A' for Active; 'I' for Inactive)
REMARK    1  A    between atoms: C_8  and  C_9 
REMARK    2  A    between atoms: C_9  and  O_10 
REMARK    3  A    between atoms: O_10  and  C_11 
REMARK    4  A    between atoms: C_20  and  S_21 
REMARK    5  A    between atoms: S_21  and  N_24 
REMARK    6  A    between atoms: C_25  and  N_24 
REMARK    7  A    between atoms: C_25  and  C_26 
REMARK    8  A    between atoms: C_25  and  C_29 
REMARK    9  A    between atoms: C_26  and  O_27 
REMARK   10  A    between atoms: C_29  and  C_30 
REMARK   11  A    between atoms: C_30  and  C_31 
REMARK   12  A    between atoms: C_31  and  O_32 
ROOT
HETATM    1  N   UNK N   1      30.877   5.132  24.745  0.00  0.00    -0.191 NA
HETATM    2  C   UNK N   1      31.224   6.093  24.208  0.00  0.00     0.099 C 
HETATM    3  C   UNK N   1      31.665   7.289  23.547  0.00  0.00     0.047 A 
HETATM    4  C   UNK N   1      31.891   7.287  22.167  0.00  0.00     0.023 A 
HETATM    5  C   UNK N   1      32.356   8.444  21.534  0.00  0.00     0.014 A 
HETATM    6  C   UNK N   1      31.894   8.447  24.292  0.00  0.00     0.065 A 
HETATM    7  C   UNK N   1      32.357   9.604  23.664  0.00  0.00     0.126 A 
HETATM    8  C   UNK N   1      32.588   9.603  22.280  0.00  0.00     0.005 A 
HETATM    9  F   UNK N   1      32.605  10.709  24.408  0.00  0.00    -0.205 F 
ENDROOT
BRANCH   8  10
HETATM   10  C   UNK N   1      33.167  10.803  21.618  0.00  0.00     0.217 C 
BRANCH  10  11
HETATM   11  O   UNK N   1      34.427  10.579  21.109  0.00  0.00    -0.347 OA
BRANCH  11  12
HETATM   12  C   UNK N   1      34.837  11.227  19.999  0.00  0.00     0.070 A 
HETATM   13  C   UNK N   1      34.822  12.625  19.981  0.00  0.00     0.037 A 
HETATM   14  C   UNK N   1      35.125  13.317  18.806  0.00  0.00     0.015 A 
HETATM   15  C   UNK N   1      35.468  12.610  17.651  0.00  0.00    -0.024 A 
HETATM   16  C   UNK N   1      35.539  11.202  17.674  0.00  0.00    -0.023 A 
HETATM   17  C   UNK N   1      35.702  13.294  16.467  0.00  0.00     0.037 A 
HETATM   18  C   UNK N   1      35.214  10.519  18.843  0.00  0.00     0.049 A 
HETATM   19  C   UNK N   1      35.891  10.502  16.513  0.00  0.00     0.014 A 
HETATM   20  C   UNK N   1      36.122  11.201  15.321  0.00  0.00     0.026 A 
HETATM   21  C   UNK N   1      36.016  12.596  15.302  0.00  0.00     0.080 A 
BRANCH  21  22
HETATM   22  S   UNK N   1      36.087  13.507  13.775  0.00  0.00     0.259 S 
HETATM   23  O   UNK N   1      36.387  15.001  13.969  0.00  0.00    -0.201 OA
HETATM   24  O   UNK N   1      34.802  13.511  12.931  0.00  0.00    -0.201 OA
BRANCH  22  25
HETATM   25  N   UNK N   1      37.388  12.943  12.708  0.00  0.00    -0.300 N 
HETATM   26  H   UNK N   1      38.371  12.889  12.978  0.00  0.00     0.173 HD
BRANCH  25  27
HETATM   27  C   UNK N   1      36.872  12.563  11.391  0.00  0.00     0.191 C 
BRANCH  27  28
HETATM   28  C   UNK N   1      37.010  11.065  11.217  0.00  0.00     0.164 C 
HETATM   29  O   UNK N   1      38.004  10.606  10.677  0.00  0.00    -0.648 OA
BRANCH  28  30
HETATM   30  O   UNK N   1      36.055  10.223  11.661  0.00  0.00    -0.775 OA
HETATM   31  H   UNK N   1      35.201  10.523  11.907  0.00  0.00     0.167 HD
ENDBRANCH  28  30
ENDBRANCH  27  28
BRANCH  27  32
HETATM   32  C   UNK N   1      37.668  13.350  10.357  0.00  0.00     0.047 C 
BRANCH  32  33
HETATM   33  C   UNK N   1      36.787  14.165   9.428  0.00  0.00     0.112 C 
BRANCH  33  34
HETATM   34  C   UNK N   1      36.209  15.307  10.193  0.00  0.00     0.139 C 
HETATM   35  O   UNK N   1      35.022  15.574  10.099  0.00  0.00    -0.650 OA
BRANCH  34  36
HETATM   36  O   UNK N   1      36.999  16.036  11.003  0.00  0.00    -0.776 OA
HETATM   37  H   UNK N   1      36.788  16.911  11.264  0.00  0.00     0.167 HD
ENDBRANCH  34  36
ENDBRANCH  33  34
ENDBRANCH  32  33
ENDBRANCH  27  32
ENDBRANCH  25  27
ENDBRANCH  22  25
ENDBRANCH  21  22
ENDBRANCH  11  12
ENDBRANCH  10  11
ENDBRANCH   8  10
TORSDOF 12
ENDMDL
MODEL 4
REMARK VINA RESULT:      -6.9      5.162      9.709
REMARK  12 active torsions:
REMARK  status: ('A' for Active; 'I' for Inactive)
REMARK    1  A    between atoms: C_8  and  C_9 
REMARK    2  A    between atoms: C_9  and  O_10 
REMARK    3  A    between atoms: O_10  and  C_11 
REMARK    4  A    between atoms: C_20  and  S_21 
REMARK    5  A    between atoms: S_21  and  N_24 
REMARK    6  A    between atoms: C_25  and  N_24 
REMARK    7  A    between atoms: C_25  and  C_26 
REMARK    8  A    between atoms: C_25  and  C_29 
REMARK    9  A    between atoms: C_26  and  O_27 
REMARK   10  A    between atoms: C_29  and  C_30 
REMARK   11  A    between atoms: C_30  and  C_31 
REMARK   12  A    between atoms: C_31  and  O_32 
ROOT
HETATM    1  N   UNK N   1      23.684  11.941  13.926  0.00  0.00    -0.191 NA
HETATM    2  C   UNK N   1      23.300  11.993  12.839  0.00  0.00     0.099 C 
HETATM    3  C   UNK N   1      22.821  12.072  11.488  0.00  0.00     0.047 A 
HETATM    4  C   UNK N   1      23.564  11.508  10.446  0.00  0.00     0.023 A 
HETATM    5  C   UNK N   1      23.113  11.618   9.126  0.00  0.00     0.014 A 
HETATM    6  C   UNK N   1      21.626  12.738  11.214  0.00  0.00     0.065 A 
HETATM    7  C   UNK N   1      21.171  12.849   9.899  0.00  0.00     0.126 A 
HETATM    8  C   UNK N   1      21.916  12.288   8.852  0.00  0.00     0.005 A 
HETATM    9  F   UNK N   1      20.024  13.528   9.649  0.00  0.00    -0.205 F 
ENDROOT
BRANCH   8  10
HETATM   10  C   UNK N   1      21.486  12.480   7.441  0.00  0.00     0.217 C 
BRANCH  10  11
HETATM   11  O   UNK N   1      22.508  12.284   6.538  0.00  0.00    -0.347 OA
BRANCH  11  12
HETATM   12  C   UNK N   1      23.459  13.227   6.372  0.00  0.00     0.070 A 
HETATM   13  C   UNK N   1      23.116  14.575   6.521  0.00  0.00     0.037 A 
HETATM   14  C   UNK N   1      24.051  15.574   6.237  0.00  0.00     0.015 A 
HETATM   15  C   UNK N   1      25.338  15.225   5.826  0.00  0.00    -0.024 A 
HETATM   16  C   UNK N   1      25.711  13.869   5.725  0.00  0.00    -0.023 A 
HETATM   17  C   UNK N   1      26.245  16.217   5.478  0.00  0.00     0.037 A 
HETATM   18  C   UNK N   1      24.767  12.878   5.989  0.00  0.00     0.049 A 
HETATM   19  C   UNK N   1      27.007  13.528   5.319  0.00  0.00     0.014 A 
HETATM   20  C   UNK N   1      27.914  14.536   4.967  0.00  0.00     0.026 A 
HETATM   21  C   UNK N   1      27.523  15.878   5.039  0.00  0.00     0.080 A 
BRANCH  21  22
HETATM   22  S   UNK N   1      28.559  17.177   4.399  0.00  0.00     0.259 S 
HETATM   23  O   UNK N   1      27.768  18.326   3.755  0.00  0.00    -0.201 OA
HETATM   24  O   UNK N   1      29.550  16.769   3.298  0.00  0.00    -0.201 OA
BRANCH  22  25
HETATM   25  N   UNK N   1      29.512  17.971   5.668  0.00  0.00    -0.300 N 
HETATM   26  H   UNK N   1      30.046  18.830   5.535  0.00  0.00     0.173 HD
BRANCH  25  27
HETATM   27  C   UNK N   1      29.435  17.235   6.933  0.00  0.00     0.191 C 
BRANCH  27  28
HETATM   28  C   UNK N   1      28.517  17.975   7.882  0.00  0.00     0.164 C 
HETATM   29  O   UNK N   1      28.016  19.034   7.538  0.00  0.00    -0.648 OA
BRANCH  28  30
HETATM   30  O   UNK N   1      28.230  17.477   9.102  0.00  0.00    -0.775 OA
HETATM   31  H   UNK N   1      28.900  17.233   9.711  0.00  0.00     0.167 HD
ENDBRANCH  28  30
ENDBRANCH  27  28
BRANCH  27  32
HETATM   32  C   UNK N   1      30.858  17.115   7.465  0.00  0.00     0.047 C 
BRANCH  32  33
HETATM   33  C   UNK N   1      31.904  17.142   6.366  0.00  0.00     0.112 C 
BRANCH  33  34
HETATM   34  C   UNK N   1      33.193  17.622   6.942  0.00  0.00     0.139 C 
HETATM   35  O   UNK N   1      34.140  17.870   6.212  0.00  0.00    -0.650 OA
BRANCH  34  36
HETATM   36  O   UNK N   1      33.306  17.797   8.271  0.00  0.00    -0.776 OA
HETATM   37  H   UNK N   1      32.889  18.502   8.727  0.00  0.00     0.167 HD
ENDBRANCH  34  36
ENDBRANCH  33  34
ENDBRANCH  32  33
ENDBRANCH  27  32
ENDBRANCH  25  27
ENDBRANCH  22  25
ENDBRANCH  21  22
ENDBRANCH  11  12
ENDBRANCH  10  11
ENDBRANCH   8  10
TORSDOF 12
ENDMDL
MODEL 5
REMARK VINA RESULT:      -6.9      4.804     11.302
REMARK  12 active torsions:
REMARK  status: ('A' for Active; 'I' for Inactive)
REMARK    1  A    between atoms: C_8  and  C_9 
REMARK    2  A    between atoms: C_9  and  O_10 
REMARK    3  A    between atoms: O_10  and  C_11 
REMARK    4  A    between atoms: C_20  and  S_21 
REMARK    5  A    between atoms: S_21  and  N_24 
REMARK    6  A    between atoms: C_25  and  N_24 
REMARK    7  A    between atoms: C_25  and  C_26 
REMARK    8  A    between atoms: C_25  and  C_29 
REMARK    9  A    between atoms: C_26  and  O_27 
REMARK   10  A    between atoms: C_29  and  C_30 
REMARK   11  A    between atoms: C_30  and  C_31 
REMARK   12  A    between atoms: C_31  and  O_32 
ROOT
HETATM    1  N   UNK N   1      19.300  15.324   9.064  0.00  0.00    -0.191 NA
HETATM    2  C   UNK N   1      20.118  15.635   8.312  0.00  0.00     0.099 C 
HETATM    3  C   UNK N   1      21.138  16.034   7.383  0.00  0.00     0.047 A 
HETATM    4  C   UNK N   1      22.274  15.239   7.203  0.00  0.00     0.023 A 
HETATM    5  C   UNK N   1      23.282  15.650   6.324  0.00  0.00     0.014 A 
HETATM    6  C   UNK N   1      21.004  17.233   6.681  0.00  0.00     0.065 A 
HETATM    7  C   UNK N   1      22.007  17.645   5.802  0.00  0.00     0.126 A 
HETATM    8  C   UNK N   1      23.149  16.851   5.622  0.00  0.00     0.005 A 
HETATM    9  F   UNK N   1      21.874  18.828   5.153  0.00  0.00    -0.205 F 
ENDROOT
BRANCH   8  10
HETATM   10  C   UNK N   1      24.262  17.327   4.758  0.00  0.00     0.217 C 
BRANCH  10  11
HETATM   11  O   UNK N   1      25.243  16.377   4.575  0.00  0.00    -0.347 OA
BRANCH  11  12
HETATM   12  C   UNK N   1      26.531  16.666   4.858  0.00  0.00     0.070 A 
HETATM   13  C   UNK N   1      27.463  16.709   3.817  0.00  0.00     0.037 A 
HETATM   14  C   UNK N   1      28.821  16.885   4.096  0.00  0.00     0.015 A 
HETATM   15  C   UNK N   1      29.245  17.042   5.417  0.00  0.00    -0.024 A 
HETATM   16  C   UNK N   1      28.306  17.055   6.469  0.00  0.00    -0.023 A 
HETATM   17  C   UNK N   1      30.599  17.149   5.700  0.00  0.00     0.037 A 
HETATM   18  C   UNK N   1      26.957  16.857   6.185  0.00  0.00     0.049 A 
HETATM   19  C   UNK N   1      28.739  17.221   7.790  0.00  0.00     0.014 A 
HETATM   20  C   UNK N   1      30.109  17.324   8.067  0.00  0.00     0.026 A 
HETATM   21  C   UNK N   1      31.034  17.277   7.018  0.00  0.00     0.080 A 
BRANCH  21  22
HETATM   22  S   UNK N   1      32.784  17.186   7.333  0.00  0.00     0.259 S 
HETATM   23  O   UNK N   1      33.183  17.729   8.714  0.00  0.00    -0.201 OA
HETATM   24  O   UNK N   1      33.685  17.973   6.369  0.00  0.00    -0.201 OA
BRANCH  22  25
HETATM   25  N   UNK N   1      33.385  15.517   7.338  0.00  0.00    -0.300 N 
HETATM   26  H   UNK N   1      32.826  14.703   7.083  0.00  0.00     0.173 HD
BRANCH  25  27
HETATM   27  C   UNK N   1      34.789  15.456   7.754  0.00  0.00     0.191 C 
BRANCH  27  28
HETATM   28  C   UNK N   1      35.637  15.028   6.576  0.00  0.00     0.164 C 
HETATM   29  O   UNK N   1      35.380  15.448   5.459  0.00  0.00    -0.648 OA
BRANCH  28  30
HETATM   30  O   UNK N   1      36.686  14.196   6.740  0.00  0.00    -0.775 OA
HETATM   31  H   UNK N   1      37.320  14.054   6.064  0.00  0.00     0.167 HD
ENDBRANCH  28  30
ENDBRANCH  27  28
BRANCH  27  32
HETATM   32  C   UNK N   1      34.866  14.478   8.920  0.00  0.00     0.047 C 
BRANCH  32  33
HETATM   33  C   UNK N   1      34.409  15.088  10.233  0.00  0.00     0.112 C 
BRANCH  33  34
HETATM   34  C   UNK N   1      35.423  16.085  10.678  0.00  0.00     0.139 C 
HETATM   35  O   UNK N   1      36.615  15.830  10.601  0.00  0.00    -0.650 OA
BRANCH  34  36
HETATM   36  O   UNK N   1      35.022  17.279  11.152  0.00  0.00    -0.776 OA
HETATM   37  H   UNK N   1      34.950  17.462  12.069  0.00  0.00     0.167 HD
ENDBRANCH  34  36
ENDBRANCH  33  34
ENDBRANCH  32  33
ENDBRANCH  27  32
ENDBRANCH  25  27
ENDBRANCH  22  25
ENDBRANCH  21  22
ENDBRANCH  11  12
ENDBRANCH  10  11
ENDBRANCH   8  10
TORSDOF 12
ENDMDL
MODEL 6
REMARK VINA RESULT:      -6.8      7.500     12.803
REMARK  12 active torsions:
REMARK  status: ('A' for Active; 'I' for Inactive)
REMARK    1  A    between atoms: C_8  and  C_9 
REMARK    2  A    between atoms: C_9  and  O_10 
REMARK    3  A    between atoms: O_10  and  C_11 
REMARK    4  A    between atoms: C_20  and  S_21 
REMARK    5  A    between atoms: S_21  and  N_24 
REMARK    6  A    between atoms: C_25  and  N_24 
REMARK    7  A    between atoms: C_25  and  C_26 
REMARK    8  A    between atoms: C_25  and  C_29 
REMARK    9  A    between atoms: C_26  and  O_27 
REMARK   10  A    between atoms: C_29  and  C_30 
REMARK   11  A    between atoms: C_30  and  C_31 
REMARK   12  A    between atoms: C_31  and  O_32 
ROOT
HETATM    1  N   UNK N   1      34.275  12.701   1.400  0.00  0.00    -0.191 NA
HETATM    2  C   UNK N   1      33.630  13.450   1.995  0.00  0.00     0.099 C 
HETATM    3  C   UNK N   1      32.828  14.392   2.725  0.00  0.00     0.047 A 
HETATM    4  C   UNK N   1      31.505  14.081   3.055  0.00  0.00     0.023 A 
HETATM    5  C   UNK N   1      30.717  15.015   3.735  0.00  0.00     0.014 A 
HETATM    6  C   UNK N   1      33.366  15.630   3.080  0.00  0.00     0.065 A 
HETATM    7  C   UNK N   1      32.583  16.564   3.759  0.00  0.00     0.126 A 
HETATM    8  C   UNK N   1      31.254  16.257   4.088  0.00  0.00     0.005 A 
HETATM    9  F   UNK N   1      33.112  17.774   4.066  0.00  0.00    -0.205 F 
ENDROOT
BRANCH   8  10
HETATM   10  C   UNK N   1      30.387  17.280   4.730  0.00  0.00     0.217 C 
BRANCH  10  11
HETATM   11  O   UNK N   1      30.048  16.958   6.026  0.00  0.00    -0.347 OA
BRANCH  11  12
HETATM   12  C   UNK N   1      31.010  16.774   6.955  0.00  0.00     0.070 A 
HETATM   13  C   UNK N   1      31.679  17.887   7.472  0.00  0.00     0.037 A 
HETATM   14  C   UNK N   1      32.759  17.716   8.342  0.00  0.00     0.015 A 
HETATM   15  C   UNK N   1      33.157  16.430   8.714  0.00  0.00    -0.024 A 
HETATM   16  C   UNK N   1      32.454  15.303   8.240  0.00  0.00    -0.023 A 
HETATM   17  C   UNK N   1      34.271  16.258   9.523  0.00  0.00     0.037 A 
HETATM   18  C   UNK N   1      31.392  15.481   7.356  0.00  0.00     0.049 A 
HETATM   19  C   UNK N   1      32.855  14.018   8.624  0.00  0.00     0.014 A 
HETATM   20  C   UNK N   1      33.983  13.854   9.437  0.00  0.00     0.026 A 
HETATM   21  C   UNK N   1      34.693  14.978   9.875  0.00  0.00     0.080 A 
BRANCH  21  22
HETATM   22  S   UNK N   1      36.248  14.814  10.725  0.00  0.00     0.259 S 
HETATM   23  O   UNK N   1      37.000  16.145  10.883  0.00  0.00    -0.201 OA
HETATM   24  O   UNK N   1      37.288  13.898  10.060  0.00  0.00    -0.201 OA
BRANCH  22  25
HETATM   25  N   UNK N   1      36.053  14.232  12.390  0.00  0.00    -0.300 N 
HETATM   26  H   UNK N   1      35.640  14.778  13.146  0.00  0.00     0.173 HD
BRANCH  25  27
HETATM   27  C   UNK N   1      36.560  12.865  12.541  0.00  0.00     0.191 C 
BRANCH  27  28
HETATM   28  C   UNK N   1      35.506  11.890  12.064  0.00  0.00     0.164 C 
HETATM   29  O   UNK N   1      35.784  11.067  11.205  0.00  0.00    -0.648 OA
BRANCH  28  30
HETATM   30  O   UNK N   1      34.261  11.904  12.582  0.00  0.00    -0.775 OA
HETATM   31  H   UNK N   1      34.099  11.766  13.495  0.00  0.00     0.167 HD
ENDBRANCH  28  30
ENDBRANCH  27  28
BRANCH  27  32
HETATM   32  C   UNK N   1      36.911  12.680  14.012  0.00  0.00     0.047 C 
BRANCH  32  33
HETATM   33  C   UNK N   1      36.348  13.779  14.896  0.00  0.00     0.112 C 
BRANCH  33  34
HETATM   34  C   UNK N   1      35.307  13.191  15.787  0.00  0.00     0.139 C 
HETATM   35  O   UNK N   1      35.482  13.146  16.994  0.00  0.00    -0.650 OA
BRANCH  34  36
HETATM   36  O   UNK N   1      34.161  12.723  15.258  0.00  0.00    -0.776 OA
HETATM   37  H   UNK N   1      33.897  12.908  14.378  0.00  0.00     0.167 HD
ENDBRANCH  34  36
ENDBRANCH  33  34
ENDBRANCH  32  33
ENDBRANCH  27  32
ENDBRANCH  25  27
ENDBRANCH  22  25
ENDBRANCH  21  22
ENDBRANCH  11  12
ENDBRANCH  10  11
ENDBRANCH   8  10
TORSDOF 12
ENDMDL
MODEL 7
REMARK VINA RESULT:      -6.8      5.456     10.201
REMARK  12 active torsions:
REMARK  status: ('A' for Active; 'I' for Inactive)
REMARK    1  A    between atoms: C_8  and  C_9 
REMARK    2  A    between atoms: C_9  and  O_10 
REMARK    3  A    between atoms: O_10  and  C_11 
REMARK    4  A    between atoms: C_20  and  S_21 
REMARK    5  A    between atoms: S_21  and  N_24 
REMARK    6  A    between atoms: C_25  and  N_24 
REMARK    7  A    between atoms: C_25  and  C_26 
REMARK    8  A    between atoms: C_25  and  C_29 
REMARK    9  A    between atoms: C_26  and  O_27 
REMARK   10  A    between atoms: C_29  and  C_30 
REMARK   11  A    between atoms: C_30  and  C_31 
REMARK   12  A    between atoms: C_31  and  O_32 
ROOT
HETATM    1  N   UNK N   1      23.341  11.909  13.593  0.00  0.00    -0.191 NA
HETATM    2  C   UNK N   1      23.058  11.982  12.477  0.00  0.00     0.099 C 
HETATM    3  C   UNK N   1      22.708  12.087  11.088  0.00  0.00     0.047 A 
HETATM    4  C   UNK N   1      23.359  11.294  10.138  0.00  0.00     0.023 A 
HETATM    5  C   UNK N   1      23.040  11.424   8.783  0.00  0.00     0.014 A 
HETATM    6  C   UNK N   1      21.734  13.003  10.687  0.00  0.00     0.065 A 
HETATM    7  C   UNK N   1      21.413  13.136   9.336  0.00  0.00     0.126 A 
HETATM    8  C   UNK N   1      22.067  12.344   8.380  0.00  0.00     0.005 A 
HETATM    9  F   UNK N   1      20.489  14.054   8.961  0.00  0.00    -0.205 F 
ENDROOT
BRANCH   8  10
HETATM   10  C   UNK N   1      21.796  12.543   6.931  0.00  0.00     0.217 C 
BRANCH  10  11
HETATM   11  O   UNK N   1      22.794  12.042   6.125  0.00  0.00    -0.347 OA
BRANCH  11  12
HETATM   12  C   UNK N   1      23.761  12.858   5.654  0.00  0.00     0.070 A 
HETATM   13  C   UNK N   1      24.194  12.708   4.333  0.00  0.00     0.037 A 
HETATM   14  C   UNK N   1      25.275  13.456   3.858  0.00  0.00     0.015 A 
HETATM   15  C   UNK N   1      25.909  14.373   4.699  0.00  0.00    -0.024 A 
HETATM   16  C   UNK N   1      25.445  14.570   6.016  0.00  0.00    -0.023 A 
HETATM   17  C   UNK N   1      27.024  15.066   4.250  0.00  0.00     0.037 A 
HETATM   18  C   UNK N   1      24.381  13.805   6.489  0.00  0.00     0.049 A 
HETATM   19  C   UNK N   1      26.083  15.497   6.850  0.00  0.00     0.014 A 
HETATM   20  C   UNK N   1      27.210  16.189   6.389  0.00  0.00     0.026 A 
HETATM   21  C   UNK N   1      27.682  15.961   5.091  0.00  0.00     0.080 A 
BRANCH  21  22
HETATM   22  S   UNK N   1      29.228  16.648   4.537  0.00  0.00     0.259 S 
HETATM   23  O   UNK N   1      29.378  18.144   4.851  0.00  0.00    -0.201 OA
HETATM   24  O   UNK N   1      29.495  16.576   3.025  0.00  0.00    -0.201 OA
BRANCH  22  25
HETATM   25  N   UNK N   1      30.626  15.900   5.332  0.00  0.00    -0.300 N 
HETATM   26  H   UNK N   1      30.716  14.901   5.519  0.00  0.00     0.173 HD
BRANCH  25  27
HETATM   27  C   UNK N   1      31.637  16.899   5.688  0.00  0.00     0.191 C 
BRANCH  27  28
HETATM   28  C   UNK N   1      32.735  16.886   4.646  0.00  0.00     0.164 C 
HETATM   29  O   UNK N   1      32.702  17.682   3.720  0.00  0.00    -0.648 OA
BRANCH  28  30
HETATM   30  O   UNK N   1      33.761  16.016   4.729  0.00  0.00    -0.775 OA
HETATM   31  H   UNK N   1      34.015  15.619   5.539  0.00  0.00     0.167 HD
ENDBRANCH  28  30
ENDBRANCH  27  28
BRANCH  27  32
HETATM   32  C   UNK N   1      32.143  16.545   7.080  0.00  0.00     0.047 C 
BRANCH  32  33
HETATM   33  C   UNK N   1      32.361  17.764   7.958  0.00  0.00     0.112 C 
BRANCH  33  34
HETATM   34  C   UNK N   1      33.814  17.876   8.273  0.00  0.00     0.139 C 
HETATM   35  O   UNK N   1      34.610  18.197   7.405  0.00  0.00    -0.650 OA
BRANCH  34  36
HETATM   36  O   UNK N   1      34.247  17.636   9.524  0.00  0.00    -0.776 OA
HETATM   37  H   UNK N   1      35.070  17.950   9.844  0.00  0.00     0.167 HD
ENDBRANCH  34  36
ENDBRANCH  33  34
ENDBRANCH  32  33
ENDBRANCH  27  32
ENDBRANCH  25  27
ENDBRANCH  22  25
ENDBRANCH  21  22
ENDBRANCH  11  12
ENDBRANCH  10  11
ENDBRANCH   8  10
TORSDOF 12
ENDMDL
MODEL 8
REMARK VINA RESULT:      -6.8      5.744     10.658
REMARK  12 active torsions:
REMARK  status: ('A' for Active; 'I' for Inactive)
REMARK    1  A    between atoms: C_8  and  C_9 
REMARK    2  A    between atoms: C_9  and  O_10 
REMARK    3  A    between atoms: O_10  and  C_11 
REMARK    4  A    between atoms: C_20  and  S_21 
REMARK    5  A    between atoms: S_21  and  N_24 
REMARK    6  A    between atoms: C_25  and  N_24 
REMARK    7  A    between atoms: C_25  and  C_26 
REMARK    8  A    between atoms: C_25  and  C_29 
REMARK    9  A    between atoms: C_26  and  O_27 
REMARK   10  A    between atoms: C_29  and  C_30 
REMARK   11  A    between atoms: C_30  and  C_31 
REMARK   12  A    between atoms: C_31  and  O_32 
ROOT
HETATM    1  N   UNK N   1      22.953  11.576  13.410  0.00  0.00    -0.191 NA
HETATM    2  C   UNK N   1      23.115  11.935  12.325  0.00  0.00     0.099 C 
HETATM    3  C   UNK N   1      23.310  12.393  10.978  0.00  0.00     0.047 A 
HETATM    4  C   UNK N   1      24.601  12.480  10.446  0.00  0.00     0.023 A 
HETATM    5  C   UNK N   1      24.789  12.961   9.146  0.00  0.00     0.014 A 
HETATM    6  C   UNK N   1      22.209  12.778  10.211  0.00  0.00     0.065 A 
HETATM    7  C   UNK N   1      22.393  13.258   8.914  0.00  0.00     0.126 A 
HETATM    8  C   UNK N   1      23.687  13.349   8.379  0.00  0.00     0.005 A 
HETATM    9  F   UNK N   1      21.315  13.658   8.196  0.00  0.00    -0.205 F 
ENDROOT
BRANCH   8  10
HETATM   10  C   UNK N   1      23.899  13.944   7.032  0.00  0.00     0.217 C 
BRANCH  10  11
HETATM   11  O   UNK N   1      24.710  13.174   6.228  0.00  0.00    -0.347 OA
BRANCH  11  12
HETATM   12  C   UNK N   1      25.889  13.662   5.785  0.00  0.00     0.070 A 
HETATM   13  C   UNK N   1      26.689  12.865   4.961  0.00  0.00     0.037 A 
HETATM   14  C   UNK N   1      27.964  13.298   4.589  0.00  0.00     0.015 A 
HETATM   15  C   UNK N   1      28.432  14.540   5.023  0.00  0.00    -0.024 A 
HETATM   16  C   UNK N   1      27.611  15.374   5.810  0.00  0.00    -0.023 A 
HETATM   17  C   UNK N   1      29.723  14.940   4.710  0.00  0.00     0.037 A 
HETATM   18  C   UNK N   1      26.349  14.926   6.194  0.00  0.00     0.049 A 
HETATM   19  C   UNK N   1      28.085  16.621   6.234  0.00  0.00     0.014 A 
HETATM   20  C   UNK N   1      29.392  17.015   5.917  0.00  0.00     0.026 A 
HETATM   21  C   UNK N   1      30.210  16.165   5.163  0.00  0.00     0.080 A 
BRANCH  21  22
HETATM   22  S   UNK N   1      31.936  16.521   4.920  0.00  0.00     0.259 S 
HETATM   23  O   UNK N   1      32.187  17.831   4.158  0.00  0.00    -0.201 OA
HETATM   24  O   UNK N   1      32.732  15.484   4.113  0.00  0.00    -0.201 OA
BRANCH  22  25
HETATM   25  N   UNK N   1      32.805  16.743   6.452  0.00  0.00    -0.300 N 
HETATM   26  H   UNK N   1      32.928  17.642   6.918  0.00  0.00     0.173 HD
BRANCH  25  27
HETATM   27  C   UNK N   1      33.321  15.471   6.962  0.00  0.00     0.191 C 
BRANCH  27  28
HETATM   28  C   UNK N   1      32.387  14.950   8.033  0.00  0.00     0.164 C 
HETATM   29  O   UNK N   1      31.681  15.730   8.654  0.00  0.00    -0.648 OA
BRANCH  28  30
HETATM   30  O   UNK N   1      32.309  13.632   8.308  0.00  0.00    -0.775 OA
HETATM   31  H   UNK N   1      32.310  12.981   7.633  0.00  0.00     0.167 HD
ENDBRANCH  28  30
ENDBRANCH  27  28
BRANCH  27  32
HETATM   32  C   UNK N   1      34.726  15.739   7.488  0.00  0.00     0.047 C 
BRANCH  32  33
HETATM   33  C   UNK N   1      34.802  15.728   9.004  0.00  0.00     0.112 C 
BRANCH  33  34
HETATM   34  C   UNK N   1      34.956  17.130   9.487  0.00  0.00     0.139 C 
HETATM   35  O   UNK N   1      35.537  17.360  10.536  0.00  0.00    -0.650 OA
BRANCH  34  36
HETATM   36  O   UNK N   1      34.465  18.146   8.755  0.00  0.00    -0.776 OA
HETATM   37  H   UNK N   1      34.217  18.968   9.131  0.00  0.00     0.167 HD
ENDBRANCH  34  36
ENDBRANCH  33  34
ENDBRANCH  32  33
ENDBRANCH  27  32
ENDBRANCH  25  27
ENDBRANCH  22  25
ENDBRANCH  21  22
ENDBRANCH  11  12
ENDBRANCH  10  11
ENDBRANCH   8  10
TORSDOF 12
ENDMDL
MODEL 9
REMARK VINA RESULT:      -6.6     11.239     12.866
REMARK  12 active torsions:
REMARK  status: ('A' for Active; 'I' for Inactive)
REMARK    1  A    between atoms: C_8  and  C_9 
REMARK    2  A    between atoms: C_9  and  O_10 
REMARK    3  A    between atoms: O_10  and  C_11 
REMARK    4  A    between atoms: C_20  and  S_21 
REMARK    5  A    between atoms: S_21  and  N_24 
REMARK    6  A    between atoms: C_25  and  N_24 
REMARK    7  A    between atoms: C_25  and  C_26 
REMARK    8  A    between atoms: C_25  and  C_29 
REMARK    9  A    between atoms: C_26  and  O_27 
REMARK   10  A    between atoms: C_29  and  C_30 
REMARK   11  A    between atoms: C_30  and  C_31 
REMARK   12  A    between atoms: C_31  and  O_32 
ROOT
HETATM    1  N   UNK N   1      37.892  14.601  -8.729  0.00  0.00    -0.191 NA
HETATM    2  C   UNK N   1      37.250  15.231  -8.006  0.00  0.00     0.099 C 
HETATM    3  C   UNK N   1      36.462  16.015  -7.098  0.00  0.00     0.047 A 
HETATM    4  C   UNK N   1      35.901  17.225  -7.519  0.00  0.00     0.023 A 
HETATM    5  C   UNK N   1      35.164  18.004  -6.620  0.00  0.00     0.014 A 
HETATM    6  C   UNK N   1      36.281  15.579  -5.785  0.00  0.00     0.065 A 
HETATM    7  C   UNK N   1      35.545  16.353  -4.885  0.00  0.00     0.126 A 
HETATM    8  C   UNK N   1      34.985  17.569  -5.304  0.00  0.00     0.005 A 
HETATM    9  F   UNK N   1      35.407  15.929  -3.605  0.00  0.00    -0.205 F 
ENDROOT
BRANCH   8  10
HETATM   10  C   UNK N   1      34.277  18.441  -4.329  0.00  0.00     0.217 C 
BRANCH  10  11
HETATM   11  O   UNK N   1      34.159  19.743  -4.763  0.00  0.00    -0.347 OA
BRANCH  11  12
HETATM   12  C   UNK N   1      32.963  20.367  -4.723  0.00  0.00     0.070 A 
HETATM   13  C   UNK N   1      32.096  20.248  -5.813  0.00  0.00     0.037 A 
HETATM   14  C   UNK N   1      30.906  20.980  -5.849  0.00  0.00     0.015 A 
HETATM   15  C   UNK N   1      30.571  21.816  -4.782  0.00  0.00    -0.024 A 
HETATM   16  C   UNK N   1      31.413  21.901  -3.653  0.00  0.00    -0.023 A 
HETATM   17  C   UNK N   1      29.425  22.594  -4.847  0.00  0.00     0.037 A 
HETATM   18  C   UNK N   1      32.607  21.185  -3.634  0.00  0.00     0.049 A 
HETATM   19  C   UNK N   1      31.065  22.735  -2.584  0.00  0.00     0.014 A 
HETATM   20  C   UNK N   1      29.907  23.521  -2.661  0.00  0.00     0.026 A 
HETATM   21  C   UNK N   1      29.097  23.453  -3.800  0.00  0.00     0.080 A 
BRANCH  21  22
HETATM   22  S   UNK N   1      27.742  24.583  -4.037  0.00  0.00     0.259 S 
HETATM   23  O   UNK N   1      28.045  26.009  -3.552  0.00  0.00    -0.201 OA
HETATM   24  O   UNK N   1      26.435  24.232  -3.310  0.00  0.00    -0.201 OA
BRANCH  22  25
HETATM   25  N   UNK N   1      27.327  24.792  -5.750  0.00  0.00    -0.300 N 
HETATM   26  H   UNK N   1      28.010  24.848  -6.505  0.00  0.00     0.173 HD
BRANCH  25  27
HETATM   27  C   UNK N   1      25.877  24.875  -5.942  0.00  0.00     0.191 C 
BRANCH  27  28
HETATM   28  C   UNK N   1      25.442  23.797  -6.911  0.00  0.00     0.164 C 
HETATM   29  O   UNK N   1      25.278  24.071  -8.089  0.00  0.00    -0.648 OA
BRANCH  28  30
HETATM   30  O   UNK N   1      25.244  22.528  -6.498  0.00  0.00    -0.775 OA
HETATM   31  H   UNK N   1      25.893  21.861  -6.606  0.00  0.00     0.167 HD
ENDBRANCH  28  30
ENDBRANCH  27  28
BRANCH  27  32
HETATM   32  C   UNK N   1      25.574  26.279  -6.450  0.00  0.00     0.047 C 
BRANCH  32  33
HETATM   33  C   UNK N   1      24.693  27.073  -5.502  0.00  0.00     0.112 C 
BRANCH  33  34
HETATM   34  C   UNK N   1      25.563  27.886  -4.605  0.00  0.00     0.139 C 
HETATM   35  O   UNK N   1      26.367  28.675  -5.075  0.00  0.00    -0.650 OA
BRANCH  34  36
HETATM   36  O   UNK N   1      25.449  27.760  -3.270  0.00  0.00    -0.776 OA
HETATM   37  H   UNK N   1      26.083  28.105  -2.672  0.00  0.00     0.167 HD
ENDBRANCH  34  36
ENDBRANCH  33  34
ENDBRANCH  32  33
ENDBRANCH  27  32
ENDBRANCH  25  27
ENDBRANCH  22  25
ENDBRANCH  21  22
ENDBRANCH  11  12
ENDBRANCH  10  11
ENDBRANCH   8  10
TORSDOF 12
ENDMDL
