MODEL 1
REMARK VINA RESULT:      -6.1      0.000      0.000
REMARK  1 active torsions:
REMARK  status: ('A' for Active; 'I' for Inactive)
REMARK    1  A    between atoms: C_10  and  C_11 
ROOT
HETATM    1  C   UNK N   1      22.400  13.063  10.070  0.00  0.00     0.021 A 
HETATM    2  C   UNK N   1      23.624  13.365   9.475  0.00  0.00     0.016 A 
HETATM    3  C   UNK N   1      24.782  12.817  10.051  0.00  0.00     0.001 A 
HETATM    4  C   UNK N   1      24.687  11.991  11.196  0.00  0.00     0.002 A 
HETATM    5  C   UNK N   1      23.431  11.708  11.771  0.00  0.00     0.032 A 
HETATM    6  C   UNK N   1      22.309  12.269  11.171  0.00  0.00     0.060 A 
HETATM    7  N   UNK N   1      21.019  12.144  11.536  0.00  0.00    -0.299 N 
HETATM    8  N   UNK N   1      20.283  12.851  10.681  0.00  0.00    -0.299 N 
ATOM      9  HN  UNK N   1      19.268  12.944  10.707  1.00  0.00     0.187 HD
HETATM   10  C   UNK N   1      21.109  13.426   9.770  0.00  0.00     0.071 A 
HETATM   11  H   UNK N   1      20.681  11.623  12.299  0.00  0.00     0.187 HD
ENDROOT
BRANCH  10  12
HETATM   12  C   UNK N   1      20.669  14.291   8.659  0.00  0.00    -0.004 A 
HETATM   13  C   UNK N   1      20.713  13.835   7.338  0.00  0.00     0.030 A 
HETATM   14  C   UNK N   1      20.286  14.678   6.308  0.00  0.00     0.088 A 
HETATM   15  N   UNK N   1      19.832  15.930   6.590  0.00  0.00    -0.375 N 
HETATM   16  C   UNK N   1      19.781  16.394   7.867  0.00  0.00     0.088 A 
ATOM     17  HN  UNK N   1      19.523  16.532   5.827  1.00  0.00     0.164 HD
HETATM   18  C   UNK N   1      20.198  15.584   8.919  0.00  0.00     0.030 A 
ENDBRANCH  10  12
TORSDOF 1
ENDMDL
MODEL 2
REMARK VINA RESULT:      -5.9      7.782      9.753
REMARK  1 active torsions:
REMARK  status: ('A' for Active; 'I' for Inactive)
REMARK    1  A    between atoms: C_10  and  C_11 
ROOT
HETATM    1  C   UNK N   1      27.244  18.467   5.599  0.00  0.00     0.021 A 
HETATM    2  C   UNK N   1      27.826  19.620   5.073  0.00  0.00     0.016 A 
HETATM    3  C   UNK N   1      27.200  20.220   3.968  0.00  0.00     0.001 A 
HETATM    4  C   UNK N   1      26.022  19.658   3.422  0.00  0.00     0.002 A 
HETATM    5  C   UNK N   1      25.462  18.490   3.981  0.00  0.00     0.032 A 
HETATM    6  C   UNK N   1      26.111  17.926   5.073  0.00  0.00     0.060 A 
HETATM    7  N   UNK N   1      25.770  16.824   5.767  0.00  0.00    -0.299 N 
HETATM    8  N   UNK N   1      26.673  16.652   6.729  0.00  0.00    -0.299 N 
ATOM      9  HN  UNK N   1      26.674  15.896   7.414  1.00  0.00     0.187 HD
HETATM   10  C   UNK N   1      27.591  17.648   6.647  0.00  0.00     0.071 A 
HETATM   11  H   UNK N   1      24.992  16.248   5.592  0.00  0.00     0.187 HD
ENDROOT
BRANCH  10  12
HETATM   12  C   UNK N   1      28.753  17.802   7.542  0.00  0.00    -0.004 A 
HETATM   13  C   UNK N   1      28.633  18.478   8.760  0.00  0.00     0.030 A 
HETATM   14  C   UNK N   1      29.752  18.605   9.587  0.00  0.00     0.088 A 
HETATM   15  N   UNK N   1      30.948  18.073   9.209  0.00  0.00    -0.375 N 
HETATM   16  C   UNK N   1      31.088  17.412   8.029  0.00  0.00     0.088 A 
ATOM     17  HN  UNK N   1      31.754  18.173   9.824  1.00  0.00     0.164 HD
HETATM   18  C   UNK N   1      29.995  17.267   7.179  0.00  0.00     0.030 A 
ENDBRANCH  10  12
TORSDOF 1
ENDMDL
MODEL 3
REMARK VINA RESULT:      -5.9     18.832     21.342
REMARK  1 active torsions:
REMARK  status: ('A' for Active; 'I' for Inactive)
REMARK    1  A    between atoms: C_10  and  C_11 
ROOT
HETATM    1  C   UNK N   1      27.017  28.728  -5.194  0.00  0.00     0.021 A 
HETATM    2  C   UNK N   1      27.919  28.807  -6.254  0.00  0.00     0.016 A 
HETATM    3  C   UNK N   1      28.655  29.994  -6.396  0.00  0.00     0.001 A 
HETATM    4  C   UNK N   1      28.472  31.062  -5.486  0.00  0.00     0.002 A 
HETATM    5  C   UNK N   1      27.550  30.946  -4.425  0.00  0.00     0.032 A 
HETATM    6  C   UNK N   1      26.841  29.755  -4.318  0.00  0.00     0.060 A 
HETATM    7  N   UNK N   1      25.916  29.415  -3.401  0.00  0.00    -0.299 N 
HETATM    8  N   UNK N   1      25.498  28.183  -3.680  0.00  0.00    -0.299 N 
ATOM      9  HN  UNK N   1      24.797  27.661  -3.155  1.00  0.00     0.187 HD
HETATM   10  C   UNK N   1      26.159  27.738  -4.778  0.00  0.00     0.071 A 
HETATM   11  H   UNK N   1      25.605  29.979  -2.656  0.00  0.00     0.187 HD
ENDROOT
BRANCH  10  12
HETATM   12  C   UNK N   1      25.968  26.415  -5.401  0.00  0.00    -0.004 A 
HETATM   13  C   UNK N   1      25.751  26.298  -6.777  0.00  0.00     0.030 A 
HETATM   14  C   UNK N   1      25.577  25.029  -7.338  0.00  0.00     0.088 A 
HETATM   15  N   UNK N   1      25.620  23.919  -6.549  0.00  0.00    -0.375 N 
HETATM   16  C   UNK N   1      25.829  24.010  -5.209  0.00  0.00     0.088 A 
ATOM     17  HN  UNK N   1      25.492  23.001  -6.974  1.00  0.00     0.164 HD
HETATM   18  C   UNK N   1      26.006  25.257  -4.615  0.00  0.00     0.030 A 
ENDBRANCH  10  12
TORSDOF 1
ENDMDL
MODEL 4
REMARK VINA RESULT:      -5.7      7.536      8.498
REMARK  1 active torsions:
REMARK  status: ('A' for Active; 'I' for Inactive)
REMARK    1  A    between atoms: C_10  and  C_11 
ROOT
HETATM    1  C   UNK N   1      24.179  19.270   3.755  0.00  0.00     0.021 A 
HETATM    2  C   UNK N   1      24.359  20.198   2.731  0.00  0.00     0.016 A 
HETATM    3  C   UNK N   1      25.625  20.792   2.604  0.00  0.00     0.001 A 
HETATM    4  C   UNK N   1      26.668  20.448   3.496  0.00  0.00     0.002 A 
HETATM    5  C   UNK N   1      26.449  19.504   4.522  0.00  0.00     0.032 A 
HETATM    6  C   UNK N   1      25.182  18.939   4.613  0.00  0.00     0.060 A 
HETATM    7  N   UNK N   1      24.739  18.027   5.499  0.00  0.00    -0.299 N 
HETATM    8  N   UNK N   1      23.464  17.772   5.219  0.00  0.00    -0.299 N 
ATOM      9  HN  UNK N   1      22.864  17.119   5.724  1.00  0.00     0.187 HD
HETATM   10  C   UNK N   1      23.095  18.524   4.151  0.00  0.00     0.071 A 
HETATM   11  H   UNK N   1      25.266  17.622   6.225  0.00  0.00     0.187 HD
ENDROOT
BRANCH  10  12
HETATM   12  C   UNK N   1      21.752  18.523   3.541  0.00  0.00    -0.004 A 
HETATM   13  C   UNK N   1      20.993  19.696   3.482  0.00  0.00     0.030 A 
HETATM   14  C   UNK N   1      19.726  19.664   2.895  0.00  0.00     0.088 A 
HETATM   15  N   UNK N   1      19.237  18.499   2.383  0.00  0.00    -0.375 N 
HETATM   16  C   UNK N   1      19.957  17.348   2.430  0.00  0.00     0.088 A 
ATOM     17  HN  UNK N   1      18.311  18.493   1.957  1.00  0.00     0.164 HD
HETATM   18  C   UNK N   1      21.223  17.341   3.008  0.00  0.00     0.030 A 
ENDBRANCH  10  12
TORSDOF 1
ENDMDL
MODEL 5
REMARK VINA RESULT:      -5.7     16.961     19.343
REMARK  1 active torsions:
REMARK  status: ('A' for Active; 'I' for Inactive)
REMARK    1  A    between atoms: C_10  and  C_11 
ROOT
HETATM    1  C   UNK N   1      26.628  25.737  -4.482  0.00  0.00     0.021 A 
HETATM    2  C   UNK N   1      26.949  26.862  -3.724  0.00  0.00     0.016 A 
HETATM    3  C   UNK N   1      26.158  28.010  -3.894  0.00  0.00     0.001 A 
HETATM    4  C   UNK N   1      25.078  28.004  -4.809  0.00  0.00     0.002 A 
HETATM    5  C   UNK N   1      24.783  26.847  -5.559  0.00  0.00     0.032 A 
HETATM    6  C   UNK N   1      25.589  25.731  -5.361  0.00  0.00     0.060 A 
HETATM    7  N   UNK N   1      25.505  24.527  -5.956  0.00  0.00    -0.299 N 
HETATM    8  N   UNK N   1      26.478  23.761  -5.468  0.00  0.00    -0.299 N 
ATOM      9  HN  UNK N   1      26.662  22.794  -5.733  1.00  0.00     0.187 HD
HETATM   10  C   UNK N   1      27.183  24.482  -4.560  0.00  0.00     0.071 A 
HETATM   11  H   UNK N   1      24.841  24.260  -6.632  0.00  0.00     0.187 HD
ENDROOT
BRANCH  10  12
HETATM   12  C   UNK N   1      28.345  23.981  -3.803  0.00  0.00    -0.004 A 
HETATM   13  C   UNK N   1      28.183  23.425  -2.530  0.00  0.00     0.030 A 
HETATM   14  C   UNK N   1      29.303  22.956  -1.838  0.00  0.00     0.088 A 
HETATM   15  N   UNK N   1      30.541  23.040  -2.401  0.00  0.00    -0.375 N 
HETATM   16  C   UNK N   1      30.722  23.577  -3.636  0.00  0.00     0.088 A 
ATOM     17  HN  UNK N   1      31.348  22.693  -1.884  1.00  0.00     0.164 HD
HETATM   18  C   UNK N   1      29.630  24.056  -4.355  0.00  0.00     0.030 A 
ENDBRANCH  10  12
TORSDOF 1
ENDMDL
MODEL 6
REMARK VINA RESULT:      -5.6      8.161      8.738
REMARK  1 active torsions:
REMARK  status: ('A' for Active; 'I' for Inactive)
REMARK    1  A    between atoms: C_10  and  C_11 
ROOT
HETATM    1  C   UNK N   1      29.037  17.989   7.112  0.00  0.00     0.021 A 
HETATM    2  C   UNK N   1      29.873  17.345   6.200  0.00  0.00     0.016 A 
HETATM    3  C   UNK N   1      31.009  16.692   6.706  0.00  0.00     0.001 A 
HETATM    4  C   UNK N   1      31.278  16.700   8.095  0.00  0.00     0.002 A 
HETATM    5  C   UNK N   1      30.409  17.362   8.988  0.00  0.00     0.032 A 
HETATM    6  C   UNK N   1      29.296  17.996   8.448  0.00  0.00     0.060 A 
HETATM    7  N   UNK N   1      28.336  18.686   9.092  0.00  0.00    -0.299 N 
HETATM    8  N   UNK N   1      27.466  19.121   8.184  0.00  0.00    -0.299 N 
ATOM      9  HN  UNK N   1      26.632  19.674   8.377  1.00  0.00     0.187 HD
HETATM   10  C   UNK N   1      27.875  18.707   6.958  0.00  0.00     0.071 A 
HETATM   11  H   UNK N   1      28.287  18.840  10.063  0.00  0.00     0.187 HD
ENDROOT
BRANCH  10  12
HETATM   12  C   UNK N   1      27.174  18.993   5.692  0.00  0.00    -0.004 A 
HETATM   13  C   UNK N   1      26.315  18.048   5.121  0.00  0.00     0.030 A 
HETATM   14  C   UNK N   1      25.663  18.351   3.922  0.00  0.00     0.088 A 
HETATM   15  N   UNK N   1      25.864  19.555   3.318  0.00  0.00    -0.375 N 
HETATM   16  C   UNK N   1      26.694  20.488   3.855  0.00  0.00     0.088 A 
ATOM     17  HN  UNK N   1      25.380  19.761   2.445  1.00  0.00     0.164 HD
HETATM   18  C   UNK N   1      27.361  20.222   5.048  0.00  0.00     0.030 A 
ENDBRANCH  10  12
TORSDOF 1
ENDMDL
MODEL 7
REMARK VINA RESULT:      -5.6      9.671     11.212
REMARK  1 active torsions:
REMARK  status: ('A' for Active; 'I' for Inactive)
REMARK    1  A    between atoms: C_10  and  C_11 
ROOT
HETATM    1  C   UNK N   1      30.516  17.396   7.316  0.00  0.00     0.021 A 
HETATM    2  C   UNK N   1      29.228  17.309   6.791  0.00  0.00     0.016 A 
HETATM    3  C   UNK N   1      28.158  17.663   7.629  0.00  0.00     0.001 A 
HETATM    4  C   UNK N   1      28.400  18.089   8.956  0.00  0.00     0.002 A 
HETATM    5  C   UNK N   1      29.718  18.165   9.453  0.00  0.00     0.032 A 
HETATM    6  C   UNK N   1      30.749  17.806   8.593  0.00  0.00     0.060 A 
HETATM    7  N   UNK N   1      32.073  17.796   8.838  0.00  0.00    -0.299 N 
HETATM    8  N   UNK N   1      32.690  17.383   7.733  0.00  0.00    -0.299 N 
ATOM      9  HN  UNK N   1      33.697  17.275   7.621  1.00  0.00     0.187 HD
HETATM   10  C   UNK N   1      31.755  17.130   6.783  0.00  0.00     0.071 A 
HETATM   11  H   UNK N   1      32.507  18.048   9.684  0.00  0.00     0.187 HD
ENDROOT
BRANCH  10  12
HETATM   12  C   UNK N   1      32.045  16.650   5.419  0.00  0.00    -0.004 A 
HETATM   13  C   UNK N   1      32.272  15.293   5.172  0.00  0.00     0.030 A 
HETATM   14  C   UNK N   1      32.541  14.869   3.867  0.00  0.00     0.088 A 
HETATM   15  N   UNK N   1      32.581  15.772   2.848  0.00  0.00    -0.375 N 
HETATM   16  C   UNK N   1      32.364  17.096   3.065  0.00  0.00     0.088 A 
ATOM     17  HN  UNK N   1      32.778  15.446   1.902  1.00  0.00     0.164 HD
HETATM   18  C   UNK N   1      32.094  17.555   4.351  0.00  0.00     0.030 A 
ENDBRANCH  10  12
TORSDOF 1
ENDMDL
MODEL 8
REMARK VINA RESULT:      -5.5      9.159     10.706
REMARK  1 active torsions:
REMARK  status: ('A' for Active; 'I' for Inactive)
REMARK    1  A    between atoms: C_10  and  C_11 
ROOT
HETATM    1  C   UNK N   1      30.863  17.282   4.746  0.00  0.00     0.021 A 
HETATM    2  C   UNK N   1      31.930  17.345   5.641  0.00  0.00     0.016 A 
HETATM    3  C   UNK N   1      33.195  16.952   5.175  0.00  0.00     0.001 A 
HETATM    4  C   UNK N   1      33.359  16.509   3.841  0.00  0.00     0.002 A 
HETATM    5  C   UNK N   1      32.256  16.458   2.964  0.00  0.00     0.032 A 
HETATM    6  C   UNK N   1      31.021  16.855   3.463  0.00  0.00     0.060 A 
HETATM    7  N   UNK N   1      29.837  16.892   2.824  0.00  0.00    -0.299 N 
HETATM    8  N   UNK N   1      28.922  17.336   3.683  0.00  0.00    -0.299 N 
ATOM      9  HN  UNK N   1      27.932  17.468   3.480  1.00  0.00     0.187 HD
HETATM   10  C   UNK N   1      29.527  17.582   4.872  0.00  0.00     0.071 A 
HETATM   11  H   UNK N   1      29.676  16.636   1.887  0.00  0.00     0.187 HD
ENDROOT
BRANCH  10  12
HETATM   12  C   UNK N   1      28.845  18.084   6.079  0.00  0.00    -0.004 A 
HETATM   13  C   UNK N   1      28.893  17.366   7.278  0.00  0.00     0.030 A 
HETATM   14  C   UNK N   1      28.239  17.870   8.406  0.00  0.00     0.088 A 
HETATM   15  N   UNK N   1      27.561  19.049   8.336  0.00  0.00    -0.375 N 
HETATM   16  C   UNK N   1      27.500  19.764   7.181  0.00  0.00     0.088 A 
ATOM     17  HN  UNK N   1      27.090  19.404   9.167  1.00  0.00     0.164 HD
HETATM   18  C   UNK N   1      28.139  19.293   6.037  0.00  0.00     0.030 A 
ENDBRANCH  10  12
TORSDOF 1
ENDMDL
MODEL 9
REMARK VINA RESULT:      -5.5     13.317     14.659
REMARK  1 active torsions:
REMARK  status: ('A' for Active; 'I' for Inactive)
REMARK    1  A    between atoms: C_10  and  C_11 
ROOT
HETATM    1  C   UNK N   1      35.527  13.068  13.958  0.00  0.00     0.021 A 
HETATM    2  C   UNK N   1      34.617  12.058  13.646  0.00  0.00     0.016 A 
HETATM    3  C   UNK N   1      34.264  11.161  14.668  0.00  0.00     0.001 A 
HETATM    4  C   UNK N   1      34.825  11.293  15.960  0.00  0.00     0.002 A 
HETATM    5  C   UNK N   1      35.742  12.327  16.239  0.00  0.00     0.032 A 
HETATM    6  C   UNK N   1      36.066  13.195  15.202  0.00  0.00     0.060 A 
HETATM    7  N   UNK N   1      36.908  14.245  15.226  0.00  0.00    -0.299 N 
HETATM    8  N   UNK N   1      36.915  14.790  14.012  0.00  0.00    -0.299 N 
ATOM      9  HN  UNK N   1      37.462  15.603  13.729  1.00  0.00     0.187 HD
HETATM   10  C   UNK N   1      36.075  14.085  13.214  0.00  0.00     0.071 A 
HETATM   11  H   UNK N   1      37.426  14.553  16.003  0.00  0.00     0.187 HD
ENDROOT
BRANCH  10  12
HETATM   12  C   UNK N   1      35.813  14.379  11.792  0.00  0.00    -0.004 A 
HETATM   13  C   UNK N   1      34.620  14.992  11.397  0.00  0.00     0.030 A 
HETATM   14  C   UNK N   1      34.404  15.260  10.042  0.00  0.00     0.088 A 
HETATM   15  N   UNK N   1      35.348  14.928   9.118  0.00  0.00    -0.375 N 
HETATM   16  C   UNK N   1      36.514  14.332   9.480  0.00  0.00     0.088 A 
ATOM     17  HN  UNK N   1      35.175  15.132   8.134  1.00  0.00     0.164 HD
HETATM   18  C   UNK N   1      36.765  14.048  10.820  0.00  0.00     0.030 A 
ENDBRANCH  10  12
TORSDOF 1
ENDMDL
