MODEL 1
REMARK VINA RESULT:      -5.2      0.000      0.000
REMARK  3 active torsions:
REMARK  status: ('A' for Active; 'I' for Inactive)
REMARK    1  A    between atoms: C_6  and  C_7 
REMARK    2  A    between atoms: C_7  and  C_8 
REMARK    3  A    between atoms: C_13  and  N_14 
ROOT
HETATM    1  C   UNK N   1      35.691  12.062  14.162  0.00  0.00     0.006 A 
HETATM    2  S   UNK N   1      35.335  13.304  13.132  0.00  0.00    -0.057 SA
HETATM    3  C   UNK N   1      37.011  11.669  13.862  0.00  0.00     0.105 A 
HETATM    4  N   UNK N   1      37.609  12.389  12.850  0.00  0.00    -0.346 N 
ATOM      5  HN  UNK N   1      38.559  12.226  12.517  1.00  0.00     0.167 HD
HETATM    6  C   UNK N   1      36.783  13.338  12.349  0.00  0.00     0.142 A 
ENDROOT
BRANCH   1   7
HETATM    7  C   UNK N   1      34.745  11.507  15.193  0.00  0.00     0.086 C 
BRANCH   7   8
HETATM    8  C   UNK N   1      34.966  11.878  16.638  0.00  0.00    -0.053 A 
HETATM    9  C   UNK N   1      35.194  10.921  17.639  0.00  0.00     0.007 A 
HETATM   10  C   UNK N   1      35.394  11.310  18.964  0.00  0.00     0.001 A 
HETATM   11  C   UNK N   1      35.367  12.664  19.301  0.00  0.00     0.000 A 
HETATM   12  C   UNK N   1      35.141  13.625  18.313  0.00  0.00     0.001 A 
HETATM   13  C   UNK N   1      34.941  13.233  16.985  0.00  0.00     0.007 A 
ENDBRANCH   7   8
ENDBRANCH   1   7
BRANCH   6  14
HETATM   14  N   UNK N   1      37.135  14.217  11.308  0.00  0.00    -0.380 N 
HETATM   15  H   UNK N   1      37.655  13.887  10.540  0.00  0.00     0.158 HD
HETATM   16  H   UNK N   1      36.862  15.162  11.348  0.00  0.00     0.158 HD
ENDBRANCH   6  14
TORSDOF 3
ENDMDL
MODEL 2
REMARK VINA RESULT:      -5.1      1.843      2.219
REMARK  3 active torsions:
REMARK  status: ('A' for Active; 'I' for Inactive)
REMARK    1  A    between atoms: C_6  and  C_7 
REMARK    2  A    between atoms: C_7  and  C_8 
REMARK    3  A    between atoms: C_13  and  N_14 
ROOT
HETATM    1  C   UNK N   1      36.000  13.304  13.220  0.00  0.00     0.006 A 
HETATM    2  S   UNK N   1      35.877  14.846  12.640  0.00  0.00    -0.057 SA
HETATM    3  C   UNK N   1      35.073  12.534  12.489  0.00  0.00     0.105 A 
HETATM    4  N   UNK N   1      34.360  13.239  11.544  0.00  0.00    -0.346 N 
ATOM      5  HN  UNK N   1      33.653  12.825  10.935  1.00  0.00     0.167 HD
HETATM    6  C   UNK N   1      34.709  14.547  11.520  0.00  0.00     0.142 A 
ENDROOT
BRANCH   1   7
HETATM    7  C   UNK N   1      36.938  12.874  14.316  0.00  0.00     0.086 C 
BRANCH   7   8
HETATM    8  C   UNK N   1      36.347  12.446  15.636  0.00  0.00    -0.053 A 
HETATM    9  C   UNK N   1      36.414  11.124  16.103  0.00  0.00     0.007 A 
HETATM   10  C   UNK N   1      35.853  10.773  17.331  0.00  0.00     0.001 A 
HETATM   11  C   UNK N   1      35.217  11.743  18.106  0.00  0.00     0.000 A 
HETATM   12  C   UNK N   1      35.143  13.062  17.652  0.00  0.00     0.001 A 
HETATM   13  C   UNK N   1      35.707  13.412  16.420  0.00  0.00     0.007 A 
ENDBRANCH   7   8
ENDBRANCH   1   7
BRANCH   6  14
HETATM   14  N   UNK N   1      34.138  15.497  10.651  0.00  0.00    -0.380 N 
HETATM   15  H   UNK N   1      33.279  15.307  10.210  0.00  0.00     0.158 HD
HETATM   16  H   UNK N   1      34.599  16.350  10.485  0.00  0.00     0.158 HD
ENDBRANCH   6  14
TORSDOF 3
ENDMDL
MODEL 3
REMARK VINA RESULT:      -5.0     10.748     12.299
REMARK  3 active torsions:
REMARK  status: ('A' for Active; 'I' for Inactive)
REMARK    1  A    between atoms: C_6  and  C_7 
REMARK    2  A    between atoms: C_7  and  C_8 
REMARK    3  A    between atoms: C_13  and  N_14 
ROOT
HETATM    1  C   UNK N   1      28.884  17.851   7.246  0.00  0.00     0.006 A 
HETATM    2  S   UNK N   1      28.148  18.703   6.036  0.00  0.00    -0.057 SA
HETATM    3  C   UNK N   1      28.368  18.360   8.455  0.00  0.00     0.105 A 
HETATM    4  N   UNK N   1      27.444  19.371   8.305  0.00  0.00    -0.346 N 
ATOM      5  HN  UNK N   1      26.981  19.842   9.082  1.00  0.00     0.167 HD
HETATM    6  C   UNK N   1      27.225  19.666   7.001  0.00  0.00     0.142 A 
ENDROOT
BRANCH   1   7
HETATM    7  C   UNK N   1      29.896  16.758   7.029  0.00  0.00     0.086 C 
BRANCH   7   8
HETATM    8  C   UNK N   1      31.359  17.125   7.048  0.00  0.00    -0.053 A 
HETATM    9  C   UNK N   1      32.155  17.121   5.892  0.00  0.00     0.007 A 
HETATM   10  C   UNK N   1      33.505  17.468   5.956  0.00  0.00     0.001 A 
HETATM   11  C   UNK N   1      34.073  17.824   7.180  0.00  0.00     0.000 A 
HETATM   12  C   UNK N   1      33.290  17.832   8.337  0.00  0.00     0.001 A 
HETATM   13  C   UNK N   1      31.937  17.484   8.270  0.00  0.00     0.007 A 
ENDBRANCH   7   8
ENDBRANCH   1   7
BRANCH   6  14
HETATM   14  N   UNK N   1      26.330  20.659   6.559  0.00  0.00    -0.380 N 
HETATM   15  H   UNK N   1      26.570  21.232   5.796  0.00  0.00     0.158 HD
HETATM   16  H   UNK N   1      25.466  20.779   7.014  0.00  0.00     0.158 HD
ENDBRANCH   6  14
TORSDOF 3
ENDMDL
MODEL 4
REMARK VINA RESULT:      -5.0     14.585     15.524
REMARK  3 active torsions:
REMARK  status: ('A' for Active; 'I' for Inactive)
REMARK    1  A    between atoms: C_6  and  C_7 
REMARK    2  A    between atoms: C_7  and  C_8 
REMARK    3  A    between atoms: C_13  and  N_14 
ROOT
HETATM    1  C   UNK N   1      21.044  14.411   8.311  0.00  0.00     0.006 A 
HETATM    2  S   UNK N   1      21.632  15.285   7.038  0.00  0.00    -0.057 SA
HETATM    3  C   UNK N   1      20.244  15.298   9.060  0.00  0.00     0.105 A 
HETATM    4  N   UNK N   1      20.176  16.578   8.553  0.00  0.00    -0.346 N 
ATOM      5  HN  UNK N   1      19.639  17.334   8.979  1.00  0.00     0.167 HD
HETATM    6  C   UNK N   1      20.907  16.712   7.421  0.00  0.00     0.142 A 
ENDROOT
BRANCH   1   7
HETATM    7  C   UNK N   1      21.343  12.958   8.563  0.00  0.00     0.086 C 
BRANCH   7   8
HETATM    8  C   UNK N   1      22.314  12.608   9.663  0.00  0.00    -0.053 A 
HETATM    9  C   UNK N   1      21.898  12.256  10.956  0.00  0.00     0.007 A 
HETATM   10  C   UNK N   1      22.832  11.939  11.943  0.00  0.00     0.001 A 
HETATM   11  C   UNK N   1      24.195  11.973  11.646  0.00  0.00     0.000 A 
HETATM   12  C   UNK N   1      24.621  12.322  10.362  0.00  0.00     0.001 A 
HETATM   13  C   UNK N   1      23.682  12.639   9.374  0.00  0.00     0.007 A 
ENDBRANCH   7   8
ENDBRANCH   1   7
BRANCH   6  14
HETATM   14  N   UNK N   1      21.016  17.912   6.693  0.00  0.00    -0.380 N 
HETATM   15  H   UNK N   1      20.676  18.753   7.077  0.00  0.00     0.158 HD
HETATM   16  H   UNK N   1      21.431  17.911   5.802  0.00  0.00     0.158 HD
ENDBRANCH   6  14
TORSDOF 3
ENDMDL
MODEL 5
REMARK VINA RESULT:      -4.9     15.074     16.164
REMARK  3 active torsions:
REMARK  status: ('A' for Active; 'I' for Inactive)
REMARK    1  A    between atoms: C_6  and  C_7 
REMARK    2  A    between atoms: C_7  and  C_8 
REMARK    3  A    between atoms: C_13  and  N_14 
ROOT
HETATM    1  C   UNK N   1      22.190  12.865   9.540  0.00  0.00     0.006 A 
HETATM    2  S   UNK N   1      21.475  12.261  10.902  0.00  0.00    -0.057 SA
HETATM    3  C   UNK N   1      23.571  12.926   9.814  0.00  0.00     0.105 A 
HETATM    4  N   UNK N   1      23.926  12.490  11.073  0.00  0.00    -0.346 N 
ATOM      5  HN  UNK N   1      24.884  12.472  11.422  1.00  0.00     0.167 HD
HETATM    6  C   UNK N   1      22.851  12.088  11.790  0.00  0.00     0.142 A 
ENDROOT
BRANCH   1   7
HETATM    7  C   UNK N   1      21.452  13.253   8.286  0.00  0.00     0.086 C 
BRANCH   7   8
HETATM    8  C   UNK N   1      21.041  14.694   8.116  0.00  0.00    -0.053 A 
HETATM    9  C   UNK N   1      20.105  15.319   8.955  0.00  0.00     0.007 A 
HETATM   10  C   UNK N   1      19.756  16.656   8.759  0.00  0.00     0.001 A 
HETATM   11  C   UNK N   1      20.340  17.382   7.721  0.00  0.00     0.000 A 
HETATM   12  C   UNK N   1      21.273  16.770   6.880  0.00  0.00     0.001 A 
HETATM   13  C   UNK N   1      21.622  15.430   7.078  0.00  0.00     0.007 A 
ENDBRANCH   7   8
ENDBRANCH   1   7
BRANCH   6  14
HETATM   14  N   UNK N   1      22.923  11.596  13.107  0.00  0.00    -0.380 N 
HETATM   15  H   UNK N   1      23.415  12.101  13.795  0.00  0.00     0.158 HD
HETATM   16  H   UNK N   1      22.483  10.747  13.340  0.00  0.00     0.158 HD
ENDBRANCH   6  14
TORSDOF 3
ENDMDL
MODEL 6
REMARK VINA RESULT:      -4.9     10.662     12.905
REMARK  3 active torsions:
REMARK  status: ('A' for Active; 'I' for Inactive)
REMARK    1  A    between atoms: C_6  and  C_7 
REMARK    2  A    between atoms: C_7  and  C_8 
REMARK    3  A    between atoms: C_13  and  N_14 
ROOT
HETATM    1  C   UNK N   1      30.252  17.400   7.439  0.00  0.00     0.006 A 
HETATM    2  S   UNK N   1      31.568  17.067   6.496  0.00  0.00    -0.057 SA
HETATM    3  C   UNK N   1      30.755  17.721   8.716  0.00  0.00     0.105 A 
HETATM    4  N   UNK N   1      32.128  17.672   8.822  0.00  0.00    -0.346 N 
ATOM      5  HN  UNK N   1      32.643  17.877   9.678  1.00  0.00     0.167 HD
HETATM    6  C   UNK N   1      32.712  17.319   7.652  0.00  0.00     0.142 A 
ENDROOT
BRANCH   1   7
HETATM    7  C   UNK N   1      28.825  17.350   6.964  0.00  0.00     0.086 C 
BRANCH   7   8
HETATM    8  C   UNK N   1      28.240  18.586   6.327  0.00  0.00    -0.053 A 
HETATM    9  C   UNK N   1      28.176  18.762   4.936  0.00  0.00     0.007 A 
HETATM   10  C   UNK N   1      27.626  19.922   4.390  0.00  0.00     0.001 A 
HETATM   11  C   UNK N   1      27.135  20.921   5.232  0.00  0.00     0.000 A 
HETATM   12  C   UNK N   1      27.194  20.757   6.618  0.00  0.00     0.001 A 
HETATM   13  C   UNK N   1      27.745  19.592   7.163  0.00  0.00     0.007 A 
ENDBRANCH   7   8
ENDBRANCH   1   7
BRANCH   6  14
HETATM   14  N   UNK N   1      34.103  17.192   7.475  0.00  0.00    -0.380 N 
HETATM   15  H   UNK N   1      34.661  17.996   7.370  0.00  0.00     0.158 HD
HETATM   16  H   UNK N   1      34.517  16.299   7.456  0.00  0.00     0.158 HD
ENDBRANCH   6  14
TORSDOF 3
ENDMDL
MODEL 7
REMARK VINA RESULT:      -4.8     22.321     24.878
REMARK  3 active torsions:
REMARK  status: ('A' for Active; 'I' for Inactive)
REMARK    1  A    between atoms: C_6  and  C_7 
REMARK    2  A    between atoms: C_7  and  C_8 
REMARK    3  A    between atoms: C_13  and  N_14 
ROOT
HETATM    1  C   UNK N   1      28.451  23.976  -3.481  0.00  0.00     0.006 A 
HETATM    2  S   UNK N   1      29.439  24.553  -4.673  0.00  0.00    -0.057 SA
HETATM    3  C   UNK N   1      29.298  23.384  -2.522  0.00  0.00     0.105 A 
HETATM    4  N   UNK N   1      30.641  23.445  -2.825  0.00  0.00    -0.346 N 
ATOM      5  HN  UNK N   1      31.378  23.063  -2.233  1.00  0.00     0.167 HD
HETATM    6  C   UNK N   1      30.865  24.074  -4.003  0.00  0.00     0.142 A 
ENDROOT
BRANCH   1   7
HETATM    7  C   UNK N   1      26.951  24.093  -3.482  0.00  0.00     0.086 C 
BRANCH   7   8
HETATM    8  C   UNK N   1      26.334  25.370  -3.996  0.00  0.00    -0.053 A 
HETATM    9  C   UNK N   1      26.406  26.583  -3.293  0.00  0.00     0.007 A 
HETATM   10  C   UNK N   1      25.820  27.740  -3.807  0.00  0.00     0.001 A 
HETATM   11  C   UNK N   1      25.155  27.695  -5.033  0.00  0.00     0.000 A 
HETATM   12  C   UNK N   1      25.076  26.493  -5.742  0.00  0.00     0.001 A 
HETATM   13  C   UNK N   1      25.665  25.335  -5.224  0.00  0.00     0.007 A 
ENDBRANCH   7   8
ENDBRANCH   1   7
BRANCH   6  14
HETATM   14  N   UNK N   1      32.144  24.278  -4.555  0.00  0.00    -0.380 N 
HETATM   15  H   UNK N   1      32.523  25.185  -4.597  0.00  0.00     0.158 HD
HETATM   16  H   UNK N   1      32.658  23.512  -4.898  0.00  0.00     0.158 HD
ENDBRANCH   6  14
TORSDOF 3
ENDMDL
MODEL 8
REMARK VINA RESULT:      -4.8      1.699      2.221
REMARK  3 active torsions:
REMARK  status: ('A' for Active; 'I' for Inactive)
REMARK    1  A    between atoms: C_6  and  C_7 
REMARK    2  A    between atoms: C_7  and  C_8 
REMARK    3  A    between atoms: C_13  and  N_14 
ROOT
HETATM    1  C   UNK N   1      36.428  12.818  13.393  0.00  0.00     0.006 A 
HETATM    2  S   UNK N   1      35.791  13.919  12.338  0.00  0.00    -0.057 SA
HETATM    3  C   UNK N   1      37.564  12.277  12.757  0.00  0.00     0.105 A 
HETATM    4  N   UNK N   1      37.816  12.786  11.501  0.00  0.00    -0.346 N 
ATOM      5  HN  UNK N   1      38.599  12.496  10.914  1.00  0.00     0.167 HD
HETATM    6  C   UNK N   1      36.901  13.715  11.139  0.00  0.00     0.142 A 
ENDROOT
BRANCH   1   7
HETATM    7  C   UNK N   1      35.858  12.504  14.750  0.00  0.00     0.086 C 
BRANCH   7   8
HETATM    8  C   UNK N   1      36.036  13.518  15.851  0.00  0.00    -0.053 A 
HETATM    9  C   UNK N   1      35.279  13.492  17.034  0.00  0.00     0.007 A 
HETATM   10  C   UNK N   1      35.477  14.452  18.027  0.00  0.00     0.001 A 
HETATM   11  C   UNK N   1      36.436  15.450  17.847  0.00  0.00     0.000 A 
HETATM   12  C   UNK N   1      37.195  15.486  16.674  0.00  0.00     0.001 A 
HETATM   13  C   UNK N   1      36.994  14.523  15.680  0.00  0.00     0.007 A 
ENDBRANCH   7   8
ENDBRANCH   1   7
BRANCH   6  14
HETATM   14  N   UNK N   1      36.917  14.397   9.908  0.00  0.00    -0.380 N 
HETATM   15  H   UNK N   1      36.190  14.258   9.259  0.00  0.00     0.158 HD
HETATM   16  H   UNK N   1      37.655  15.012   9.696  0.00  0.00     0.158 HD
ENDBRANCH   6  14
TORSDOF 3
ENDMDL
MODEL 9
REMARK VINA RESULT:      -4.7      2.611      3.838
REMARK  3 active torsions:
REMARK  status: ('A' for Active; 'I' for Inactive)
REMARK    1  A    between atoms: C_6  and  C_7 
REMARK    2  A    between atoms: C_7  and  C_8 
REMARK    3  A    between atoms: C_13  and  N_14 
ROOT
HETATM    1  C   UNK N   1      35.604  14.491  11.733  0.00  0.00     0.006 A 
HETATM    2  S   UNK N   1      36.042  15.979  11.163  0.00  0.00    -0.057 SA
HETATM    3  C   UNK N   1      34.321  14.233  11.210  0.00  0.00     0.105 A 
HETATM    4  N   UNK N   1      33.813  15.235  10.413  0.00  0.00    -0.346 N 
ATOM      5  HN  UNK N   1      32.898  15.199   9.962  1.00  0.00     0.167 HD
HETATM    6  C   UNK N   1      34.672  16.275  10.299  0.00  0.00     0.142 A 
ENDROOT
BRANCH   1   7
HETATM    7  C   UNK N   1      36.456  13.633  12.630  0.00  0.00     0.086 C 
BRANCH   7   8
HETATM    8  C   UNK N   1      36.075  13.523  14.085  0.00  0.00    -0.053 A 
HETATM    9  C   UNK N   1      36.757  14.211  15.100  0.00  0.00     0.007 A 
HETATM   10  C   UNK N   1      36.369  14.078  16.434  0.00  0.00     0.001 A 
HETATM   11  C   UNK N   1      35.293  13.254  16.766  0.00  0.00     0.000 A 
HETATM   12  C   UNK N   1      34.607  12.565  15.763  0.00  0.00     0.001 A 
HETATM   13  C   UNK N   1      34.997  12.699  14.427  0.00  0.00     0.007 A 
ENDBRANCH   7   8
ENDBRANCH   1   7
BRANCH   6  14
HETATM   14  N   UNK N   1      34.409  17.434   9.544  0.00  0.00    -0.380 N 
HETATM   15  H   UNK N   1      33.486  17.652   9.284  0.00  0.00     0.158 HD
HETATM   16  H   UNK N   1      35.149  18.025   9.277  0.00  0.00     0.158 HD
ENDBRANCH   6  14
TORSDOF 3
ENDMDL
