REMARK  3 active torsions:
REMARK  status: ('A' for Active; 'I' for Inactive)
REMARK    1  A    between atoms: C_6  and  C_7 
REMARK    2  A    between atoms: C_7  and  C_8 
REMARK    3  A    between atoms: C_13  and  N_14 
ROOT
HETATM    1  C   UNK N   1       1.033  -0.633   0.000  0.00  0.00     0.006 A 
HETATM    2  S   UNK N   1       2.440  -1.499  -0.000  0.00  0.00    -0.057 SA
HETATM    3  C   UNK N   1      -0.011  -1.580   0.000  0.00  0.00     0.105 A 
HETATM    4  N   UNK N   1       0.405  -2.894   0.000  0.00  0.00    -0.346 N 
ATOM      5  HN  UNK N   1      -0.228  -3.694   0.000  1.00  0.00     0.167 HD
HETATM    6  C   UNK N   1       1.755  -2.996   0.000  0.00  0.00     0.142 A 
ENDROOT
BRANCH   1   7
HETATM    7  C   UNK N   1       0.953   0.870  -0.000  0.00  0.00     0.086 C 
BRANCH   7   8
HETATM    8  C   UNK N   1      -0.411   1.513  -0.000  0.00  0.00    -0.053 A 
HETATM    9  C   UNK N   1      -1.600   0.767  -0.000  0.00  0.00     0.007 A 
HETATM   10  C   UNK N   1      -2.841   1.405  -0.000  0.00  0.00     0.001 A 
HETATM   11  C   UNK N   1      -2.905   2.799  -0.000  0.00  0.00     0.000 A 
HETATM   12  C   UNK N   1      -1.728   3.552   0.000  0.00  0.00     0.001 A 
HETATM   13  C   UNK N   1      -0.485   2.910   0.000  0.00  0.00     0.007 A 
ENDBRANCH   7   8
ENDBRANCH   1   7
BRANCH   6  14
HETATM   14  N   UNK N   1       2.451  -4.220  -0.000  0.00  0.00    -0.380 N 
HETATM   15  H   UNK N   1       1.953  -5.069  -0.000  0.00  0.00     0.158 HD
HETATM   16  H   UNK N   1       3.435  -4.226  -0.000  0.00  0.00     0.158 HD
ENDBRANCH   6  14
TORSDOF 3
