REMARK  6 active torsions:
REMARK  status: ('A' for Active; 'I' for Inactive)
REMARK    1  A    between atoms: N_1  and  C_3 
REMARK    2  A    between atoms: C_2  and  C_3 
REMARK    3  A    between atoms: C_2  and  O_10 
REMARK    4  A    between atoms: C_4  and  C_5 
REMARK    5  A    between atoms: C_4  and  C_8 
REMARK    6  A    between atoms: C_5  and  O_10 
ROOT
HETATM    1  C   UNK N   1       3.308   2.457  -0.000  0.00  0.00     0.001 A 
HETATM    2  C   UNK N   1       3.406  -0.343   0.000  0.00  0.00    -0.025 A 
HETATM    3  C   UNK N   1       0.960  -0.439  -0.000  0.00  0.00    -0.038 A 
HETATM    4  C   UNK N   1       2.285  -2.484  -0.000  0.00  0.00     0.001 A 
HETATM    5  C   UNK N   1       1.045  -1.841  -0.000  0.00  0.00     0.008 A 
HETATM    6  C   UNK N   1       3.463  -1.737   0.000  0.00  0.00     0.012 A 
HETATM    7  C   UNK N   1       2.153   0.317  -0.000  0.00  0.00    -0.019 A 
HETATM    8  C   UNK N   1       2.120   1.721  -0.000  0.00  0.00     0.013 A 
HETATM    9  C   UNK N   1       4.539   1.798   0.000  0.00  0.00     0.001 A 
HETATM   10  C   UNK N   1       4.589   0.402   0.000  0.00  0.00     0.012 A 
ENDROOT
BRANCH   3  11
HETATM   11  C   UNK N   1      -0.375   0.281  -0.000  0.00  0.00     0.150 C 
BRANCH  11  12
HETATM   12  C   UNK N   1      -1.667  -0.496   0.000  0.00  0.00     0.263 C 
HETATM   13  O   UNK N   1      -1.679  -1.718   0.000  0.00  0.00    -0.265 OA
BRANCH  12  14
HETATM   14  O   UNK N   1      -2.828   0.203   0.000  0.00  0.00    -0.320 OA
BRANCH  14  15
HETATM   15  C   UNK N   1      -4.064  -0.399   0.000  0.00  0.00     0.197 C 
BRANCH  15  16
HETATM   16  C   UNK N   1      -5.135   0.671  -0.000  0.00  0.00     0.138 C 
BRANCH  16  17
HETATM   17  N   UNK N   1      -6.445   0.049  -0.000  0.00  0.00    -0.428 N 
HETATM   18  H   UNK N   1      -7.285   0.628  -0.000  0.00  0.00     0.149 HD
HETATM   19  H   UNK N   1      -6.527  -0.968  -0.000  0.00  0.00     0.149 HD
ENDBRANCH  16  17
ENDBRANCH  15  16
ENDBRANCH  14  15
ENDBRANCH  12  14
ENDBRANCH  11  12
ENDBRANCH   3  11
TORSDOF 6
