MODEL 1
REMARK VINA RESULT:      -6.1      0.000      0.000
REMARK  6 active torsions:
REMARK  status: ('A' for Active; 'I' for Inactive)
REMARK    1  A    between atoms: N_1  and  C_3 
REMARK    2  A    between atoms: C_2  and  C_3 
REMARK    3  A    between atoms: C_2  and  O_10 
REMARK    4  A    between atoms: C_4  and  C_5 
REMARK    5  A    between atoms: C_4  and  C_8 
REMARK    6  A    between atoms: C_5  and  O_10 
ROOT
HETATM    1  C   UNK N   1      33.036  16.855   3.689  0.00  0.00     0.001 A 
HETATM    2  C   UNK N   1      31.059  17.212   5.642  0.00  0.00    -0.025 A 
HETATM    3  C   UNK N   1      32.768  17.169   7.394  0.00  0.00    -0.038 A 
HETATM    4  C   UNK N   1      30.415  17.457   7.958  0.00  0.00     0.001 A 
HETATM    5  C   UNK N   1      31.752  17.348   8.347  0.00  0.00     0.008 A 
HETATM    6  C   UNK N   1      30.069  17.389   6.608  0.00  0.00     0.012 A 
HETATM    7  C   UNK N   1      32.417  17.100   6.028  0.00  0.00    -0.019 A 
HETATM    8  C   UNK N   1      33.397  16.922   5.037  0.00  0.00     0.013 A 
HETATM    9  C   UNK N   1      31.695  16.966   3.317  0.00  0.00     0.001 A 
HETATM   10  C   UNK N   1      30.708  17.144   4.290  0.00  0.00     0.012 A 
ENDROOT
BRANCH   3  11
HETATM   11  C   UNK N   1      34.226  17.048   7.793  0.00  0.00     0.150 C 
BRANCH  11  12
HETATM   12  C   UNK N   1      34.874  18.095   8.664  0.00  0.00     0.263 C 
HETATM   13  O   UNK N   1      34.908  19.271   8.333  0.00  0.00    -0.265 OA
BRANCH  12  14
HETATM   14  O   UNK N   1      35.424  17.694   9.835  0.00  0.00    -0.320 OA
BRANCH  14  15
HETATM   15  C   UNK N   1      35.036  16.550  10.492  0.00  0.00     0.197 C 
BRANCH  15  16
HETATM   16  C   UNK N   1      36.264  15.727  10.818  0.00  0.00     0.138 C 
BRANCH  16  17
HETATM   17  N   UNK N   1      36.196  15.275  12.194  0.00  0.00    -0.428 N 
HETATM   18  H   UNK N   1      35.429  15.578  12.794  0.00  0.00     0.149 HD
HETATM   19  H   UNK N   1      36.916  14.653  12.563  0.00  0.00     0.149 HD
ENDBRANCH  16  17
ENDBRANCH  15  16
ENDBRANCH  14  15
ENDBRANCH  12  14
ENDBRANCH  11  12
ENDBRANCH   3  11
TORSDOF 6
ENDMDL
MODEL 2
REMARK VINA RESULT:      -5.9     16.938     18.479
REMARK  6 active torsions:
REMARK  status: ('A' for Active; 'I' for Inactive)
REMARK    1  A    between atoms: N_1  and  C_3 
REMARK    2  A    between atoms: C_2  and  C_3 
REMARK    3  A    between atoms: C_2  and  O_10 
REMARK    4  A    between atoms: C_4  and  C_5 
REMARK    5  A    between atoms: C_4  and  C_8 
REMARK    6  A    between atoms: C_5  and  O_10 
ROOT
HETATM    1  C   UNK N   1      28.248  27.832  -8.155  0.00  0.00     0.001 A 
HETATM    2  C   UNK N   1      27.556  29.111  -5.761  0.00  0.00    -0.025 A 
HETATM    3  C   UNK N   1      25.861  27.399  -5.324  0.00  0.00    -0.038 A 
HETATM    4  C   UNK N   1      26.211  29.232  -3.757  0.00  0.00     0.001 A 
HETATM    5  C   UNK N   1      25.539  28.066  -4.130  0.00  0.00     0.008 A 
HETATM    6  C   UNK N   1      27.217  29.754  -4.570  0.00  0.00     0.012 A 
HETATM    7  C   UNK N   1      26.880  27.928  -6.147  0.00  0.00    -0.019 A 
HETATM    8  C   UNK N   1      27.238  27.298  -7.350  0.00  0.00     0.013 A 
HETATM    9  C   UNK N   1      28.909  28.999  -7.767  0.00  0.00     0.001 A 
HETATM   10  C   UNK N   1      28.565  29.637  -6.573  0.00  0.00     0.012 A 
ENDROOT
BRANCH   3  11
HETATM   11  C   UNK N   1      25.146  26.132  -5.750  0.00  0.00     0.150 C 
BRANCH  11  12
HETATM   12  C   UNK N   1      25.545  24.795  -5.179  0.00  0.00     0.263 C 
HETATM   13  O   UNK N   1      25.873  24.672  -4.008  0.00  0.00    -0.265 OA
BRANCH  12  14
HETATM   14  O   UNK N   1      25.530  23.721  -6.006  0.00  0.00    -0.320 OA
BRANCH  14  15
HETATM   15  C   UNK N   1      26.166  23.707  -7.225  0.00  0.00     0.197 C 
BRANCH  15  16
HETATM   16  C   UNK N   1      25.220  23.155  -8.269  0.00  0.00     0.138 C 
BRANCH  16  17
HETATM   17  N   UNK N   1      24.450  22.065  -7.702  0.00  0.00    -0.428 N 
HETATM   18  H   UNK N   1      23.677  21.657  -8.229  0.00  0.00     0.149 HD
HETATM   19  H   UNK N   1      24.680  21.706  -6.775  0.00  0.00     0.149 HD
ENDBRANCH  16  17
ENDBRANCH  15  16
ENDBRANCH  14  15
ENDBRANCH  12  14
ENDBRANCH  11  12
ENDBRANCH   3  11
TORSDOF 6
ENDMDL
MODEL 3
REMARK VINA RESULT:      -5.9      1.832      3.337
REMARK  6 active torsions:
REMARK  status: ('A' for Active; 'I' for Inactive)
REMARK    1  A    between atoms: N_1  and  C_3 
REMARK    2  A    between atoms: C_2  and  C_3 
REMARK    3  A    between atoms: C_2  and  O_10 
REMARK    4  A    between atoms: C_4  and  C_5 
REMARK    5  A    between atoms: C_4  and  C_8 
REMARK    6  A    between atoms: C_5  and  O_10 
ROOT
HETATM    1  C   UNK N   1      29.964  17.934   8.849  0.00  0.00     0.001 A 
HETATM    2  C   UNK N   1      30.987  17.223   6.339  0.00  0.00    -0.025 A 
HETATM    3  C   UNK N   1      33.261  17.663   7.130  0.00  0.00    -0.038 A 
HETATM    4  C   UNK N   1      32.862  16.907   4.848  0.00  0.00     0.001 A 
HETATM    5  C   UNK N   1      33.740  17.301   5.861  0.00  0.00     0.008 A 
HETATM    6  C   UNK N   1      31.488  16.868   5.087  0.00  0.00     0.012 A 
HETATM    7  C   UNK N   1      31.870  17.624   7.371  0.00  0.00    -0.019 A 
HETATM    8  C   UNK N   1      31.342  17.977   8.624  0.00  0.00     0.013 A 
HETATM    9  C   UNK N   1      29.100  17.538   7.825  0.00  0.00     0.001 A 
HETATM   10  C   UNK N   1      29.609  17.184   6.574  0.00  0.00     0.012 A 
ENDROOT
BRANCH   3  11
HETATM   11  C   UNK N   1      34.195  18.094   8.245  0.00  0.00     0.150 C 
BRANCH  11  12
HETATM   12  C   UNK N   1      34.756  17.082   9.211  0.00  0.00     0.263 C 
HETATM   13  O   UNK N   1      35.452  17.418  10.158  0.00  0.00    -0.265 OA
BRANCH  12  14
HETATM   14  O   UNK N   1      34.465  15.775   9.002  0.00  0.00    -0.320 OA
BRANCH  14  15
HETATM   15  C   UNK N   1      33.638  15.051   9.828  0.00  0.00     0.197 C 
BRANCH  15  16
HETATM   16  C   UNK N   1      32.552  14.402   8.996  0.00  0.00     0.138 C 
BRANCH  16  17
HETATM   17  N   UNK N   1      32.594  12.964   9.177  0.00  0.00    -0.428 N 
HETATM   18  H   UNK N   1      31.906  12.505   9.775  0.00  0.00     0.149 HD
HETATM   19  H   UNK N   1      33.310  12.411   8.706  0.00  0.00     0.149 HD
ENDBRANCH  16  17
ENDBRANCH  15  16
ENDBRANCH  14  15
ENDBRANCH  12  14
ENDBRANCH  11  12
ENDBRANCH   3  11
TORSDOF 6
ENDMDL
MODEL 4
REMARK VINA RESULT:      -5.9     15.416     17.680
REMARK  6 active torsions:
REMARK  status: ('A' for Active; 'I' for Inactive)
REMARK    1  A    between atoms: N_1  and  C_3 
REMARK    2  A    between atoms: C_2  and  C_3 
REMARK    3  A    between atoms: C_2  and  O_10 
REMARK    4  A    between atoms: C_4  and  C_5 
REMARK    5  A    between atoms: C_4  and  C_8 
REMARK    6  A    between atoms: C_5  and  O_10 
ROOT
HETATM    1  C   UNK N   1      28.292  27.875  -8.084  0.00  0.00     0.001 A 
HETATM    2  C   UNK N   1      27.590  29.198  -5.716  0.00  0.00    -0.025 A 
HETATM    3  C   UNK N   1      25.887  27.501  -5.260  0.00  0.00    -0.038 A 
HETATM    4  C   UNK N   1      26.234  29.359  -3.723  0.00  0.00     0.001 A 
HETATM    5  C   UNK N   1      25.560  28.189  -4.080  0.00  0.00     0.008 A 
HETATM    6  C   UNK N   1      27.247  29.863  -4.539  0.00  0.00     0.012 A 
HETATM    7  C   UNK N   1      26.913  28.011  -6.086  0.00  0.00    -0.019 A 
HETATM    8  C   UNK N   1      27.276  27.359  -7.276  0.00  0.00     0.013 A 
HETATM    9  C   UNK N   1      28.955  29.046  -7.712  0.00  0.00     0.001 A 
HETATM   10  C   UNK N   1      28.606  29.707  -6.531  0.00  0.00     0.012 A 
ENDROOT
BRANCH   3  11
HETATM   11  C   UNK N   1      25.169  26.228  -5.668  0.00  0.00     0.150 C 
BRANCH  11  12
HETATM   12  C   UNK N   1      25.549  24.903  -5.058  0.00  0.00     0.263 C 
HETATM   13  O   UNK N   1      25.418  23.854  -5.672  0.00  0.00    -0.265 OA
BRANCH  12  14
HETATM   14  O   UNK N   1      26.045  24.903  -3.797  0.00  0.00    -0.320 OA
BRANCH  14  15
HETATM   15  C   UNK N   1      27.174  24.207  -3.436  0.00  0.00     0.197 C 
BRANCH  15  16
HETATM   16  C   UNK N   1      28.382  24.860  -4.073  0.00  0.00     0.138 C 
BRANCH  16  17
HETATM   17  N   UNK N   1      29.230  23.844  -4.664  0.00  0.00    -0.428 N 
HETATM   18  H   UNK N   1      30.118  23.601  -4.224  0.00  0.00     0.149 HD
HETATM   19  H   UNK N   1      28.940  23.372  -5.521  0.00  0.00     0.149 HD
ENDBRANCH  16  17
ENDBRANCH  15  16
ENDBRANCH  14  15
ENDBRANCH  12  14
ENDBRANCH  11  12
ENDBRANCH   3  11
TORSDOF 6
ENDMDL
MODEL 5
REMARK VINA RESULT:      -5.8      6.100     10.817
REMARK  6 active torsions:
REMARK  status: ('A' for Active; 'I' for Inactive)
REMARK    1  A    between atoms: N_1  and  C_3 
REMARK    2  A    between atoms: C_2  and  C_3 
REMARK    3  A    between atoms: C_2  and  O_10 
REMARK    4  A    between atoms: C_4  and  C_5 
REMARK    5  A    between atoms: C_4  and  C_8 
REMARK    6  A    between atoms: C_5  and  O_10 
ROOT
HETATM    1  C   UNK N   1      35.160  13.830  18.392  0.00  0.00     0.001 A 
HETATM    2  C   UNK N   1      35.842  11.354  17.272  0.00  0.00    -0.025 A 
HETATM    3  C   UNK N   1      36.489  12.463  15.188  0.00  0.00    -0.038 A 
HETATM    4  C   UNK N   1      36.668  10.044  15.416  0.00  0.00     0.001 A 
HETATM    5  C   UNK N   1      36.821  11.206  14.657  0.00  0.00     0.008 A 
HETATM    6  C   UNK N   1      36.179  10.117  16.721  0.00  0.00     0.012 A 
HETATM    7  C   UNK N   1      35.994  12.537  16.509  0.00  0.00    -0.019 A 
HETATM    8  C   UNK N   1      35.648  13.771  17.084  0.00  0.00     0.013 A 
HETATM    9  C   UNK N   1      35.013  12.658  19.137  0.00  0.00     0.001 A 
HETATM   10  C   UNK N   1      35.353  11.423  18.580  0.00  0.00     0.012 A 
ENDROOT
BRANCH   3  11
HETATM   11  C   UNK N   1      36.647  13.739  14.382  0.00  0.00     0.150 C 
BRANCH  11  12
HETATM   12  C   UNK N   1      35.697  14.059  13.255  0.00  0.00     0.263 C 
HETATM   13  O   UNK N   1      34.681  13.405  13.070  0.00  0.00    -0.265 OA
BRANCH  12  14
HETATM   14  O   UNK N   1      36.002  15.101  12.445  0.00  0.00    -0.320 OA
BRANCH  14  15
HETATM   15  C   UNK N   1      35.995  15.009  11.073  0.00  0.00     0.197 C 
BRANCH  15  16
HETATM   16  C   UNK N   1      34.751  15.687  10.539  0.00  0.00     0.138 C 
BRANCH  16  17
HETATM   17  N   UNK N   1      34.947  17.124  10.525  0.00  0.00    -0.428 N 
HETATM   18  H   UNK N   1      35.603  17.543   9.866  0.00  0.00     0.149 HD
HETATM   19  H   UNK N   1      34.428  17.716  11.174  0.00  0.00     0.149 HD
ENDBRANCH  16  17
ENDBRANCH  15  16
ENDBRANCH  14  15
ENDBRANCH  12  14
ENDBRANCH  11  12
ENDBRANCH   3  11
TORSDOF 6
ENDMDL
MODEL 6
REMARK VINA RESULT:      -5.8     10.972     13.281
REMARK  6 active torsions:
REMARK  status: ('A' for Active; 'I' for Inactive)
REMARK    1  A    between atoms: N_1  and  C_3 
REMARK    2  A    between atoms: C_2  and  C_3 
REMARK    3  A    between atoms: C_2  and  O_10 
REMARK    4  A    between atoms: C_4  and  C_5 
REMARK    5  A    between atoms: C_4  and  C_8 
REMARK    6  A    between atoms: C_5  and  O_10 
ROOT
HETATM    1  C   UNK N   1      21.019  12.408  11.308  0.00  0.00     0.001 A 
HETATM    2  C   UNK N   1      23.455  12.684   9.951  0.00  0.00    -0.025 A 
HETATM    3  C   UNK N   1      22.354  14.031   8.228  0.00  0.00    -0.038 A 
HETATM    4  C   UNK N   1      24.739  13.549   8.095  0.00  0.00     0.001 A 
HETATM    5  C   UNK N   1      23.591  14.150   7.573  0.00  0.00     0.008 A 
HETATM    6  C   UNK N   1      24.671  12.818   9.281  0.00  0.00     0.012 A 
HETATM    7  C   UNK N   1      22.286  13.290   9.429  0.00  0.00    -0.019 A 
HETATM    8  C   UNK N   1      21.073  13.143  10.120  0.00  0.00     0.013 A 
HETATM    9  C   UNK N   1      22.177  11.814  11.815  0.00  0.00     0.001 A 
HETATM   10  C   UNK N   1      23.391  11.951  11.139  0.00  0.00     0.012 A 
ENDROOT
BRANCH   3  11
HETATM   11  C   UNK N   1      21.094  14.674   7.681  0.00  0.00     0.150 C 
BRANCH  11  12
HETATM   12  C   UNK N   1      20.952  16.175   7.644  0.00  0.00     0.263 C 
HETATM   13  O   UNK N   1      21.137  16.810   6.616  0.00  0.00    -0.265 OA
BRANCH  12  14
HETATM   14  O   UNK N   1      20.610  16.809   8.792  0.00  0.00    -0.320 OA
BRANCH  14  15
HETATM   15  C   UNK N   1      19.588  17.725   8.865  0.00  0.00     0.197 C 
BRANCH  15  16
HETATM   16  C   UNK N   1      18.280  16.990   9.067  0.00  0.00     0.138 C 
BRANCH  16  17
HETATM   17  N   UNK N   1      17.252  17.929   9.473  0.00  0.00    -0.428 N 
HETATM   18  H   UNK N   1      16.278  17.628   9.528  0.00  0.00     0.149 HD
HETATM   19  H   UNK N   1      17.501  18.891   9.704  0.00  0.00     0.149 HD
ENDBRANCH  16  17
ENDBRANCH  15  16
ENDBRANCH  14  15
ENDBRANCH  12  14
ENDBRANCH  11  12
ENDBRANCH   3  11
TORSDOF 6
ENDMDL
MODEL 7
REMARK VINA RESULT:      -5.7      6.399     10.855
REMARK  6 active torsions:
REMARK  status: ('A' for Active; 'I' for Inactive)
REMARK    1  A    between atoms: N_1  and  C_3 
REMARK    2  A    between atoms: C_2  and  C_3 
REMARK    3  A    between atoms: C_2  and  O_10 
REMARK    4  A    between atoms: C_4  and  C_5 
REMARK    5  A    between atoms: C_4  and  C_8 
REMARK    6  A    between atoms: C_5  and  O_10 
ROOT
HETATM    1  C   UNK N   1      37.151   9.261  15.533  0.00  0.00     0.001 A 
HETATM    2  C   UNK N   1      35.887  10.940  17.386  0.00  0.00    -0.025 A 
HETATM    3  C   UNK N   1      36.154  12.838  15.864  0.00  0.00    -0.038 A 
HETATM    4  C   UNK N   1      35.072  13.123  18.028  0.00  0.00     0.001 A 
HETATM    5  C   UNK N   1      35.516  13.652  16.815  0.00  0.00     0.008 A 
HETATM    6  C   UNK N   1      35.256  11.770  18.313  0.00  0.00     0.012 A 
HETATM    7  C   UNK N   1      36.340  11.469  16.153  0.00  0.00    -0.019 A 
HETATM    8  C   UNK N   1      36.972  10.615  15.234  0.00  0.00     0.013 A 
HETATM    9  C   UNK N   1      36.700   8.748  16.751  0.00  0.00     0.001 A 
HETATM   10  C   UNK N   1      36.069   9.585  17.675  0.00  0.00     0.012 A 
ENDROOT
BRANCH   3  11
HETATM   11  C   UNK N   1      36.645  13.391  14.539  0.00  0.00     0.150 C 
BRANCH  11  12
HETATM   12  C   UNK N   1      35.693  13.581  13.386  0.00  0.00     0.263 C 
HETATM   13  O   UNK N   1      34.543  13.171  13.431  0.00  0.00    -0.265 OA
BRANCH  12  14
HETATM   14  O   UNK N   1      36.151  14.225  12.285  0.00  0.00    -0.320 OA
BRANCH  14  15
HETATM   15  C   UNK N   1      35.691  15.462  11.896  0.00  0.00     0.197 C 
BRANCH  15  16
HETATM   16  C   UNK N   1      34.894  15.313  10.618  0.00  0.00     0.138 C 
BRANCH  16  17
HETATM   17  N   UNK N   1      33.522  14.968  10.937  0.00  0.00    -0.428 N 
HETATM   18  H   UNK N   1      32.756  15.539  10.580  0.00  0.00     0.149 HD
HETATM   19  H   UNK N   1      33.323  14.154  11.519  0.00  0.00     0.149 HD
ENDBRANCH  16  17
ENDBRANCH  15  16
ENDBRANCH  14  15
ENDBRANCH  12  14
ENDBRANCH  11  12
ENDBRANCH   3  11
TORSDOF 6
ENDMDL
MODEL 8
REMARK VINA RESULT:      -5.6      7.161     11.423
REMARK  6 active torsions:
REMARK  status: ('A' for Active; 'I' for Inactive)
REMARK    1  A    between atoms: N_1  and  C_3 
REMARK    2  A    between atoms: C_2  and  C_3 
REMARK    3  A    between atoms: C_2  and  O_10 
REMARK    4  A    between atoms: C_4  and  C_5 
REMARK    5  A    between atoms: C_4  and  C_8 
REMARK    6  A    between atoms: C_5  and  O_10 
ROOT
HETATM    1  C   UNK N   1      35.319   9.295  16.088  0.00  0.00     0.001 A 
HETATM    2  C   UNK N   1      35.275  10.916  18.372  0.00  0.00    -0.025 A 
HETATM    3  C   UNK N   1      35.270  12.919  16.965  0.00  0.00    -0.038 A 
HETATM    4  C   UNK N   1      35.239  13.106  19.394  0.00  0.00     0.001 A 
HETATM    5  C   UNK N   1      35.248  13.702  18.130  0.00  0.00     0.008 A 
HETATM    6  C   UNK N   1      35.253  11.716  19.515  0.00  0.00     0.012 A 
HETATM    7  C   UNK N   1      35.284  11.512  17.088  0.00  0.00    -0.019 A 
HETATM    8  C   UNK N   1      35.306  10.686  15.952  0.00  0.00     0.013 A 
HETATM    9  C   UNK N   1      35.310   8.717  17.358  0.00  0.00     0.001 A 
HETATM   10  C   UNK N   1      35.288   9.524  18.498  0.00  0.00     0.012 A 
ENDROOT
BRANCH   3  11
HETATM   11  C   UNK N   1      35.280  13.543  15.582  0.00  0.00     0.150 C 
BRANCH  11  12
HETATM   12  C   UNK N   1      36.558  14.081  14.991  0.00  0.00     0.263 C 
HETATM   13  O   UNK N   1      37.448  14.534  15.696  0.00  0.00    -0.265 OA
BRANCH  12  14
HETATM   14  O   UNK N   1      36.697  14.049  13.644  0.00  0.00    -0.320 OA
BRANCH  14  15
HETATM   15  C   UNK N   1      35.762  13.487  12.808  0.00  0.00     0.197 C 
BRANCH  15  16
HETATM   16  C   UNK N   1      35.785  14.213  11.480  0.00  0.00     0.138 C 
BRANCH  16  17
HETATM   17  N   UNK N   1      36.441  15.497  11.638  0.00  0.00    -0.428 N 
HETATM   18  H   UNK N   1      36.104  16.160  12.336  0.00  0.00     0.149 HD
HETATM   19  H   UNK N   1      37.240  15.737  11.051  0.00  0.00     0.149 HD
ENDBRANCH  16  17
ENDBRANCH  15  16
ENDBRANCH  14  15
ENDBRANCH  12  14
ENDBRANCH  11  12
ENDBRANCH   3  11
TORSDOF 6
ENDMDL
MODEL 9
REMARK VINA RESULT:      -5.5      7.656     12.048
REMARK  6 active torsions:
REMARK  status: ('A' for Active; 'I' for Inactive)
REMARK    1  A    between atoms: N_1  and  C_3 
REMARK    2  A    between atoms: C_2  and  C_3 
REMARK    3  A    between atoms: C_2  and  O_10 
REMARK    4  A    between atoms: C_4  and  C_5 
REMARK    5  A    between atoms: C_4  and  C_8 
REMARK    6  A    between atoms: C_5  and  O_10 
ROOT
HETATM    1  C   UNK N   1      35.922   8.768  18.308  0.00  0.00     0.001 A 
HETATM    2  C   UNK N   1      35.459  11.439  19.015  0.00  0.00    -0.025 A 
HETATM    3  C   UNK N   1      35.552  12.091  16.658  0.00  0.00    -0.038 A 
HETATM    4  C   UNK N   1      35.159  13.755  18.393  0.00  0.00     0.001 A 
HETATM    5  C   UNK N   1      35.319  13.420  17.047  0.00  0.00     0.008 A 
HETATM    6  C   UNK N   1      35.229  12.767  19.376  0.00  0.00     0.012 A 
HETATM    7  C   UNK N   1      35.623  11.091  17.653  0.00  0.00    -0.019 A 
HETATM    8  C   UNK N   1      35.854   9.748  17.314  0.00  0.00     0.013 A 
HETATM    9  C   UNK N   1      35.759   9.121  19.650  0.00  0.00     0.001 A 
HETATM   10  C   UNK N   1      35.528  10.452  20.003  0.00  0.00     0.012 A 
ENDROOT
BRANCH   3  11
HETATM   11  C   UNK N   1      35.730  11.703  15.202  0.00  0.00     0.150 C 
BRANCH  11  12
HETATM   12  C   UNK N   1      34.578  11.803  14.235  0.00  0.00     0.263 C 
HETATM   13  O   UNK N   1      33.715  10.939  14.176  0.00  0.00    -0.265 OA
BRANCH  12  14
HETATM   14  O   UNK N   1      34.523  12.886  13.422  0.00  0.00    -0.320 OA
BRANCH  14  15
HETATM   15  C   UNK N   1      35.565  13.265  12.609  0.00  0.00     0.197 C 
BRANCH  15  16
HETATM   16  C   UNK N   1      36.000  14.666  12.983  0.00  0.00     0.138 C 
BRANCH  16  17
HETATM   17  N   UNK N   1      36.427  15.378  11.794  0.00  0.00    -0.428 N 
HETATM   18  H   UNK N   1      36.853  16.301  11.877  0.00  0.00     0.149 HD
HETATM   19  H   UNK N   1      36.302  14.955  10.874  0.00  0.00     0.149 HD
ENDBRANCH  16  17
ENDBRANCH  15  16
ENDBRANCH  14  15
ENDBRANCH  12  14
ENDBRANCH  11  12
ENDBRANCH   3  11
TORSDOF 6
ENDMDL
