MODEL 1
REMARK VINA RESULT:      -7.5      0.000      0.000
REMARK  15 active torsions:
REMARK  status: ('A' for Active; 'I' for Inactive)
REMARK    1  A    between atoms: C_3  and  C_2 
REMARK    2  A    between atoms: N_12  and  C_11 
REMARK    3  A    between atoms: C_13  and  N_12 
REMARK    4  A    between atoms: C_13  and  C_14 
REMARK    5  A    between atoms: C_17  and  C_13 
REMARK    6  A    between atoms: C_14  and  O_15 
REMARK    7  A    between atoms: S_18  and  C_17 
REMARK    8  A    between atoms: C_17  and  C_22 
REMARK    9  A    between atoms: S_18  and  O_19 
REMARK   10  A    between atoms: C_22  and  O_23 
REMARK   11  A    between atoms: C_24  and  O_23 
REMARK   12  A    between atoms: C_26  and  C_24 
REMARK   13  A    between atoms: C_27  and  C_26 
REMARK   14  A    between atoms: O_32  and  C_31 
REMARK   15  A    between atoms: O_34  and  C_33 
ROOT
HETATM    1  C   UNK N   1      35.493  14.168  10.588  0.00  0.00     0.111 C 
HETATM    2  C   UNK N   1      35.726  15.402  11.447  0.00  0.00     0.037 C 
ENDROOT
BRANCH   1   3
HETATM    3  C   UNK N   1      34.535  14.504   9.360  0.00  0.00     0.206 C 
BRANCH   3   4
HETATM    4  N   UNK N   1      35.169  15.021   8.147  0.00  0.00    -0.359 N 
HETATM    5  H   UNK N   1      36.113  14.770   8.026  0.00  0.00     0.162 HD
BRANCH   4   6
HETATM    6  C   UNK N   1      34.619  15.832   7.119  0.00  0.00     0.122 A 
HETATM    7  C   UNK N   1      34.133  17.122   7.273  0.00  0.00     0.048 A 
HETATM    8  C   UNK N   1      33.600  17.517   6.049  0.00  0.00     0.048 A 
HETATM    9  C   UNK N   1      33.768  16.422   5.218  0.00  0.00     0.041 A 
HETATM   10  C   UNK N   1      33.361  16.284   3.895  0.00  0.00     0.030 A 
HETATM   11  N   UNK N   1      34.372  15.410   5.871  0.00  0.00    -0.308 N 
HETATM   12  C   UNK N   1      33.603  15.055   3.264  0.00  0.00     0.004 A 
HETATM   13  C   UNK N   1      34.233  14.008   3.965  0.00  0.00     0.018 A 
HETATM   14  C   UNK N   1      34.621  14.204   5.300  0.00  0.00     0.099 A 
BRANCH   7  15
HETATM   15  C   UNK N   1      34.124  17.912   8.511  0.00  0.00     0.273 C 
HETATM   16  O   UNK N   1      35.148  18.069   9.158  0.00  0.00    -0.301 OA
ENDBRANCH   7  15
ENDBRANCH   4   6
ENDBRANCH   3   4
BRANCH   3  17
HETATM   17  C   UNK N   1      33.664  13.349   8.892  0.00  0.00     0.165 C 
HETATM   18  O   UNK N   1      34.123  12.412   8.257  0.00  0.00    -0.648 OA
BRANCH  17  19
HETATM   19  O   UNK N   1      32.338  13.391   9.127  0.00  0.00    -0.775 OA
HETATM   20  H   UNK N   1      31.669  13.692   9.708  0.00  0.00     0.167 HD
ENDBRANCH  17  19
ENDBRANCH   3  17
ENDBRANCH   1   3
BRANCH   1  21
HETATM   21  S   UNK N   1      37.160  13.456  10.124  0.00  0.00     0.164 S 
HETATM   22  O   UNK N   1      36.782  11.973  10.203  0.00  0.00    -0.228 OA
BRANCH  21  23
HETATM   23  O   UNK N   1      37.796  13.441  11.723  0.00  0.00    -0.305 OA
HETATM   24  H   UNK N   1      37.842  13.645  12.670  0.00  0.00     0.230 HD
ENDBRANCH  21  23
ENDBRANCH   1  21
BRANCH   1  25
HETATM   25  C   UNK N   1      34.901  13.138  11.545  0.00  0.00     0.206 C 
BRANCH  25  26
HETATM   26  O   UNK N   1      35.039  13.526  12.854  0.00  0.00    -0.319 OA
BRANCH  26  27
HETATM   27  C   UNK N   1      35.034  12.673  13.900  0.00  0.00     0.263 C 
HETATM   28  O   UNK N   1      34.044  11.978  14.079  0.00  0.00    -0.265 OA
BRANCH  27  29
HETATM   29  C   UNK N   1      36.216  12.571  14.846  0.00  0.00     0.149 C 
BRANCH  29  30
HETATM   30  C   UNK N   1      35.778  12.702  16.268  0.00  0.00    -0.046 A 
HETATM   31  C   UNK N   1      35.621  11.558  17.056  0.00  0.00     0.010 A 
HETATM   32  C   UNK N   1      35.326  11.682  18.416  0.00  0.00     0.040 A 
HETATM   33  C   UNK N   1      35.192  12.950  18.992  0.00  0.00     0.098 A 
HETATM   34  C   UNK N   1      35.334  14.097  18.200  0.00  0.00     0.099 A 
HETATM   35  C   UNK N   1      35.627  13.971  16.841  0.00  0.00     0.047 A 
BRANCH  33  36
HETATM   36  O   UNK N   1      34.934  13.060  20.306  0.00  0.00    -0.358 OA
HETATM   37  H   UNK N   1      35.459  13.590  20.873  0.00  0.00     0.217 HD
ENDBRANCH  33  36
BRANCH  34  38
HETATM   38  O   UNK N   1      35.205  15.321  18.742  0.00  0.00    -0.358 OA
HETATM   39  H   UNK N   1      35.059  15.500  19.650  0.00  0.00     0.217 HD
ENDBRANCH  34  38
ENDBRANCH  29  30
ENDBRANCH  27  29
ENDBRANCH  26  27
ENDBRANCH  25  26
ENDBRANCH   1  25
TORSDOF 15
ENDMDL
MODEL 2
REMARK VINA RESULT:      -7.3      3.329      9.157
REMARK  15 active torsions:
REMARK  status: ('A' for Active; 'I' for Inactive)
REMARK    1  A    between atoms: C_3  and  C_2 
REMARK    2  A    between atoms: N_12  and  C_11 
REMARK    3  A    between atoms: C_13  and  N_12 
REMARK    4  A    between atoms: C_13  and  C_14 
REMARK    5  A    between atoms: C_17  and  C_13 
REMARK    6  A    between atoms: C_14  and  O_15 
REMARK    7  A    between atoms: S_18  and  C_17 
REMARK    8  A    between atoms: C_17  and  C_22 
REMARK    9  A    between atoms: S_18  and  O_19 
REMARK   10  A    between atoms: C_22  and  O_23 
REMARK   11  A    between atoms: C_24  and  O_23 
REMARK   12  A    between atoms: C_26  and  C_24 
REMARK   13  A    between atoms: C_27  and  C_26 
REMARK   14  A    between atoms: O_32  and  C_31 
REMARK   15  A    between atoms: O_34  and  C_33 
ROOT
HETATM    1  C   UNK N   1      34.619  14.526   9.082  0.00  0.00     0.111 C 
HETATM    2  C   UNK N   1      33.161  14.106   8.961  0.00  0.00     0.037 C 
ENDROOT
BRANCH   1   3
HETATM    3  C   UNK N   1      35.041  14.679  10.610  0.00  0.00     0.206 C 
BRANCH   3   4
HETATM    4  N   UNK N   1      35.802  13.579  11.201  0.00  0.00    -0.359 N 
HETATM    5  H   UNK N   1      36.723  13.477  10.866  0.00  0.00     0.162 HD
BRANCH   4   6
HETATM    6  C   UNK N   1      35.407  12.637  12.187  0.00  0.00     0.122 A 
HETATM    7  C   UNK N   1      34.669  11.484  11.961  0.00  0.00     0.048 A 
HETATM    8  C   UNK N   1      34.417  10.899  13.200  0.00  0.00     0.048 A 
HETATM    9  C   UNK N   1      34.998  11.754  14.121  0.00  0.00     0.041 A 
HETATM   10  C   UNK N   1      34.989  11.647  15.508  0.00  0.00     0.030 A 
HETATM   11  N   UNK N   1      35.582  12.801  13.506  0.00  0.00    -0.308 N 
HETATM   12  C   UNK N   1      35.611  12.667  16.244  0.00  0.00     0.004 A 
HETATM   13  C   UNK N   1      36.213  13.755  15.582  0.00  0.00     0.018 A 
HETATM   14  C   UNK N   1      36.189  13.810  14.179  0.00  0.00     0.099 A 
BRANCH   7  15
HETATM   15  C   UNK N   1      34.188  10.993  10.663  0.00  0.00     0.273 C 
HETATM   16  O   UNK N   1      34.774  10.096  10.079  0.00  0.00    -0.301 OA
ENDBRANCH   7  15
ENDBRANCH   4   6
ENDBRANCH   3   4
BRANCH   3  17
HETATM   17  C   UNK N   1      35.839  15.933  10.933  0.00  0.00     0.165 C 
HETATM   18  O   UNK N   1      35.294  16.979  11.249  0.00  0.00    -0.648 OA
BRANCH  17  19
HETATM   19  O   UNK N   1      37.179  15.909  10.803  0.00  0.00    -0.775 OA
HETATM   20  H   UNK N   1      37.904  15.495  10.379  0.00  0.00     0.167 HD
ENDBRANCH  17  19
ENDBRANCH   3  17
ENDBRANCH   1   3
BRANCH   1  21
HETATM   21  S   UNK N   1      35.656  13.329   8.087  0.00  0.00     0.164 S 
HETATM   22  O   UNK N   1      37.030  13.922   8.414  0.00  0.00    -0.228 OA
BRANCH  21  23
HETATM   23  O   UNK N   1      35.564  14.203   6.607  0.00  0.00    -0.305 OA
HETATM   24  H   UNK N   1      35.523  14.336   5.648  0.00  0.00     0.230 HD
ENDBRANCH  21  23
ENDBRANCH   1  21
BRANCH   1  25
HETATM   25  C   UNK N   1      34.708  15.835   8.301  0.00  0.00     0.206 C 
BRANCH  25  26
HETATM   26  O   UNK N   1      33.466  16.299   7.949  0.00  0.00    -0.319 OA
BRANCH  26  27
HETATM   27  C   UNK N   1      33.241  17.157   6.931  0.00  0.00     0.263 C 
HETATM   28  O   UNK N   1      34.116  17.961   6.646  0.00  0.00    -0.265 OA
BRANCH  27  29
HETATM   29  C   UNK N   1      31.937  17.143   6.156  0.00  0.00     0.149 C 
BRANCH  29  30
HETATM   30  C   UNK N   1      30.768  17.330   7.068  0.00  0.00    -0.046 A 
HETATM   31  C   UNK N   1      30.936  17.992   8.287  0.00  0.00     0.010 A 
HETATM   32  C   UNK N   1      29.826  18.272   9.088  0.00  0.00     0.040 A 
HETATM   33  C   UNK N   1      28.545  17.895   8.669  0.00  0.00     0.098 A 
HETATM   34  C   UNK N   1      28.378  17.217   7.454  0.00  0.00     0.099 A 
HETATM   35  C   UNK N   1      29.489  16.937   6.656  0.00  0.00     0.047 A 
BRANCH  33  36
HETATM   36  O   UNK N   1      27.481  18.192   9.432  0.00  0.00    -0.358 OA
HETATM   37  H   UNK N   1      27.519  18.174  10.368  0.00  0.00     0.217 HD
ENDBRANCH  33  36
BRANCH  34  38
HETATM   38  O   UNK N   1      27.153  16.848   7.042  0.00  0.00    -0.358 OA
HETATM   39  H   UNK N   1      26.752  16.016   7.204  0.00  0.00     0.217 HD
ENDBRANCH  34  38
ENDBRANCH  29  30
ENDBRANCH  27  29
ENDBRANCH  26  27
ENDBRANCH  25  26
ENDBRANCH   1  25
TORSDOF 15
ENDMDL
MODEL 3
REMARK VINA RESULT:      -7.2     11.826     14.249
REMARK  15 active torsions:
REMARK  status: ('A' for Active; 'I' for Inactive)
REMARK    1  A    between atoms: C_3  and  C_2 
REMARK    2  A    between atoms: N_12  and  C_11 
REMARK    3  A    between atoms: C_13  and  N_12 
REMARK    4  A    between atoms: C_13  and  C_14 
REMARK    5  A    between atoms: C_17  and  C_13 
REMARK    6  A    between atoms: C_14  and  O_15 
REMARK    7  A    between atoms: S_18  and  C_17 
REMARK    8  A    between atoms: C_17  and  C_22 
REMARK    9  A    between atoms: S_18  and  O_19 
REMARK   10  A    between atoms: C_22  and  O_23 
REMARK   11  A    between atoms: C_24  and  O_23 
REMARK   12  A    between atoms: C_26  and  C_24 
REMARK   13  A    between atoms: C_27  and  C_26 
REMARK   14  A    between atoms: O_32  and  C_31 
REMARK   15  A    between atoms: O_34  and  C_33 
ROOT
HETATM    1  C   UNK N   1      20.911  15.709   6.732  0.00  0.00     0.111 C 
HETATM    2  C   UNK N   1      20.538  14.237   6.641  0.00  0.00     0.037 C 
ENDROOT
BRANCH   1   3
HETATM    3  C   UNK N   1      20.429  16.498   5.435  0.00  0.00     0.206 C 
BRANCH   3   4
HETATM    4  N   UNK N   1      21.443  16.794   4.423  0.00  0.00    -0.359 N 
HETATM    5  H   UNK N   1      21.925  16.011   4.070  0.00  0.00     0.162 HD
BRANCH   4   6
HETATM    6  C   UNK N   1      21.832  18.045   3.876  0.00  0.00     0.122 A 
HETATM    7  C   UNK N   1      21.093  18.808   2.983  0.00  0.00     0.048 A 
HETATM    8  C   UNK N   1      21.873  19.905   2.625  0.00  0.00     0.048 A 
HETATM    9  C   UNK N   1      23.067  19.728   3.305  0.00  0.00     0.041 A 
HETATM   10  C   UNK N   1      24.204  20.529   3.253  0.00  0.00     0.030 A 
HETATM   11  N   UNK N   1      23.039  18.604   4.046  0.00  0.00    -0.308 N 
HETATM   12  C   UNK N   1      25.319  20.124   4.002  0.00  0.00     0.004 A 
HETATM   13  C   UNK N   1      25.270  18.943   4.768  0.00  0.00     0.018 A 
HETATM   14  C   UNK N   1      24.096  18.174   4.780  0.00  0.00     0.099 A 
BRANCH   7  15
HETATM   15  C   UNK N   1      19.757  18.495   2.462  0.00  0.00     0.273 C 
HETATM   16  O   UNK N   1      18.816  19.246   2.666  0.00  0.00    -0.301 OA
ENDBRANCH   7  15
ENDBRANCH   4   6
ENDBRANCH   3   4
BRANCH   3  17
HETATM   17  C   UNK N   1      19.286  15.844   4.674  0.00  0.00     0.165 C 
HETATM   18  O   UNK N   1      19.466  15.273   3.609  0.00  0.00    -0.648 OA
BRANCH  17  19
HETATM   19  O   UNK N   1      18.033  15.951   5.153  0.00  0.00    -0.775 OA
HETATM   20  H   UNK N   1      17.251  15.485   5.376  0.00  0.00     0.167 HD
ENDBRANCH  17  19
ENDBRANCH   3  17
ENDBRANCH   1   3
BRANCH   1  21
HETATM   21  S   UNK N   1      20.264  16.376   8.355  0.00  0.00     0.164 S 
HETATM   22  O   UNK N   1      18.773  16.364   8.006  0.00  0.00    -0.228 OA
BRANCH  21  23
HETATM   23  O   UNK N   1      20.412  18.038   7.935  0.00  0.00    -0.305 OA
HETATM   24  H   UNK N   1      20.744  18.947   7.984  0.00  0.00     0.230 HD
ENDBRANCH  21  23
ENDBRANCH   1  21
BRANCH   1  25
HETATM   25  C   UNK N   1      22.428  15.711   6.905  0.00  0.00     0.206 C 
BRANCH  25  26
HETATM   26  O   UNK N   1      23.019  14.695   6.199  0.00  0.00    -0.319 OA
BRANCH  26  27
HETATM   27  C   UNK N   1      24.170  14.090   6.564  0.00  0.00     0.263 C 
HETATM   28  O   UNK N   1      25.204  14.741   6.529  0.00  0.00    -0.265 OA
BRANCH  27  29
HETATM   29  C   UNK N   1      24.197  12.638   7.002  0.00  0.00     0.149 C 
BRANCH  29  30
HETATM   30  C   UNK N   1      23.770  12.499   8.427  0.00  0.00    -0.046 A 
HETATM   31  C   UNK N   1      22.445  12.172   8.728  0.00  0.00     0.010 A 
HETATM   32  C   UNK N   1      22.070  11.927  10.051  0.00  0.00     0.040 A 
HETATM   33  C   UNK N   1      23.019  12.002  11.076  0.00  0.00     0.098 A 
HETATM   34  C   UNK N   1      24.345  12.345  10.777  0.00  0.00     0.099 A 
HETATM   35  C   UNK N   1      24.718  12.592   9.454  0.00  0.00     0.047 A 
BRANCH  33  36
HETATM   36  O   UNK N   1      22.655  11.739  12.342  0.00  0.00    -0.358 OA
HETATM   37  H   UNK N   1      22.720  12.380  13.022  0.00  0.00     0.217 HD
ENDBRANCH  33  36
BRANCH  34  38
HETATM   38  O   UNK N   1      25.266  12.423  11.754  0.00  0.00    -0.358 OA
HETATM   39  H   UNK N   1      25.781  11.709  12.073  0.00  0.00     0.217 HD
ENDBRANCH  34  38
ENDBRANCH  29  30
ENDBRANCH  27  29
ENDBRANCH  26  27
ENDBRANCH  25  26
ENDBRANCH   1  25
TORSDOF 15
ENDMDL
MODEL 4
REMARK VINA RESULT:      -7.2      9.398     14.157
REMARK  15 active torsions:
REMARK  status: ('A' for Active; 'I' for Inactive)
REMARK    1  A    between atoms: C_3  and  C_2 
REMARK    2  A    between atoms: N_12  and  C_11 
REMARK    3  A    between atoms: C_13  and  N_12 
REMARK    4  A    between atoms: C_13  and  C_14 
REMARK    5  A    between atoms: C_17  and  C_13 
REMARK    6  A    between atoms: C_14  and  O_15 
REMARK    7  A    between atoms: S_18  and  C_17 
REMARK    8  A    between atoms: C_17  and  C_22 
REMARK    9  A    between atoms: S_18  and  O_19 
REMARK   10  A    between atoms: C_22  and  O_23 
REMARK   11  A    between atoms: C_24  and  O_23 
REMARK   12  A    between atoms: C_26  and  C_24 
REMARK   13  A    between atoms: C_27  and  C_26 
REMARK   14  A    between atoms: O_32  and  C_31 
REMARK   15  A    between atoms: O_34  and  C_33 
ROOT
HETATM    1  C   UNK N   1      25.765  17.196   4.516  0.00  0.00     0.111 C 
HETATM    2  C   UNK N   1      25.516  16.441   3.219  0.00  0.00     0.037 C 
ENDROOT
BRANCH   1   3
HETATM    3  C   UNK N   1      27.096  16.684   5.226  0.00  0.00     0.206 C 
BRANCH   3   4
HETATM    4  N   UNK N   1      27.747  17.605   6.156  0.00  0.00    -0.359 N 
HETATM    5  H   UNK N   1      27.248  18.432   6.349  0.00  0.00     0.162 HD
BRANCH   4   6
HETATM    6  C   UNK N   1      28.995  17.480   6.823  0.00  0.00     0.122 A 
HETATM    7  C   UNK N   1      29.195  17.543   8.195  0.00  0.00     0.048 A 
HETATM    8  C   UNK N   1      30.567  17.472   8.421  0.00  0.00     0.048 A 
HETATM    9  C   UNK N   1      31.132  17.400   7.159  0.00  0.00     0.041 A 
HETATM   10  C   UNK N   1      32.483  17.358   6.830  0.00  0.00     0.030 A 
HETATM   11  N   UNK N   1      30.182  17.415   6.203  0.00  0.00    -0.308 N 
HETATM   12  C   UNK N   1      32.822  17.330   5.469  0.00  0.00     0.004 A 
HETATM   13  C   UNK N   1      31.813  17.351   4.486  0.00  0.00     0.018 A 
HETATM   14  C   UNK N   1      30.466  17.394   4.877  0.00  0.00     0.099 A 
BRANCH   7  15
HETATM   15  C   UNK N   1      28.160  17.711   9.223  0.00  0.00     0.273 C 
HETATM   16  O   UNK N   1      27.543  16.747   9.650  0.00  0.00    -0.301 OA
ENDBRANCH   7  15
ENDBRANCH   4   6
ENDBRANCH   3   4
BRANCH   3  17
HETATM   17  C   UNK N   1      26.952  15.379   5.993  0.00  0.00     0.165 C 
HETATM   18  O   UNK N   1      27.316  14.312   5.523  0.00  0.00    -0.648 OA
BRANCH  17  19
HETATM   19  O   UNK N   1      26.348  15.389   7.197  0.00  0.00    -0.775 OA
HETATM   20  H   UNK N   1      26.197  15.883   7.978  0.00  0.00     0.167 HD
ENDBRANCH  17  19
ENDBRANCH   3  17
ENDBRANCH   1   3
BRANCH   1  21
HETATM   21  S   UNK N   1      25.717  19.029   4.143  0.00  0.00     0.164 S 
HETATM   22  O   UNK N   1      27.224  19.246   3.974  0.00  0.00    -0.228 OA
BRANCH  21  23
HETATM   23  O   UNK N   1      25.765  19.545   5.783  0.00  0.00    -0.305 OA
HETATM   24  H   UNK N   1      25.524  19.565   6.722  0.00  0.00     0.230 HD
ENDBRANCH  21  23
ENDBRANCH   1  21
BRANCH   1  25
HETATM   25  C   UNK N   1      24.509  16.953   5.350  0.00  0.00     0.206 C 
BRANCH  25  26
HETATM   26  O   UNK N   1      23.536  17.882   5.080  0.00  0.00    -0.319 OA
BRANCH  26  27
HETATM   27  C   UNK N   1      22.241  17.745   5.437  0.00  0.00     0.263 C 
HETATM   28  O   UNK N   1      21.938  17.938   6.605  0.00  0.00    -0.265 OA
BRANCH  27  29
HETATM   29  C   UNK N   1      21.178  17.353   4.429  0.00  0.00     0.149 C 
BRANCH  29  30
HETATM   30  C   UNK N   1      21.125  18.327   3.297  0.00  0.00    -0.046 A 
HETATM   31  C   UNK N   1      20.561  17.946   2.077  0.00  0.00     0.010 A 
HETATM   32  C   UNK N   1      20.404  18.887   1.056  0.00  0.00     0.040 A 
HETATM   33  C   UNK N   1      20.806  20.212   1.256  0.00  0.00     0.098 A 
HETATM   34  C   UNK N   1      21.387  20.591   2.473  0.00  0.00     0.099 A 
HETATM   35  C   UNK N   1      21.544  19.649   3.491  0.00  0.00     0.047 A 
BRANCH  33  36
HETATM   36  O   UNK N   1      20.627  21.116   0.279  0.00  0.00    -0.358 OA
HETATM   37  H   UNK N   1      20.226  21.948   0.438  0.00  0.00     0.217 HD
ENDBRANCH  33  36
BRANCH  34  38
HETATM   38  O   UNK N   1      21.779  21.861   2.676  0.00  0.00    -0.358 OA
HETATM   39  H   UNK N   1      21.751  22.547   2.038  0.00  0.00     0.217 HD
ENDBRANCH  34  38
ENDBRANCH  29  30
ENDBRANCH  27  29
ENDBRANCH  26  27
ENDBRANCH  25  26
ENDBRANCH   1  25
TORSDOF 15
ENDMDL
MODEL 5
REMARK VINA RESULT:      -7.2     17.139     21.078
REMARK  15 active torsions:
REMARK  status: ('A' for Active; 'I' for Inactive)
REMARK    1  A    between atoms: C_3  and  C_2 
REMARK    2  A    between atoms: N_12  and  C_11 
REMARK    3  A    between atoms: C_13  and  N_12 
REMARK    4  A    between atoms: C_13  and  C_14 
REMARK    5  A    between atoms: C_17  and  C_13 
REMARK    6  A    between atoms: C_14  and  O_15 
REMARK    7  A    between atoms: S_18  and  C_17 
REMARK    8  A    between atoms: C_17  and  C_22 
REMARK    9  A    between atoms: S_18  and  O_19 
REMARK   10  A    between atoms: C_22  and  O_23 
REMARK   11  A    between atoms: C_24  and  O_23 
REMARK   12  A    between atoms: C_26  and  C_24 
REMARK   13  A    between atoms: C_27  and  C_26 
REMARK   14  A    between atoms: O_32  and  C_31 
REMARK   15  A    between atoms: O_34  and  C_33 
ROOT
HETATM    1  C   UNK N   1      26.394  26.508  -4.991  0.00  0.00     0.111 C 
HETATM    2  C   UNK N   1      25.167  26.996  -5.747  0.00  0.00     0.037 C 
ENDROOT
BRANCH   1   3
HETATM    3  C   UNK N   1      27.610  26.253  -5.988  0.00  0.00     0.206 C 
BRANCH   3   4
HETATM    4  N   UNK N   1      27.319  25.510  -7.213  0.00  0.00    -0.359 N 
HETATM    5  H   UNK N   1      26.757  25.983  -7.869  0.00  0.00     0.162 HD
BRANCH   4   6
HETATM    6  C   UNK N   1      27.728  24.204  -7.594  0.00  0.00     0.122 A 
HETATM    7  C   UNK N   1      28.988  23.849  -8.055  0.00  0.00     0.048 A 
HETATM    8  C   UNK N   1      28.940  22.502  -8.408  0.00  0.00     0.048 A 
HETATM    9  C   UNK N   1      27.631  22.119  -8.167  0.00  0.00     0.041 A 
HETATM   10  C   UNK N   1      27.050  20.877  -8.398  0.00  0.00     0.030 A 
HETATM   11  N   UNK N   1      26.907  23.149  -7.687  0.00  0.00    -0.308 N 
HETATM   12  C   UNK N   1      25.683  20.734  -8.115  0.00  0.00     0.004 A 
HETATM   13  C   UNK N   1      24.943  21.825  -7.617  0.00  0.00     0.018 A 
HETATM   14  C   UNK N   1      25.583  23.055  -7.404  0.00  0.00     0.099 A 
BRANCH   7  15
HETATM   15  C   UNK N   1      30.148  24.737  -8.202  0.00  0.00     0.273 C 
HETATM   16  O   UNK N   1      30.064  25.771  -8.844  0.00  0.00    -0.301 OA
ENDBRANCH   7  15
ENDBRANCH   4   6
ENDBRANCH   3   4
BRANCH   3  17
HETATM   17  C   UNK N   1      28.337  27.507  -6.447  0.00  0.00     0.165 C 
HETATM   18  O   UNK N   1      29.412  27.839  -5.971  0.00  0.00    -0.648 OA
BRANCH  17  19
HETATM   19  O   UNK N   1      27.750  28.310  -7.355  0.00  0.00    -0.775 OA
HETATM   20  H   UNK N   1      27.697  29.183  -7.691  0.00  0.00     0.167 HD
ENDBRANCH  17  19
ENDBRANCH   3  17
ENDBRANCH   1   3
BRANCH   1  21
HETATM   21  S   UNK N   1      26.742  27.712  -3.603  0.00  0.00     0.164 S 
HETATM   22  O   UNK N   1      25.937  27.006  -2.508  0.00  0.00    -0.228 OA
BRANCH  21  23
HETATM   23  O   UNK N   1      25.438  28.776  -3.961  0.00  0.00    -0.305 OA
HETATM   24  H   UNK N   1      24.534  29.036  -4.195  0.00  0.00     0.230 HD
ENDBRANCH  21  23
ENDBRANCH   1  21
BRANCH   1  25
HETATM   25  C   UNK N   1      25.928  25.241  -4.277  0.00  0.00     0.206 C 
BRANCH  25  26
HETATM   26  O   UNK N   1      26.894  24.267  -4.295  0.00  0.00    -0.319 OA
BRANCH  26  27
HETATM   27  C   UNK N   1      27.765  24.050  -3.287  0.00  0.00     0.263 C 
HETATM   28  O   UNK N   1      27.328  23.657  -2.215  0.00  0.00    -0.265 OA
BRANCH  27  29
HETATM   29  C   UNK N   1      29.253  24.290  -3.459  0.00  0.00     0.149 C 
BRANCH  29  30
HETATM   30  C   UNK N   1      29.990  23.001  -3.626  0.00  0.00    -0.046 A 
HETATM   31  C   UNK N   1      29.765  22.213  -4.758  0.00  0.00     0.010 A 
HETATM   32  C   UNK N   1      30.536  21.068  -4.976  0.00  0.00     0.040 A 
HETATM   33  C   UNK N   1      31.535  20.711  -4.064  0.00  0.00     0.098 A 
HETATM   34  C   UNK N   1      31.751  21.492  -2.921  0.00  0.00     0.099 A 
HETATM   35  C   UNK N   1      30.979  22.635  -2.704  0.00  0.00     0.047 A 
BRANCH  33  36
HETATM   36  O   UNK N   1      32.289  19.624  -4.295  0.00  0.00    -0.358 OA
HETATM   37  H   UNK N   1      32.270  19.169  -5.114  0.00  0.00     0.217 HD
ENDBRANCH  33  36
BRANCH  34  38
HETATM   38  O   UNK N   1      32.707  21.158  -2.037  0.00  0.00    -0.358 OA
HETATM   39  H   UNK N   1      32.559  20.894  -1.150  0.00  0.00     0.217 HD
ENDBRANCH  34  38
ENDBRANCH  29  30
ENDBRANCH  27  29
ENDBRANCH  26  27
ENDBRANCH  25  26
ENDBRANCH   1  25
TORSDOF 15
ENDMDL
MODEL 6
REMARK VINA RESULT:      -7.2     10.961     14.808
REMARK  15 active torsions:
REMARK  status: ('A' for Active; 'I' for Inactive)
REMARK    1  A    between atoms: C_3  and  C_2 
REMARK    2  A    between atoms: N_12  and  C_11 
REMARK    3  A    between atoms: C_13  and  N_12 
REMARK    4  A    between atoms: C_13  and  C_14 
REMARK    5  A    between atoms: C_17  and  C_13 
REMARK    6  A    between atoms: C_14  and  O_15 
REMARK    7  A    between atoms: S_18  and  C_17 
REMARK    8  A    between atoms: C_17  and  C_22 
REMARK    9  A    between atoms: S_18  and  O_19 
REMARK   10  A    between atoms: C_22  and  O_23 
REMARK   11  A    between atoms: C_24  and  O_23 
REMARK   12  A    between atoms: C_26  and  C_24 
REMARK   13  A    between atoms: C_27  and  C_26 
REMARK   14  A    between atoms: O_32  and  C_31 
REMARK   15  A    between atoms: O_34  and  C_33 
ROOT
HETATM    1  C   UNK N   1      22.354  17.241   4.744  0.00  0.00     0.111 C 
HETATM    2  C   UNK N   1      21.545  18.393   5.323  0.00  0.00     0.037 C 
ENDROOT
BRANCH   1   3
HETATM    3  C   UNK N   1      22.940  16.319   5.903  0.00  0.00     0.206 C 
BRANCH   3   4
HETATM    4  N   UNK N   1      22.149  15.150   6.284  0.00  0.00    -0.359 N 
HETATM    5  H   UNK N   1      21.819  14.603   5.535  0.00  0.00     0.162 HD
BRANCH   4   6
HETATM    6  C   UNK N   1      21.788  14.689   7.578  0.00  0.00     0.122 A 
HETATM    7  C   UNK N   1      20.724  15.152   8.339  0.00  0.00     0.048 A 
HETATM    8  C   UNK N   1      20.782  14.509   9.573  0.00  0.00     0.048 A 
HETATM    9  C   UNK N   1      21.907  13.704   9.502  0.00  0.00     0.041 A 
HETATM   10  C   UNK N   1      22.435  12.887  10.496  0.00  0.00     0.030 A 
HETATM   11  N   UNK N   1      22.512  13.825   8.304  0.00  0.00    -0.308 N 
HETATM   12  C   UNK N   1      23.619  12.192  10.206  0.00  0.00     0.004 A 
HETATM   13  C   UNK N   1      24.237  12.335   8.949  0.00  0.00     0.018 A 
HETATM   14  C   UNK N   1      23.659  13.175   7.985  0.00  0.00     0.099 A 
BRANCH   7  15
HETATM   15  C   UNK N   1      19.747  16.175   7.946  0.00  0.00     0.273 C 
HETATM   16  O   UNK N   1      19.045  16.019   6.960  0.00  0.00    -0.301 OA
ENDBRANCH   7  15
ENDBRANCH   4   6
ENDBRANCH   3   4
BRANCH   3  17
HETATM   17  C   UNK N   1      24.342  15.786   5.651  0.00  0.00     0.165 C 
HETATM   18  O   UNK N   1      24.555  14.887   4.852  0.00  0.00    -0.648 OA
BRANCH  17  19
HETATM   19  O   UNK N   1      25.369  16.272   6.374  0.00  0.00    -0.775 OA
HETATM   20  H   UNK N   1      26.088  16.872   6.383  0.00  0.00     0.167 HD
ENDBRANCH  17  19
ENDBRANCH   3  17
ENDBRANCH   1   3
BRANCH   1  21
HETATM   21  S   UNK N   1      21.291  16.356   3.485  0.00  0.00     0.164 S 
HETATM   22  O   UNK N   1      20.886  17.580   2.657  0.00  0.00    -0.228 OA
BRANCH  21  23
HETATM   23  O   UNK N   1      19.838  16.421   4.403  0.00  0.00    -0.305 OA
HETATM   24  H   UNK N   1      18.945  16.169   4.684  0.00  0.00     0.230 HD
ENDBRANCH  21  23
ENDBRANCH   1  21
BRANCH   1  25
HETATM   25  C   UNK N   1      23.439  17.915   3.908  0.00  0.00     0.206 C 
BRANCH  25  26
HETATM   26  O   UNK N   1      23.587  19.238   4.243  0.00  0.00    -0.319 OA
BRANCH  26  27
HETATM   27  C   UNK N   1      24.088  20.176   3.412  0.00  0.00     0.263 C 
HETATM   28  O   UNK N   1      23.320  21.001   2.937  0.00  0.00    -0.265 OA
BRANCH  27  29
HETATM   29  C   UNK N   1      25.562  20.215   3.057  0.00  0.00     0.149 C 
BRANCH  29  30
HETATM   30  C   UNK N   1      26.411  19.975   4.263  0.00  0.00    -0.046 A 
HETATM   31  C   UNK N   1      26.489  20.947   5.263  0.00  0.00     0.010 A 
HETATM   32  C   UNK N   1      27.188  20.679   6.444  0.00  0.00     0.040 A 
HETATM   33  C   UNK N   1      27.805  19.437   6.628  0.00  0.00     0.098 A 
HETATM   34  C   UNK N   1      27.740  18.468   5.618  0.00  0.00     0.099 A 
HETATM   35  C   UNK N   1      27.044  18.738   4.438  0.00  0.00     0.047 A 
BRANCH  33  36
HETATM   36  O   UNK N   1      28.451  19.178   7.776  0.00  0.00    -0.358 OA
HETATM   37  H   UNK N   1      29.363  18.966   7.797  0.00  0.00     0.217 HD
ENDBRANCH  33  36
BRANCH  34  38
HETATM   38  O   UNK N   1      28.331  17.271   5.782  0.00  0.00    -0.358 OA
HETATM   39  H   UNK N   1      27.953  16.533   6.217  0.00  0.00     0.217 HD
ENDBRANCH  34  38
ENDBRANCH  29  30
ENDBRANCH  27  29
ENDBRANCH  26  27
ENDBRANCH  25  26
ENDBRANCH   1  25
TORSDOF 15
ENDMDL
MODEL 7
REMARK VINA RESULT:      -7.2      3.306      9.022
REMARK  15 active torsions:
REMARK  status: ('A' for Active; 'I' for Inactive)
REMARK    1  A    between atoms: C_3  and  C_2 
REMARK    2  A    between atoms: N_12  and  C_11 
REMARK    3  A    between atoms: C_13  and  N_12 
REMARK    4  A    between atoms: C_13  and  C_14 
REMARK    5  A    between atoms: C_17  and  C_13 
REMARK    6  A    between atoms: C_14  and  O_15 
REMARK    7  A    between atoms: S_18  and  C_17 
REMARK    8  A    between atoms: C_17  and  C_22 
REMARK    9  A    between atoms: S_18  and  O_19 
REMARK   10  A    between atoms: C_22  and  O_23 
REMARK   11  A    between atoms: C_24  and  O_23 
REMARK   12  A    between atoms: C_26  and  C_24 
REMARK   13  A    between atoms: C_27  and  C_26 
REMARK   14  A    between atoms: O_32  and  C_31 
REMARK   15  A    between atoms: O_34  and  C_33 
ROOT
HETATM    1  C   UNK N   1      35.146  14.089   9.626  0.00  0.00     0.111 C 
HETATM    2  C   UNK N   1      36.207  14.305   8.557  0.00  0.00     0.037 C 
ENDROOT
BRANCH   1   3
HETATM    3  C   UNK N   1      35.568  12.915  10.617  0.00  0.00     0.206 C 
BRANCH   3   4
HETATM    4  N   UNK N   1      34.539  12.415  11.528  0.00  0.00    -0.359 N 
HETATM    5  H   UNK N   1      33.620  12.704  11.325  0.00  0.00     0.162 HD
BRANCH   4   6
HETATM    6  C   UNK N   1      34.674  11.573  12.664  0.00  0.00     0.122 A 
HETATM    7  C   UNK N   1      34.304  10.238  12.736  0.00  0.00     0.048 A 
HETATM    8  C   UNK N   1      34.513   9.816  14.046  0.00  0.00     0.048 A 
HETATM    9  C   UNK N   1      34.974  10.939  14.712  0.00  0.00     0.041 A 
HETATM   10  C   UNK N   1      35.289  11.062  16.061  0.00  0.00     0.030 A 
HETATM   11  N   UNK N   1      35.059  11.994  13.878  0.00  0.00    -0.308 N 
HETATM   12  C   UNK N   1      35.699  12.322  16.522  0.00  0.00     0.004 A 
HETATM   13  C   UNK N   1      35.778  13.412  15.634  0.00  0.00     0.018 A 
HETATM   14  C   UNK N   1      35.446  13.229  14.283  0.00  0.00     0.099 A 
BRANCH   7  15
HETATM   15  C   UNK N   1      33.741   9.427  11.649  0.00  0.00     0.273 C 
HETATM   16  O   UNK N   1      33.042   9.937  10.788  0.00  0.00    -0.301 OA
ENDBRANCH   7  15
ENDBRANCH   4   6
ENDBRANCH   3   4
BRANCH   3  17
HETATM   17  C   UNK N   1      36.134  11.677   9.939  0.00  0.00     0.165 C 
HETATM   18  O   UNK N   1      37.302  11.345  10.078  0.00  0.00    -0.648 OA
BRANCH  17  19
HETATM   19  O   UNK N   1      35.347  10.964   9.112  0.00  0.00    -0.775 OA
HETATM   20  H   UNK N   1      34.478  10.857   8.778  0.00  0.00     0.167 HD
ENDBRANCH  17  19
ENDBRANCH   3  17
ENDBRANCH   1   3
BRANCH   1  21
HETATM   21  S   UNK N   1      34.800  15.735  10.446  0.00  0.00     0.164 S 
HETATM   22  O   UNK N   1      35.670  15.535  11.691  0.00  0.00    -0.228 OA
BRANCH  21  23
HETATM   23  O   UNK N   1      33.384  15.224  11.278  0.00  0.00    -0.305 OA
HETATM   24  H   UNK N   1      32.456  15.240  11.559  0.00  0.00     0.230 HD
ENDBRANCH  21  23
ENDBRANCH   1  21
BRANCH   1  25
HETATM   25  C   UNK N   1      33.869  13.786   8.846  0.00  0.00     0.206 C 
BRANCH  25  26
HETATM   26  O   UNK N   1      33.187  14.933   8.527  0.00  0.00    -0.319 OA
BRANCH  26  27
HETATM   27  C   UNK N   1      32.403  15.067   7.437  0.00  0.00     0.263 C 
HETATM   28  O   UNK N   1      31.940  14.057   6.927  0.00  0.00    -0.265 OA
BRANCH  27  29
HETATM   29  C   UNK N   1      32.100  16.429   6.840  0.00  0.00     0.149 C 
BRANCH  29  30
HETATM   30  C   UNK N   1      30.859  17.012   7.435  0.00  0.00    -0.046 A 
HETATM   31  C   UNK N   1      29.620  16.763   6.839  0.00  0.00     0.010 A 
HETATM   32  C   UNK N   1      28.447  17.208   7.456  0.00  0.00     0.040 A 
HETATM   33  C   UNK N   1      28.512  17.898   8.672  0.00  0.00     0.098 A 
HETATM   34  C   UNK N   1      29.756  18.161   9.262  0.00  0.00     0.099 A 
HETATM   35  C   UNK N   1      30.926  17.717   8.643  0.00  0.00     0.047 A 
BRANCH  33  36
HETATM   36  O   UNK N   1      27.379  18.299   9.272  0.00  0.00    -0.358 OA
HETATM   37  H   UNK N   1      26.938  19.087   9.025  0.00  0.00     0.217 HD
ENDBRANCH  33  36
BRANCH  34  38
HETATM   38  O   UNK N   1      29.831  18.825  10.428  0.00  0.00    -0.358 OA
HETATM   39  H   UNK N   1      29.930  18.431  11.273  0.00  0.00     0.217 HD
ENDBRANCH  34  38
ENDBRANCH  29  30
ENDBRANCH  27  29
ENDBRANCH  26  27
ENDBRANCH  25  26
ENDBRANCH   1  25
TORSDOF 15
ENDMDL
MODEL 8
REMARK VINA RESULT:      -7.1      3.311      9.102
REMARK  15 active torsions:
REMARK  status: ('A' for Active; 'I' for Inactive)
REMARK    1  A    between atoms: C_3  and  C_2 
REMARK    2  A    between atoms: N_12  and  C_11 
REMARK    3  A    between atoms: C_13  and  N_12 
REMARK    4  A    between atoms: C_13  and  C_14 
REMARK    5  A    between atoms: C_17  and  C_13 
REMARK    6  A    between atoms: C_14  and  O_15 
REMARK    7  A    between atoms: S_18  and  C_17 
REMARK    8  A    between atoms: C_17  and  C_22 
REMARK    9  A    between atoms: S_18  and  O_19 
REMARK   10  A    between atoms: C_22  and  O_23 
REMARK   11  A    between atoms: C_24  and  O_23 
REMARK   12  A    between atoms: C_26  and  C_24 
REMARK   13  A    between atoms: C_27  and  C_26 
REMARK   14  A    between atoms: O_32  and  C_31 
REMARK   15  A    between atoms: O_34  and  C_33 
ROOT
HETATM    1  C   UNK N   1      34.862  13.606   9.424  0.00  0.00     0.111 C 
HETATM    2  C   UNK N   1      33.773  12.544   9.374  0.00  0.00     0.037 C 
ENDROOT
BRANCH   1   3
HETATM    3  C   UNK N   1      35.678  13.519  10.789  0.00  0.00     0.206 C 
BRANCH   3   4
HETATM    4  N   UNK N   1      35.754  12.208  11.434  0.00  0.00    -0.359 N 
HETATM    5  H   UNK N   1      36.239  11.517  10.926  0.00  0.00     0.162 HD
BRANCH   4   6
HETATM    6  C   UNK N   1      35.230  11.787  12.685  0.00  0.00     0.122 A 
HETATM    7  C   UNK N   1      34.269  10.805  12.875  0.00  0.00     0.048 A 
HETATM    8  C   UNK N   1      33.969  10.771  14.235  0.00  0.00     0.048 A 
HETATM    9  C   UNK N   1      34.752  11.767  14.796  0.00  0.00     0.041 A 
HETATM   10  C   UNK N   1      34.792  12.172  16.126  0.00  0.00     0.030 A 
HETATM   11  N   UNK N   1      35.500  12.379  13.857  0.00  0.00    -0.308 N 
HETATM   12  C   UNK N   1      35.638  13.241  16.455  0.00  0.00     0.004 A 
HETATM   13  C   UNK N   1      36.409  13.871  15.458  0.00  0.00     0.018 A 
HETATM   14  C   UNK N   1      36.327  13.419  14.132  0.00  0.00     0.099 A 
BRANCH   7  15
HETATM   15  C   UNK N   1      33.637   9.986  11.833  0.00  0.00     0.273 C 
HETATM   16  O   UNK N   1      34.306   9.477  10.949  0.00  0.00    -0.301 OA
ENDBRANCH   7  15
ENDBRANCH   4   6
ENDBRANCH   3   4
BRANCH   3  17
HETATM   17  C   UNK N   1      37.116  14.006  10.708  0.00  0.00     0.165 C 
HETATM   18  O   UNK N   1      38.062  13.237  10.781  0.00  0.00    -0.648 OA
BRANCH  17  19
HETATM   19  O   UNK N   1      37.356  15.328  10.620  0.00  0.00    -0.775 OA
HETATM   20  H   UNK N   1      36.978  16.184  10.663  0.00  0.00     0.167 HD
ENDBRANCH  17  19
ENDBRANCH   3  17
ENDBRANCH   1   3
BRANCH   1  21
HETATM   21  S   UNK N   1      35.893  13.459   7.870  0.00  0.00     0.164 S 
HETATM   22  O   UNK N   1      34.832  12.808   6.977  0.00  0.00    -0.228 OA
BRANCH  21  23
HETATM   23  O   UNK N   1      36.587  11.934   8.262  0.00  0.00    -0.305 OA
HETATM   24  H   UNK N   1      36.847  11.009   8.132  0.00  0.00     0.230 HD
ENDBRANCH  21  23
ENDBRANCH   1  21
BRANCH   1  25
HETATM   25  C   UNK N   1      34.118  14.928   9.253  0.00  0.00     0.206 C 
BRANCH  25  26
HETATM   26  O   UNK N   1      34.924  15.895   8.708  0.00  0.00    -0.319 OA
BRANCH  26  27
HETATM   27  C   UNK N   1      34.943  17.181   9.118  0.00  0.00     0.263 C 
HETATM   28  O   UNK N   1      35.361  17.427  10.241  0.00  0.00    -0.265 OA
BRANCH  27  29
HETATM   29  C   UNK N   1      34.454  18.305   8.225  0.00  0.00     0.149 C 
BRANCH  29  30
HETATM   30  C   UNK N   1      33.225  17.900   7.477  0.00  0.00    -0.046 A 
HETATM   31  C   UNK N   1      33.319  17.542   6.129  0.00  0.00     0.010 A 
HETATM   32  C   UNK N   1      32.195  17.052   5.458  0.00  0.00     0.040 A 
HETATM   33  C   UNK N   1      30.978  16.915   6.134  0.00  0.00     0.098 A 
HETATM   34  C   UNK N   1      30.880  17.289   7.481  0.00  0.00     0.099 A 
HETATM   35  C   UNK N   1      32.003  17.780   8.150  0.00  0.00     0.047 A 
BRANCH  33  36
HETATM   36  O   UNK N   1      29.910  16.418   5.488  0.00  0.00    -0.358 OA
HETATM   37  H   UNK N   1      29.099  16.249   5.925  0.00  0.00     0.217 HD
ENDBRANCH  33  36
BRANCH  34  38
HETATM   38  O   UNK N   1      29.715  17.163   8.141  0.00  0.00    -0.358 OA
HETATM   39  H   UNK N   1      28.863  17.233   7.757  0.00  0.00     0.217 HD
ENDBRANCH  34  38
ENDBRANCH  29  30
ENDBRANCH  27  29
ENDBRANCH  26  27
ENDBRANCH  25  26
ENDBRANCH   1  25
TORSDOF 15
ENDMDL
MODEL 9
REMARK VINA RESULT:      -7.1     10.825     13.395
REMARK  15 active torsions:
REMARK  status: ('A' for Active; 'I' for Inactive)
REMARK    1  A    between atoms: C_3  and  C_2 
REMARK    2  A    between atoms: N_12  and  C_11 
REMARK    3  A    between atoms: C_13  and  N_12 
REMARK    4  A    between atoms: C_13  and  C_14 
REMARK    5  A    between atoms: C_17  and  C_13 
REMARK    6  A    between atoms: C_14  and  O_15 
REMARK    7  A    between atoms: S_18  and  C_17 
REMARK    8  A    between atoms: C_17  and  C_22 
REMARK    9  A    between atoms: S_18  and  O_19 
REMARK   10  A    between atoms: C_22  and  O_23 
REMARK   11  A    between atoms: C_24  and  O_23 
REMARK   12  A    between atoms: C_26  and  C_24 
REMARK   13  A    between atoms: C_27  and  C_26 
REMARK   14  A    between atoms: O_32  and  C_31 
REMARK   15  A    between atoms: O_34  and  C_33 
ROOT
HETATM    1  C   UNK N   1      22.221  15.723   4.765  0.00  0.00     0.111 C 
HETATM    2  C   UNK N   1      23.276  14.632   4.653  0.00  0.00     0.037 C 
ENDROOT
BRANCH   1   3
HETATM    3  C   UNK N   1      22.895  17.137   5.057  0.00  0.00     0.206 C 
BRANCH   3   4
HETATM    4  N   UNK N   1      23.680  17.732   3.977  0.00  0.00    -0.359 N 
HETATM    5  H   UNK N   1      23.414  17.466   3.067  0.00  0.00     0.162 HD
BRANCH   4   6
HETATM    6  C   UNK N   1      24.771  18.638   4.049  0.00  0.00     0.122 A 
HETATM    7  C   UNK N   1      24.844  19.876   3.427  0.00  0.00     0.048 A 
HETATM    8  C   UNK N   1      26.113  20.394   3.673  0.00  0.00     0.048 A 
HETATM    9  C   UNK N   1      26.757  19.418   4.415  0.00  0.00     0.041 A 
HETATM   10  C   UNK N   1      28.068  19.426   4.879  0.00  0.00     0.030 A 
HETATM   11  N   UNK N   1      25.949  18.362   4.629  0.00  0.00    -0.308 N 
HETATM   12  C   UNK N   1      28.519  18.296   5.579  0.00  0.00     0.004 A 
HETATM   13  C   UNK N   1      27.658  17.201   5.788  0.00  0.00     0.018 A 
HETATM   14  C   UNK N   1      26.345  17.249   5.295  0.00  0.00     0.099 A 
BRANCH   7  15
HETATM   15  C   UNK N   1      23.801  20.506   2.607  0.00  0.00     0.273 C 
HETATM   16  O   UNK N   1      23.120  21.415   3.056  0.00  0.00    -0.301 OA
ENDBRANCH   7  15
ENDBRANCH   4   6
ENDBRANCH   3   4
BRANCH   3  17
HETATM   17  C   UNK N   1      21.931  18.228   5.496  0.00  0.00     0.165 C 
HETATM   18  O   UNK N   1      21.320  18.911   4.687  0.00  0.00    -0.648 OA
BRANCH  17  19
HETATM   19  O   UNK N   1      21.795  18.494   6.809  0.00  0.00    -0.775 OA
HETATM   20  H   UNK N   1      21.212  18.798   7.476  0.00  0.00     0.167 HD
ENDBRANCH  17  19
ENDBRANCH   3  17
ENDBRANCH   1   3
BRANCH   1  21
HETATM   21  S   UNK N   1      21.145  15.655   3.236  0.00  0.00     0.164 S 
HETATM   22  O   UNK N   1      19.794  15.880   3.922  0.00  0.00    -0.228 OA
BRANCH  21  23
HETATM   23  O   UNK N   1      20.934  13.948   3.245  0.00  0.00    -0.305 OA
HETATM   24  H   UNK N   1      20.456  13.105   3.211  0.00  0.00     0.230 HD
ENDBRANCH  21  23
ENDBRANCH   1  21
BRANCH   1  25
HETATM   25  C   UNK N   1      21.300  15.255   5.889  0.00  0.00     0.206 C 
BRANCH  25  26
HETATM   26  O   UNK N   1      21.257  13.885   5.969  0.00  0.00    -0.319 OA
BRANCH  26  27
HETATM   27  C   UNK N   1      21.045  13.202   7.114  0.00  0.00     0.263 C 
HETATM   28  O   UNK N   1      20.753  12.018   7.038  0.00  0.00    -0.265 OA
BRANCH  27  29
HETATM   29  C   UNK N   1      21.154  13.874   8.470  0.00  0.00     0.149 C 
BRANCH  29  30
HETATM   30  C   UNK N   1      22.227  13.243   9.297  0.00  0.00    -0.046 A 
HETATM   31  C   UNK N   1      23.564  13.359   8.907  0.00  0.00     0.010 A 
HETATM   32  C   UNK N   1      24.578  12.872   9.737  0.00  0.00     0.040 A 
HETATM   33  C   UNK N   1      24.257  12.274  10.960  0.00  0.00     0.098 A 
HETATM   34  C   UNK N   1      22.915  12.144  11.345  0.00  0.00     0.099 A 
HETATM   35  C   UNK N   1      21.904  12.629  10.513  0.00  0.00     0.047 A 
BRANCH  33  36
HETATM   36  O   UNK N   1      25.238  11.833  11.764  0.00  0.00    -0.358 OA
HETATM   37  H   UNK N   1      25.432  10.922  11.859  0.00  0.00     0.217 HD
ENDBRANCH  33  36
BRANCH  34  38
HETATM   38  O   UNK N   1      22.594  11.569  12.517  0.00  0.00    -0.358 OA
HETATM   39  H   UNK N   1      21.745  11.581  12.914  0.00  0.00     0.217 HD
ENDBRANCH  34  38
ENDBRANCH  29  30
ENDBRANCH  27  29
ENDBRANCH  26  27
ENDBRANCH  25  26
ENDBRANCH   1  25
TORSDOF 15
ENDMDL
