MODEL 1
REMARK VINA RESULT:      -7.2      0.000      0.000
REMARK  5 active torsions:
REMARK  status: ('A' for Active; 'I' for Inactive)
REMARK    1  A    between atoms: C_6  and  S_27 
REMARK    2  A    between atoms: C_7  and  N_23 
REMARK    3  A    between atoms: C_8  and  C_14 
REMARK       I    between atoms: C_8  and  N_23 
REMARK    4  A    between atoms: C_13  and  N_22 
REMARK    5  A    between atoms: C_15  and  S_27 
ROOT
HETATM    1  C   UNK N   1      20.311  14.199   9.284  0.00  0.00     0.021 A 
HETATM    2  C   UNK N   1      19.612  15.389   9.444  0.00  0.00     0.031 A 
HETATM    3  C   UNK N   1      21.549  15.167   7.451  0.00  0.00     0.038 A 
HETATM    4  C   UNK N   1      21.283  14.081   8.295  0.00  0.00     0.009 A 
HETATM    5  C   UNK N   1      19.843  16.480   8.602  0.00  0.00     0.043 A 
HETATM    6  C   UNK N   1      20.847  16.383   7.585  0.00  0.00     0.060 A 
ENDROOT
BRANCH   6   7
HETATM    7  C   UNK N   1      21.199  17.503   6.658  0.00  0.00     0.259 C 
HETATM    8  N   UNK N   1      21.473  17.248   5.348  0.00  0.00    -0.303 N 
HETATM    9  H   UNK N   1      21.551  16.309   5.060  0.00  0.00     0.171 HD
HETATM   10  O   UNK N   1      21.279  18.645   7.077  0.00  0.00    -0.267 OA
BRANCH   8  11
HETATM   11  C   UNK N   1      21.653  18.271   4.372  0.00  0.00     0.151 A 
HETATM   12  N   UNK N   1      22.823  18.923   4.172  0.00  0.00    -0.340 N 
HETATM   13  C   UNK N   1      22.729  19.835   3.140  0.00  0.00     0.014 A 
ATOM     14  HN  UNK N   1      23.669  18.760   4.717  1.00  0.00     0.167 HD
HETATM   15  C   UNK N   1      21.485  19.906   2.486  0.00  0.00     0.077 A 
HETATM   16  C   UNK N   1      23.876  20.695   2.749  0.00  0.00     0.068 C 
HETATM   17  S   UNK N   1      20.538  18.797   3.267  0.00  0.00    -0.064 SA
ENDBRANCH   8  11
ENDBRANCH   6   7
BRANCH   5  18
HETATM   18  N   UNK N   1      19.026  17.625   8.804  0.00  0.00    -0.393 N 
HETATM   19  C   UNK N   1      19.303  18.616   9.814  0.00  0.00     0.146 C 
HETATM   20  H   UNK N   1      18.236  17.747   8.229  0.00  0.00     0.159 HD
ENDBRANCH   5  18
BRANCH   4  21
HETATM   21  S   UNK N   1      22.112  12.507   8.031  0.00  0.00    -0.053 SA
BRANCH  21  22
HETATM   22  C   UNK N   1      22.668  12.244   9.725  0.00  0.00     0.166 A 
HETATM   23  N   UNK N   1      21.957  11.613  10.676  0.00  0.00    -0.279 N 
HETATM   24  N   UNK N   1      22.708  11.585  11.769  0.00  0.00    -0.294 N 
ATOM     25  HN  UNK N   1      21.017  11.229  10.576  1.00  0.00     0.189 HD
HETATM   26  C   UNK N   1      23.880  12.188  11.477  0.00  0.00     0.201 A 
ATOM     27  HN  UNK N   1      22.447  11.180  12.669  1.00  0.00     0.187 HD
HETATM   28  N   UNK N   1      23.869  12.603  10.200  0.00  0.00    -0.326 N 
HETATM   29  C   UNK N   1      24.948  13.272   9.494  0.00  0.00     0.159 C 
ENDBRANCH  21  22
ENDBRANCH   4  21
TORSDOF 5
ENDMDL
MODEL 2
REMARK VINA RESULT:      -6.6      3.641      7.383
REMARK  5 active torsions:
REMARK  status: ('A' for Active; 'I' for Inactive)
REMARK    1  A    between atoms: C_6  and  S_27 
REMARK    2  A    between atoms: C_7  and  N_23 
REMARK    3  A    between atoms: C_8  and  C_14 
REMARK       I    between atoms: C_8  and  N_23 
REMARK    4  A    between atoms: C_13  and  N_22 
REMARK    5  A    between atoms: C_15  and  S_27 
ROOT
HETATM    1  C   UNK N   1      25.711  20.209   3.030  0.00  0.00     0.021 A 
HETATM    2  C   UNK N   1      24.384  20.549   2.800  0.00  0.00     0.031 A 
HETATM    3  C   UNK N   1      25.003  18.349   4.397  0.00  0.00     0.038 A 
HETATM    4  C   UNK N   1      26.029  19.109   3.821  0.00  0.00     0.009 A 
HETATM    5  C   UNK N   1      23.341  19.820   3.379  0.00  0.00     0.043 A 
HETATM    6  C   UNK N   1      23.647  18.678   4.189  0.00  0.00     0.060 A 
ENDROOT
BRANCH   6   7
HETATM    7  C   UNK N   1      22.608  17.808   4.821  0.00  0.00     0.259 C 
HETATM    8  N   UNK N   1      22.835  17.246   6.041  0.00  0.00    -0.303 N 
HETATM    9  H   UNK N   1      23.734  17.328   6.434  0.00  0.00     0.171 HD
HETATM   10  O   UNK N   1      21.567  17.568   4.233  0.00  0.00    -0.267 OA
BRANCH   8  11
HETATM   11  C   UNK N   1      21.837  16.546   6.779  0.00  0.00     0.151 A 
HETATM   12  N   UNK N   1      20.770  17.146   7.358  0.00  0.00    -0.340 N 
HETATM   13  C   UNK N   1      19.941  16.230   7.975  0.00  0.00     0.014 A 
ATOM     14  HN  UNK N   1      20.599  18.151   7.340  1.00  0.00     0.167 HD
HETATM   15  C   UNK N   1      20.327  14.880   7.877  0.00  0.00     0.077 A 
HETATM   16  C   UNK N   1      18.717  16.649   8.706  0.00  0.00     0.068 C 
HETATM   17  S   UNK N   1      21.734  14.910   7.005  0.00  0.00    -0.064 SA
ENDBRANCH   8  11
ENDBRANCH   6   7
BRANCH   5  18
HETATM   18  N   UNK N   1      22.024  20.292   3.138  0.00  0.00    -0.393 N 
HETATM   19  C   UNK N   1      21.423  20.304   1.828  0.00  0.00     0.146 C 
HETATM   20  H   UNK N   1      21.496  20.627   3.900  0.00  0.00     0.159 HD
ENDBRANCH   5  18
BRANCH   4  21
HETATM   21  S   UNK N   1      27.749  18.736   4.195  0.00  0.00    -0.053 SA
BRANCH  21  22
HETATM   22  C   UNK N   1      27.677  19.041   5.970  0.00  0.00     0.166 A 
HETATM   23  N   UNK N   1      26.903  19.970   6.558  0.00  0.00    -0.279 N 
HETATM   24  N   UNK N   1      27.096  19.867   7.866  0.00  0.00    -0.294 N 
ATOM     25  HN  UNK N   1      26.284  20.629   6.087  1.00  0.00     0.189 HD
HETATM   26  C   UNK N   1      27.979  18.867   8.073  0.00  0.00     0.201 A 
ATOM     27  HN  UNK N   1      26.656  20.440   8.586  1.00  0.00     0.187 HD
HETATM   28  N   UNK N   1      28.350  18.340   6.894  0.00  0.00    -0.326 N 
HETATM   29  C   UNK N   1      29.263  17.230   6.686  0.00  0.00     0.159 C 
ENDBRANCH  21  22
ENDBRANCH   4  21
TORSDOF 5
ENDMDL
MODEL 3
REMARK VINA RESULT:      -6.5     12.305     16.403
REMARK  5 active torsions:
REMARK  status: ('A' for Active; 'I' for Inactive)
REMARK    1  A    between atoms: C_6  and  S_27 
REMARK    2  A    between atoms: C_7  and  N_23 
REMARK    3  A    between atoms: C_8  and  C_14 
REMARK       I    between atoms: C_8  and  N_23 
REMARK    4  A    between atoms: C_13  and  N_22 
REMARK    5  A    between atoms: C_15  and  S_27 
ROOT
HETATM    1  C   UNK N   1      35.317  14.514   9.130  0.00  0.00     0.021 A 
HETATM    2  C   UNK N   1      36.573  14.144   9.596  0.00  0.00     0.031 A 
HETATM    3  C   UNK N   1      34.429  14.334  11.368  0.00  0.00     0.038 A 
HETATM    4  C   UNK N   1      34.243  14.617  10.009  0.00  0.00     0.009 A 
HETATM    5  C   UNK N   1      36.781  13.837  10.943  0.00  0.00     0.043 A 
HETATM    6  C   UNK N   1      35.690  13.946  11.866  0.00  0.00     0.060 A 
ENDROOT
BRANCH   6   7
HETATM    7  C   UNK N   1      35.815  13.679  13.332  0.00  0.00     0.259 C 
HETATM    8  N   UNK N   1      34.938  12.842  13.953  0.00  0.00    -0.303 N 
HETATM    9  H   UNK N   1      34.160  12.518  13.444  0.00  0.00     0.171 HD
HETATM   10  O   UNK N   1      36.679  14.237  13.987  0.00  0.00    -0.267 OA
BRANCH   8  11
HETATM   11  C   UNK N   1      35.089  12.409  15.303  0.00  0.00     0.151 A 
HETATM   12  N   UNK N   1      35.019  13.239  16.371  0.00  0.00    -0.340 N 
HETATM   13  C   UNK N   1      35.161  12.552  17.560  0.00  0.00     0.014 A 
ATOM     14  HN  UNK N   1      34.879  14.247  16.304  1.00  0.00     0.167 HD
HETATM   15  C   UNK N   1      35.324  11.158  17.457  0.00  0.00     0.077 A 
HETATM   16  C   UNK N   1      35.149  13.249  18.873  0.00  0.00     0.068 C 
HETATM   17  S   UNK N   1      35.292  10.853  15.830  0.00  0.00    -0.064 SA
ENDBRANCH   8  11
ENDBRANCH   6   7
BRANCH   5  18
HETATM   18  N   UNK N   1      38.084  13.401  11.303  0.00  0.00    -0.393 N 
HETATM   19  C   UNK N   1      39.028  12.881  10.345  0.00  0.00     0.146 C 
HETATM   20  H   UNK N   1      38.356  13.457  12.248  0.00  0.00     0.159 HD
ENDBRANCH   5  18
BRANCH   4  21
HETATM   21  S   UNK N   1      32.600  14.999   9.382  0.00  0.00    -0.053 SA
BRANCH  21  22
HETATM   22  C   UNK N   1      33.039  16.482   8.456  0.00  0.00     0.166 A 
HETATM   23  N   UNK N   1      33.412  17.648   9.009  0.00  0.00    -0.279 N 
HETATM   24  N   UNK N   1      33.688  18.481   8.014  0.00  0.00    -0.294 N 
ATOM     25  HN  UNK N   1      33.471  17.856  10.006  1.00  0.00     0.189 HD
HETATM   26  C   UNK N   1      33.494  17.813   6.855  0.00  0.00     0.201 A 
ATOM     27  HN  UNK N   1      33.993  19.450   8.106  1.00  0.00     0.187 HD
HETATM   28  N   UNK N   1      33.090  16.559   7.118  0.00  0.00    -0.326 N 
HETATM   29  C   UNK N   1      32.801  15.518   6.148  0.00  0.00     0.159 C 
ENDBRANCH  21  22
ENDBRANCH   4  21
TORSDOF 5
ENDMDL
MODEL 4
REMARK VINA RESULT:      -6.4      9.041     11.056
REMARK  5 active torsions:
REMARK  status: ('A' for Active; 'I' for Inactive)
REMARK    1  A    between atoms: C_6  and  S_27 
REMARK    2  A    between atoms: C_7  and  N_23 
REMARK    3  A    between atoms: C_8  and  C_14 
REMARK       I    between atoms: C_8  and  N_23 
REMARK    4  A    between atoms: C_13  and  N_22 
REMARK    5  A    between atoms: C_15  and  S_27 
ROOT
HETATM    1  C   UNK N   1      34.678  16.047   6.172  0.00  0.00     0.021 A 
HETATM    2  C   UNK N   1      34.259  15.497   4.967  0.00  0.00     0.031 A 
HETATM    3  C   UNK N   1      32.571  17.209   6.378  0.00  0.00     0.038 A 
HETATM    4  C   UNK N   1      33.839  16.899   6.886  0.00  0.00     0.009 A 
HETATM    5  C   UNK N   1      33.007  15.806   4.428  0.00  0.00     0.043 A 
HETATM    6  C   UNK N   1      32.126  16.673   5.152  0.00  0.00     0.060 A 
ENDROOT
BRANCH   6   7
HETATM    7  C   UNK N   1      30.752  17.037   4.684  0.00  0.00     0.259 C 
HETATM    8  N   UNK N   1      29.802  17.423   5.581  0.00  0.00    -0.303 N 
HETATM    9  H   UNK N   1      30.005  17.341   6.541  0.00  0.00     0.171 HD
HETATM   10  O   UNK N   1      30.463  16.953   3.502  0.00  0.00    -0.267 OA
BRANCH   8  11
HETATM   11  C   UNK N   1      28.530  17.941   5.201  0.00  0.00     0.151 A 
HETATM   12  N   UNK N   1      28.365  19.026   4.409  0.00  0.00    -0.340 N 
HETATM   13  C   UNK N   1      27.030  19.284   4.168  0.00  0.00     0.014 A 
ATOM     14  HN  UNK N   1      29.133  19.584   4.036  1.00  0.00     0.167 HD
HETATM   15  C   UNK N   1      26.111  18.392   4.749  0.00  0.00     0.077 A 
HETATM   16  C   UNK N   1      26.593  20.443   3.348  0.00  0.00     0.068 C 
HETATM   17  S   UNK N   1      27.048  17.300   5.568  0.00  0.00    -0.064 SA
ENDBRANCH   8  11
ENDBRANCH   6   7
BRANCH   5  18
HETATM   18  N   UNK N   1      32.705  15.248   3.158  0.00  0.00    -0.393 N 
HETATM   19  C   UNK N   1      32.283  13.880   2.985  0.00  0.00     0.146 C 
HETATM   20  H   UNK N   1      32.786  15.819   2.360  0.00  0.00     0.159 HD
ENDBRANCH   5  18
BRANCH   4  21
HETATM   21  S   UNK N   1      34.427  17.685   8.393  0.00  0.00    -0.053 SA
BRANCH  21  22
HETATM   22  C   UNK N   1      33.958  16.377   9.541  0.00  0.00     0.166 A 
HETATM   23  N   UNK N   1      32.749  15.791   9.583  0.00  0.00    -0.279 N 
HETATM   24  N   UNK N   1      32.801  14.858  10.525  0.00  0.00    -0.294 N 
ATOM     25  HN  UNK N   1      31.943  16.020   9.002  1.00  0.00     0.189 HD
HETATM   26  C   UNK N   1      34.047  14.871  11.046  0.00  0.00     0.201 A 
ATOM     27  HN  UNK N   1      32.038  14.242  10.805  1.00  0.00     0.187 HD
HETATM   28  N   UNK N   1      34.783  15.816  10.437  0.00  0.00    -0.326 N 
HETATM   29  C   UNK N   1      36.178  16.129  10.690  0.00  0.00     0.159 C 
ENDBRANCH  21  22
ENDBRANCH   4  21
TORSDOF 5
ENDMDL
MODEL 5
REMARK VINA RESULT:      -6.3      8.571     10.111
REMARK  5 active torsions:
REMARK  status: ('A' for Active; 'I' for Inactive)
REMARK    1  A    between atoms: C_6  and  S_27 
REMARK    2  A    between atoms: C_7  and  N_23 
REMARK    3  A    between atoms: C_8  and  C_14 
REMARK       I    between atoms: C_8  and  N_23 
REMARK    4  A    between atoms: C_13  and  N_22 
REMARK    5  A    between atoms: C_15  and  S_27 
ROOT
HETATM    1  C   UNK N   1      32.071  18.196   8.640  0.00  0.00     0.021 A 
HETATM    2  C   UNK N   1      30.708  18.411   8.799  0.00  0.00     0.031 A 
HETATM    3  C   UNK N   1      31.633  16.830   6.697  0.00  0.00     0.038 A 
HETATM    4  C   UNK N   1      32.542  17.413   7.589  0.00  0.00     0.009 A 
HETATM    5  C   UNK N   1      29.779  17.824   7.935  0.00  0.00     0.043 A 
HETATM    6  C   UNK N   1      30.244  17.023   6.842  0.00  0.00     0.060 A 
ENDROOT
BRANCH   6   7
HETATM    7  C   UNK N   1      29.337  16.383   5.839  0.00  0.00     0.259 C 
HETATM    8  N   UNK N   1      29.666  16.389   4.517  0.00  0.00    -0.303 N 
HETATM    9  H   UNK N   1      30.442  16.922   4.230  0.00  0.00     0.171 HD
HETATM   10  O   UNK N   1      28.281  15.887   6.193  0.00  0.00    -0.267 OA
BRANCH   8  11
HETATM   11  C   UNK N   1      28.943  15.662   3.526  0.00  0.00     0.151 A 
HETATM   12  N   UNK N   1      27.693  15.985   3.119  0.00  0.00    -0.340 N 
HETATM   13  C   UNK N   1      27.246  15.140   2.123  0.00  0.00     0.014 A 
ATOM     14  HN  UNK N   1      27.148  16.758   3.501  1.00  0.00     0.167 HD
HETATM   15  C   UNK N   1      28.146  14.142   1.706  0.00  0.00     0.077 A 
HETATM   16  C   UNK N   1      25.889  15.274   1.532  0.00  0.00     0.068 C 
HETATM   17  S   UNK N   1      29.490  14.373   2.644  0.00  0.00    -0.064 SA
ENDBRANCH   8  11
ENDBRANCH   6   7
BRANCH   5  18
HETATM   18  N   UNK N   1      28.407  18.049   8.227  0.00  0.00    -0.393 N 
HETATM   19  C   UNK N   1      27.724  17.402   9.320  0.00  0.00     0.146 C 
HETATM   20  H   UNK N   1      27.900  18.673   7.659  0.00  0.00     0.159 HD
ENDBRANCH   5  18
BRANCH   4  21
HETATM   21  S   UNK N   1      34.300  17.058   7.449  0.00  0.00    -0.053 SA
BRANCH  21  22
HETATM   22  C   UNK N   1      34.560  16.478   9.135  0.00  0.00     0.166 A 
HETATM   23  N   UNK N   1      35.015  17.238  10.146  0.00  0.00    -0.279 N 
HETATM   24  N   UNK N   1      35.036  16.473  11.230  0.00  0.00    -0.294 N 
ATOM     25  HN  UNK N   1      35.292  18.218  10.091  1.00  0.00     0.189 HD
HETATM   26  C   UNK N   1      34.582  15.251  10.878  0.00  0.00     0.201 A 
ATOM     27  HN  UNK N   1      35.339  16.757  12.162  1.00  0.00     0.187 HD
HETATM   28  N   UNK N   1      34.278  15.241   9.569  0.00  0.00    -0.326 N 
HETATM   29  C   UNK N   1      33.736  14.127   8.811  0.00  0.00     0.159 C 
ENDBRANCH  21  22
ENDBRANCH   4  21
TORSDOF 5
ENDMDL
MODEL 6
REMARK VINA RESULT:      -6.3     11.443     15.374
REMARK  5 active torsions:
REMARK  status: ('A' for Active; 'I' for Inactive)
REMARK    1  A    between atoms: C_6  and  S_27 
REMARK    2  A    between atoms: C_7  and  N_23 
REMARK    3  A    between atoms: C_8  and  C_14 
REMARK       I    between atoms: C_8  and  N_23 
REMARK    4  A    between atoms: C_13  and  N_22 
REMARK    5  A    between atoms: C_15  and  S_27 
ROOT
HETATM    1  C   UNK N   1      34.887  15.404   6.929  0.00  0.00     0.021 A 
HETATM    2  C   UNK N   1      35.315  14.129   7.280  0.00  0.00     0.031 A 
HETATM    3  C   UNK N   1      34.659  15.973   9.265  0.00  0.00     0.038 A 
HETATM    4  C   UNK N   1      34.563  16.332   7.914  0.00  0.00     0.009 A 
HETATM    5  C   UNK N   1      35.400  13.738   8.619  0.00  0.00     0.043 A 
HETATM    6  C   UNK N   1      35.080  14.683   9.648  0.00  0.00     0.060 A 
ENDROOT
BRANCH   6   7
HETATM    7  C   UNK N   1      35.175  14.380  11.110  0.00  0.00     0.259 C 
HETATM    8  N   UNK N   1      36.363  13.996  11.654  0.00  0.00    -0.303 N 
HETATM    9  H   UNK N   1      37.117  13.809  11.048  0.00  0.00     0.171 HD
HETATM   10  O   UNK N   1      34.182  14.438  11.815  0.00  0.00    -0.267 OA
BRANCH   8  11
HETATM   11  C   UNK N   1      36.573  13.852  13.056  0.00  0.00     0.151 A 
HETATM   12  N   UNK N   1      36.789  14.892  13.896  0.00  0.00    -0.340 N 
HETATM   13  C   UNK N   1      36.920  14.472  15.205  0.00  0.00     0.014 A 
ATOM     14  HN  UNK N   1      36.848  15.865  13.598  1.00  0.00     0.167 HD
HETATM   15  C   UNK N   1      36.788  13.090  15.430  0.00  0.00     0.077 A 
HETATM   16  C   UNK N   1      37.193  15.428  16.309  0.00  0.00     0.068 C 
HETATM   17  S   UNK N   1      36.515  12.446  13.929  0.00  0.00    -0.064 SA
ENDBRANCH   8  11
ENDBRANCH   6   7
BRANCH   5  18
HETATM   18  N   UNK N   1      35.779  12.392   8.867  0.00  0.00    -0.393 N 
HETATM   19  C   UNK N   1      37.155  11.963   8.910  0.00  0.00     0.146 C 
HETATM   20  H   UNK N   1      35.073  11.723   9.018  0.00  0.00     0.159 HD
ENDBRANCH   5  18
BRANCH   4  21
HETATM   21  S   UNK N   1      33.915  17.946   7.452  0.00  0.00    -0.053 SA
BRANCH  21  22
HETATM   22  C   UNK N   1      32.200  17.658   7.929  0.00  0.00     0.166 A 
HETATM   23  N   UNK N   1      31.690  17.914   9.146  0.00  0.00    -0.279 N 
HETATM   24  N   UNK N   1      30.400  17.610   9.099  0.00  0.00    -0.294 N 
ATOM     25  HN  UNK N   1      32.199  18.273   9.954  1.00  0.00     0.189 HD
HETATM   26  C   UNK N   1      30.125  17.181   7.848  0.00  0.00     0.201 A 
ATOM     27  HN  UNK N   1      29.735  17.686   9.868  1.00  0.00     0.187 HD
HETATM   28  N   UNK N   1      31.243  17.209   7.104  0.00  0.00    -0.326 N 
HETATM   29  C   UNK N   1      31.364  16.851   5.702  0.00  0.00     0.159 C 
ENDBRANCH  21  22
ENDBRANCH   4  21
TORSDOF 5
ENDMDL
MODEL 7
REMARK VINA RESULT:      -6.2      9.226     12.668
REMARK  5 active torsions:
REMARK  status: ('A' for Active; 'I' for Inactive)
REMARK    1  A    between atoms: C_6  and  S_27 
REMARK    2  A    between atoms: C_7  and  N_23 
REMARK    3  A    between atoms: C_8  and  C_14 
REMARK       I    between atoms: C_8  and  N_23 
REMARK    4  A    between atoms: C_13  and  N_22 
REMARK    5  A    between atoms: C_15  and  S_27 
ROOT
HETATM    1  C   UNK N   1      29.757  17.564   5.001  0.00  0.00     0.021 A 
HETATM    2  C   UNK N   1      30.942  17.407   4.292  0.00  0.00     0.031 A 
HETATM    3  C   UNK N   1      30.961  17.300   7.077  0.00  0.00     0.038 A 
HETATM    4  C   UNK N   1      29.759  17.518   6.392  0.00  0.00     0.009 A 
HETATM    5  C   UNK N   1      32.151  17.168   4.950  0.00  0.00     0.043 A 
HETATM    6  C   UNK N   1      32.176  17.126   6.382  0.00  0.00     0.060 A 
ENDROOT
BRANCH   6   7
HETATM    7  C   UNK N   1      33.421  16.916   7.184  0.00  0.00     0.259 C 
HETATM    8  N   UNK N   1      33.379  16.196   8.339  0.00  0.00    -0.303 N 
HETATM    9  H   UNK N   1      32.499  15.925   8.689  0.00  0.00     0.171 HD
HETATM   10  O   UNK N   1      34.473  17.419   6.828  0.00  0.00    -0.267 OA
BRANCH   8  11
HETATM   11  C   UNK N   1      34.543  15.814   9.068  0.00  0.00     0.151 A 
HETATM   12  N   UNK N   1      35.416  14.868   8.648  0.00  0.00    -0.340 N 
HETATM   13  C   UNK N   1      36.473  14.725   9.524  0.00  0.00     0.014 A 
ATOM     14  HN  UNK N   1      35.306  14.328   7.790  1.00  0.00     0.167 HD
HETATM   15  C   UNK N   1      36.468  15.573  10.647  0.00  0.00     0.077 A 
HETATM   16  C   UNK N   1      37.550  13.726   9.296  0.00  0.00     0.068 C 
HETATM   17  S   UNK N   1      35.092  16.477  10.481  0.00  0.00    -0.064 SA
ENDBRANCH   8  11
ENDBRANCH   6   7
BRANCH   5  18
HETATM   18  N   UNK N   1      33.291  16.950   4.130  0.00  0.00    -0.393 N 
HETATM   19  C   UNK N   1      33.302  16.007   3.040  0.00  0.00     0.146 C 
HETATM   20  H   UNK N   1      34.109  17.467   4.314  0.00  0.00     0.159 HD
ENDBRANCH   5  18
BRANCH   4  21
HETATM   21  S   UNK N   1      28.209  17.623   7.299  0.00  0.00    -0.053 SA
BRANCH  21  22
HETATM   22  C   UNK N   1      27.517  19.037   6.421  0.00  0.00     0.166 A 
HETATM   23  N   UNK N   1      27.873  20.317   6.627  0.00  0.00    -0.279 N 
HETATM   24  N   UNK N   1      27.178  21.057   5.774  0.00  0.00    -0.294 N 
ATOM     25  HN  UNK N   1      28.550  20.655   7.311  1.00  0.00     0.189 HD
HETATM   26  C   UNK N   1      26.408  20.224   5.041  0.00  0.00     0.201 A 
ATOM     27  HN  UNK N   1      27.218  22.073   5.686  1.00  0.00     0.187 HD
HETATM   28  N   UNK N   1      26.612  18.956   5.434  0.00  0.00    -0.326 N 
HETATM   29  C   UNK N   1      25.997  17.763   4.879  0.00  0.00     0.159 C 
ENDBRANCH  21  22
ENDBRANCH   4  21
TORSDOF 5
ENDMDL
MODEL 8
REMARK VINA RESULT:      -6.1      3.120      5.703
REMARK  5 active torsions:
REMARK  status: ('A' for Active; 'I' for Inactive)
REMARK    1  A    between atoms: C_6  and  S_27 
REMARK    2  A    between atoms: C_7  and  N_23 
REMARK    3  A    between atoms: C_8  and  C_14 
REMARK       I    between atoms: C_8  and  N_23 
REMARK    4  A    between atoms: C_13  and  N_22 
REMARK    5  A    between atoms: C_15  and  S_27 
ROOT
HETATM    1  C   UNK N   1      19.517  17.361   3.350  0.00  0.00     0.021 A 
HETATM    2  C   UNK N   1      19.757  18.574   2.715  0.00  0.00     0.031 A 
HETATM    3  C   UNK N   1      21.717  17.440   4.342  0.00  0.00     0.038 A 
HETATM    4  C   UNK N   1      20.489  16.791   4.168  0.00  0.00     0.009 A 
HETATM    5  C   UNK N   1      20.982  19.232   2.855  0.00  0.00     0.043 A 
HETATM    6  C   UNK N   1      21.991  18.666   3.701  0.00  0.00     0.060 A 
ENDROOT
BRANCH   6   7
HETATM    7  C   UNK N   1      23.320  19.308   3.950  0.00  0.00     0.259 C 
HETATM    8  N   UNK N   1      24.222  18.715   4.781  0.00  0.00    -0.303 N 
HETATM    9  H   UNK N   1      23.934  17.929   5.299  0.00  0.00     0.171 HD
HETATM   10  O   UNK N   1      23.588  20.382   3.440  0.00  0.00    -0.267 OA
BRANCH   8  11
HETATM   11  C   UNK N   1      25.562  19.175   4.938  0.00  0.00     0.151 A 
HETATM   12  N   UNK N   1      25.906  20.245   5.693  0.00  0.00    -0.340 N 
HETATM   13  C   UNK N   1      27.272  20.444   5.702  0.00  0.00     0.014 A 
ATOM     14  HN  UNK N   1      25.238  20.831   6.193  1.00  0.00     0.167 HD
HETATM   15  C   UNK N   1      28.039  19.519   4.971  0.00  0.00     0.077 A 
HETATM   16  C   UNK N   1      27.893  21.576   6.438  0.00  0.00     0.068 C 
HETATM   17  S   UNK N   1      26.930  18.475   4.323  0.00  0.00    -0.064 SA
ENDBRANCH   8  11
ENDBRANCH   6   7
BRANCH   5  18
HETATM   18  N   UNK N   1      21.152  20.428   2.108  0.00  0.00    -0.393 N 
HETATM   19  C   UNK N   1      20.687  20.576   0.752  0.00  0.00     0.146 C 
HETATM   20  H   UNK N   1      21.606  21.190   2.536  0.00  0.00     0.159 HD
ENDBRANCH   5  18
BRANCH   4  21
HETATM   21  S   UNK N   1      20.208  15.174   4.905  0.00  0.00    -0.053 SA
BRANCH  21  22
HETATM   22  C   UNK N   1      20.184  15.701   6.629  0.00  0.00     0.166 A 
HETATM   23  N   UNK N   1      19.211  16.438   7.192  0.00  0.00    -0.279 N 
HETATM   24  N   UNK N   1      19.527  16.587   8.472  0.00  0.00    -0.294 N 
ATOM     25  HN  UNK N   1      18.386  16.812   6.724  1.00  0.00     0.189 HD
HETATM   26  C   UNK N   1      20.687  15.929   8.687  0.00  0.00     0.201 A 
ATOM     27  HN  UNK N   1      18.991  17.105   9.168  1.00  0.00     0.187 HD
HETATM   28  N   UNK N   1      21.108  15.367   7.542  0.00  0.00    -0.326 N 
HETATM   29  C   UNK N   1      22.297  14.554   7.358  0.00  0.00     0.159 C 
ENDBRANCH  21  22
ENDBRANCH   4  21
TORSDOF 5
ENDMDL
MODEL 9
REMARK VINA RESULT:      -6.1      8.921     12.557
REMARK  5 active torsions:
REMARK  status: ('A' for Active; 'I' for Inactive)
REMARK    1  A    between atoms: C_6  and  S_27 
REMARK    2  A    between atoms: C_7  and  N_23 
REMARK    3  A    between atoms: C_8  and  C_14 
REMARK       I    between atoms: C_8  and  N_23 
REMARK    4  A    between atoms: C_13  and  N_22 
REMARK    5  A    between atoms: C_15  and  S_27 
ROOT
HETATM    1  C   UNK N   1      30.165  17.256   5.835  0.00  0.00     0.021 A 
HETATM    2  C   UNK N   1      31.151  16.471   5.250  0.00  0.00     0.031 A 
HETATM    3  C   UNK N   1      31.133  16.860   8.011  0.00  0.00     0.038 A 
HETATM    4  C   UNK N   1      30.152  17.460   7.212  0.00  0.00     0.009 A 
HETATM    5  C   UNK N   1      32.129  15.844   6.027  0.00  0.00     0.043 A 
HETATM    6  C   UNK N   1      32.139  16.049   7.445  0.00  0.00     0.060 A 
ENDROOT
BRANCH   6   7
HETATM    7  C   UNK N   1      33.164  15.458   8.361  0.00  0.00     0.259 C 
HETATM    8  N   UNK N   1      33.414  16.032   9.571  0.00  0.00    -0.303 N 
HETATM    9  H   UNK N   1      32.997  16.901   9.771  0.00  0.00     0.171 HD
HETATM   10  O   UNK N   1      33.806  14.481   8.015  0.00  0.00    -0.267 OA
BRANCH   8  11
HETATM   11  C   UNK N   1      34.248  15.438  10.562  0.00  0.00     0.151 A 
HETATM   12  N   UNK N   1      34.026  14.215  11.098  0.00  0.00    -0.340 N 
HETATM   13  C   UNK N   1      35.008  13.869  12.004  0.00  0.00     0.014 A 
ATOM     14  HN  UNK N   1      33.230  13.622  10.861  1.00  0.00     0.167 HD
HETATM   15  C   UNK N   1      36.042  14.805  12.187  0.00  0.00     0.077 A 
HETATM   16  C   UNK N   1      34.969  12.583  12.748  0.00  0.00     0.068 C 
HETATM   17  S   UNK N   1      35.652  16.060  11.180  0.00  0.00    -0.064 SA
ENDBRANCH   8  11
ENDBRANCH   6   7
BRANCH   5  18
HETATM   18  N   UNK N   1      33.048  15.007   5.340  0.00  0.00    -0.393 N 
HETATM   19  C   UNK N   1      33.529  15.297   4.012  0.00  0.00     0.146 C 
HETATM   20  H   UNK N   1      33.372  14.193   5.790  0.00  0.00     0.159 HD
ENDBRANCH   5  18
BRANCH   4  21
HETATM   21  S   UNK N   1      28.815  18.395   7.972  0.00  0.00    -0.053 SA
BRANCH  21  22
HETATM   22  C   UNK N   1      27.535  17.998   6.767  0.00  0.00     0.166 A 
HETATM   23  N   UNK N   1      26.785  16.883   6.784  0.00  0.00    -0.279 N 
HETATM   24  N   UNK N   1      25.936  16.968   5.768  0.00  0.00    -0.294 N 
ATOM     25  HN  UNK N   1      26.855  16.114   7.451  1.00  0.00     0.189 HD
HETATM   26  C   UNK N   1      26.164  18.143   5.141  0.00  0.00     0.201 A 
ATOM     27  HN  UNK N   1      25.237  16.272   5.507  1.00  0.00     0.187 HD
HETATM   28  N   UNK N   1      27.161  18.799   5.758  0.00  0.00    -0.326 N 
HETATM   29  C   UNK N   1      27.688  20.106   5.410  0.00  0.00     0.159 C 
ENDBRANCH  21  22
ENDBRANCH   4  21
TORSDOF 5
ENDMDL
