MODEL 1
REMARK VINA RESULT:      -6.3      0.000      0.000
REMARK  9 active torsions:
REMARK  status: ('A' for Active; 'I' for Inactive)
REMARK    1  A    between atoms: C_1  and  C_5 
REMARK    2  A    between atoms: C_5  and  C_7 
REMARK    3  A    between atoms: C_7  and  C_8 
REMARK    4  A    between atoms: C_7  and  N_15 
REMARK    5  A    between atoms: C_8  and  C_9 
REMARK       I    between atoms: N_15  and  C_16 
REMARK    6  A    between atoms: C_16  and  C_18 
REMARK    7  A    between atoms: C_18  and  N_19 
REMARK    8  A    between atoms: C_18  and  C_23 
REMARK       I    between atoms: N_19  and  C_20 
REMARK    9  A    between atoms: C_23  and  C_24 
ROOT
HETATM    1  C   UNK N   1      26.136  24.746  -5.614  0.00  0.00     0.168 C 
ENDROOT
BRANCH   1   2
HETATM    2  C   UNK N   1      26.892  24.469  -4.331  0.00  0.00     0.255 C 
HETATM    3  O   UNK N   1      26.281  24.028  -3.369  0.00  0.00    -0.286 OA
BRANCH   2   4
HETATM    4  C   UNK N   1      28.355  24.810  -4.169  0.00  0.00     0.453 C 
HETATM    5  F   UNK N   1      28.489  26.084  -3.652  0.00  0.00    -0.163 F 
HETATM    6  F   UNK N   1      28.961  24.769  -5.410  0.00  0.00    -0.163 F 
HETATM    7  F   UNK N   1      29.008  23.916  -3.339  0.00  0.00    -0.163 F 
ENDBRANCH   2   4
ENDBRANCH   1   2
BRANCH   1   8
HETATM    8  C   UNK N   1      25.264  26.019  -5.643  0.00  0.00     0.072 C 
BRANCH   8   9
HETATM    9  C   UNK N   1      25.921  27.336  -5.373  0.00  0.00    -0.056 A 
HETATM   10  C   UNK N   1      26.915  27.811  -6.235  0.00  0.00     0.007 A 
HETATM   11  C   UNK N   1      27.548  29.029  -5.969  0.00  0.00     0.001 A 
HETATM   12  C   UNK N   1      27.197  29.767  -4.833  0.00  0.00     0.000 A 
HETATM   13  C   UNK N   1      26.220  29.283  -3.960  0.00  0.00     0.001 A 
HETATM   14  C   UNK N   1      25.588  28.066  -4.225  0.00  0.00     0.007 A 
ENDBRANCH   8   9
ENDBRANCH   1   8
BRANCH   1  15
HETATM   15  N   UNK N   1      25.315  23.590  -5.917  0.00  0.00    -0.347 N 
HETATM   16  C   UNK N   1      25.458  22.708  -6.948  0.00  0.00     0.241 C 
HETATM   17  O   UNK N   1      24.612  21.838  -7.079  0.00  0.00    -0.271 OA
HETATM   18  H   UNK N   1      24.563  23.421  -5.306  0.00  0.00     0.163 HD
BRANCH  16  19
HETATM   19  C   UNK N   1      26.615  22.749  -7.944  0.00  0.00     0.177 C 
BRANCH  19  20
HETATM   20  N   UNK N   1      27.119  21.413  -8.211  0.00  0.00    -0.348 N 
HETATM   21  C   UNK N   1      28.273  20.915  -7.696  0.00  0.00     0.214 C 
HETATM   22  O   UNK N   1      28.601  19.770  -7.960  0.00  0.00    -0.274 OA
HETATM   23  C   UNK N   1      29.178  21.748  -6.847  0.00  0.00     0.117 C 
HETATM   24  H   UNK N   1      26.589  20.830  -8.801  0.00  0.00     0.163 HD
ENDBRANCH  19  20
BRANCH  19  25
HETATM   25  C   UNK N   1      26.147  23.401  -9.251  0.00  0.00     0.038 C 
BRANCH  25  26
HETATM   26  C   UNK N   1      26.778  24.753  -9.557  0.00  0.00    -0.020 C 
HETATM   27  C   UNK N   1      28.023  24.957  -8.716  0.00  0.00     0.009 C 
HETATM   28  C   UNK N   1      25.780  25.844  -9.240  0.00  0.00     0.009 C 
ENDBRANCH  25  26
ENDBRANCH  19  25
ENDBRANCH  16  19
ENDBRANCH   1  15
TORSDOF 9
ENDMDL
MODEL 2
REMARK VINA RESULT:      -6.0      2.921      4.624
REMARK  9 active torsions:
REMARK  status: ('A' for Active; 'I' for Inactive)
REMARK    1  A    between atoms: C_1  and  C_5 
REMARK    2  A    between atoms: C_5  and  C_7 
REMARK    3  A    between atoms: C_7  and  C_8 
REMARK    4  A    between atoms: C_7  and  N_15 
REMARK    5  A    between atoms: C_8  and  C_9 
REMARK       I    between atoms: N_15  and  C_16 
REMARK    6  A    between atoms: C_16  and  C_18 
REMARK    7  A    between atoms: C_18  and  N_19 
REMARK    8  A    between atoms: C_18  and  C_23 
REMARK       I    between atoms: N_19  and  C_20 
REMARK    9  A    between atoms: C_23  and  C_24 
ROOT
HETATM    1  C   UNK N   1      26.460  26.968  -4.669  0.00  0.00     0.168 C 
ENDROOT
BRANCH   1   2
HETATM    2  C   UNK N   1      26.263  28.265  -3.910  0.00  0.00     0.255 C 
HETATM    3  O   UNK N   1      25.455  28.296  -2.994  0.00  0.00    -0.286 OA
BRANCH   2   4
HETATM    4  C   UNK N   1      26.959  29.546  -4.311  0.00  0.00     0.453 C 
HETATM    5  F   UNK N   1      27.198  29.548  -5.671  0.00  0.00    -0.163 F 
HETATM    6  F   UNK N   1      28.168  29.621  -3.647  0.00  0.00    -0.163 F 
HETATM    7  F   UNK N   1      26.215  30.665  -3.983  0.00  0.00    -0.163 F 
ENDBRANCH   2   4
ENDBRANCH   1   2
BRANCH   1   8
HETATM    8  C   UNK N   1      25.618  26.781  -5.948  0.00  0.00     0.072 C 
BRANCH   8   9
HETATM    9  C   UNK N   1      26.332  26.551  -7.242  0.00  0.00    -0.056 A 
HETATM   10  C   UNK N   1      27.455  27.319  -7.567  0.00  0.00     0.007 A 
HETATM   11  C   UNK N   1      28.107  27.123  -8.789  0.00  0.00     0.001 A 
HETATM   12  C   UNK N   1      27.629  26.169  -9.693  0.00  0.00     0.000 A 
HETATM   13  C   UNK N   1      26.495  25.416  -9.379  0.00  0.00     0.001 A 
HETATM   14  C   UNK N   1      25.842  25.612  -8.159  0.00  0.00     0.007 A 
ENDBRANCH   8   9
ENDBRANCH   1   8
BRANCH   1  15
HETATM   15  N   UNK N   1      26.211  25.867  -3.760  0.00  0.00    -0.347 N 
HETATM   16  C   UNK N   1      26.901  24.694  -3.657  0.00  0.00     0.241 C 
HETATM   17  O   UNK N   1      26.486  23.853  -2.877  0.00  0.00    -0.271 OA
HETATM   18  H   UNK N   1      25.454  25.978  -3.143  0.00  0.00     0.163 HD
BRANCH  16  19
HETATM   19  C   UNK N   1      28.159  24.377  -4.462  0.00  0.00     0.177 C 
BRANCH  19  20
HETATM   20  N   UNK N   1      29.118  23.637  -3.658  0.00  0.00    -0.348 N 
HETATM   21  C   UNK N   1      30.271  24.162  -3.170  0.00  0.00     0.214 C 
HETATM   22  O   UNK N   1      31.002  23.467  -2.484  0.00  0.00    -0.274 OA
HETATM   23  C   UNK N   1      30.693  25.560  -3.486  0.00  0.00     0.117 C 
HETATM   24  H   UNK N   1      28.917  22.695  -3.454  0.00  0.00     0.163 HD
ENDBRANCH  19  20
BRANCH  19  25
HETATM   25  C   UNK N   1      27.783  23.564  -5.707  0.00  0.00     0.038 C 
BRANCH  25  26
HETATM   26  C   UNK N   1      28.958  23.145  -6.580  0.00  0.00    -0.020 C 
HETATM   27  C   UNK N   1      29.709  24.365  -7.075  0.00  0.00     0.009 C 
HETATM   28  C   UNK N   1      28.433  22.368  -7.767  0.00  0.00     0.009 C 
ENDBRANCH  25  26
ENDBRANCH  19  25
ENDBRANCH  16  19
ENDBRANCH   1  15
TORSDOF 9
ENDMDL
MODEL 3
REMARK VINA RESULT:      -6.0      3.009      5.431
REMARK  9 active torsions:
REMARK  status: ('A' for Active; 'I' for Inactive)
REMARK    1  A    between atoms: C_1  and  C_5 
REMARK    2  A    between atoms: C_5  and  C_7 
REMARK    3  A    between atoms: C_7  and  C_8 
REMARK    4  A    between atoms: C_7  and  N_15 
REMARK    5  A    between atoms: C_8  and  C_9 
REMARK       I    between atoms: N_15  and  C_16 
REMARK    6  A    between atoms: C_16  and  C_18 
REMARK    7  A    between atoms: C_18  and  N_19 
REMARK    8  A    between atoms: C_18  and  C_23 
REMARK       I    between atoms: N_19  and  C_20 
REMARK    9  A    between atoms: C_23  and  C_24 
ROOT
HETATM    1  C   UNK N   1      26.498  25.420  -4.315  0.00  0.00     0.168 C 
ENDROOT
BRANCH   1   2
HETATM    2  C   UNK N   1      26.070  26.775  -3.789  0.00  0.00     0.255 C 
HETATM    3  O   UNK N   1      25.977  26.938  -2.582  0.00  0.00    -0.286 OA
BRANCH   2   4
HETATM    4  C   UNK N   1      25.659  27.903  -4.709  0.00  0.00     0.453 C 
HETATM    5  F   UNK N   1      24.396  27.665  -5.214  0.00  0.00    -0.163 F 
HETATM    6  F   UNK N   1      26.554  27.967  -5.760  0.00  0.00    -0.163 F 
HETATM    7  F   UNK N   1      25.663  29.127  -4.064  0.00  0.00    -0.163 F 
ENDBRANCH   2   4
ENDBRANCH   1   2
BRANCH   1   8
HETATM    8  C   UNK N   1      25.496  24.686  -5.231  0.00  0.00     0.072 C 
BRANCH   8   9
HETATM    9  C   UNK N   1      26.009  24.062  -6.490  0.00  0.00    -0.056 A 
HETATM   10  C   UNK N   1      26.481  24.869  -7.529  0.00  0.00     0.007 A 
HETATM   11  C   UNK N   1      26.935  24.287  -8.717  0.00  0.00     0.001 A 
HETATM   12  C   UNK N   1      26.907  22.897  -8.871  0.00  0.00     0.000 A 
HETATM   13  C   UNK N   1      26.416  22.090  -7.841  0.00  0.00     0.001 A 
HETATM   14  C   UNK N   1      25.960  22.672  -6.655  0.00  0.00     0.007 A 
ENDBRANCH   8   9
ENDBRANCH   1   8
BRANCH   1  15
HETATM   15  N   UNK N   1      26.828  24.577  -3.183  0.00  0.00    -0.347 N 
HETATM   16  C   UNK N   1      27.984  23.886  -2.963  0.00  0.00     0.241 C 
HETATM   17  O   UNK N   1      28.040  23.164  -1.981  0.00  0.00    -0.271 OA
HETATM   18  H   UNK N   1      26.135  24.491  -2.491  0.00  0.00     0.163 HD
BRANCH  16  19
HETATM   19  C   UNK N   1      29.206  23.967  -3.874  0.00  0.00     0.177 C 
BRANCH  19  20
HETATM   20  N   UNK N   1      30.245  24.791  -3.279  0.00  0.00    -0.348 N 
HETATM   21  C   UNK N   1      30.475  26.087  -3.610  0.00  0.00     0.214 C 
HETATM   22  O   UNK N   1      31.357  26.704  -3.035  0.00  0.00    -0.274 OA
HETATM   23  C   UNK N   1      29.704  26.770  -4.692  0.00  0.00     0.117 C 
HETATM   24  H   UNK N   1      30.818  24.382  -2.589  0.00  0.00     0.163 HD
ENDBRANCH  19  20
BRANCH  19  25
HETATM   25  C   UNK N   1      29.745  22.556  -4.139  0.00  0.00     0.038 C 
BRANCH  25  26
HETATM   26  C   UNK N   1      29.527  22.039  -5.555  0.00  0.00    -0.020 C 
HETATM   27  C   UNK N   1      30.457  20.877  -5.841  0.00  0.00     0.009 C 
HETATM   28  C   UNK N   1      29.810  23.157  -6.534  0.00  0.00     0.009 C 
ENDBRANCH  25  26
ENDBRANCH  19  25
ENDBRANCH  16  19
ENDBRANCH   1  15
TORSDOF 9
ENDMDL
MODEL 4
REMARK VINA RESULT:      -5.9     13.356     15.986
REMARK  9 active torsions:
REMARK  status: ('A' for Active; 'I' for Inactive)
REMARK    1  A    between atoms: C_1  and  C_5 
REMARK    2  A    between atoms: C_5  and  C_7 
REMARK    3  A    between atoms: C_7  and  C_8 
REMARK    4  A    between atoms: C_7  and  N_15 
REMARK    5  A    between atoms: C_8  and  C_9 
REMARK       I    between atoms: N_15  and  C_16 
REMARK    6  A    between atoms: C_16  and  C_18 
REMARK    7  A    between atoms: C_18  and  N_19 
REMARK    8  A    between atoms: C_18  and  C_23 
REMARK       I    between atoms: N_19  and  C_20 
REMARK    9  A    between atoms: C_23  and  C_24 
ROOT
HETATM    1  C   UNK N   1      30.193  16.565   5.373  0.00  0.00     0.168 C 
ENDROOT
BRANCH   1   2
HETATM    2  C   UNK N   1      30.579  16.631   3.909  0.00  0.00     0.255 C 
HETATM    3  O   UNK N   1      29.793  16.212   3.072  0.00  0.00    -0.286 OA
BRANCH   2   4
HETATM    4  C   UNK N   1      31.941  17.105   3.456  0.00  0.00     0.453 C 
HETATM    5  F   UNK N   1      32.225  18.333   4.019  0.00  0.00    -0.163 F 
HETATM    6  F   UNK N   1      31.930  17.239   2.080  0.00  0.00    -0.163 F 
HETATM    7  F   UNK N   1      32.941  16.212   3.795  0.00  0.00    -0.163 F 
ENDBRANCH   2   4
ENDBRANCH   1   2
BRANCH   1   8
HETATM    8  C   UNK N   1      30.992  15.583   6.255  0.00  0.00     0.072 C 
BRANCH   8   9
HETATM    9  C   UNK N   1      31.975  16.144   7.233  0.00  0.00    -0.056 A 
HETATM   10  C   UNK N   1      32.491  17.430   7.046  0.00  0.00     0.007 A 
HETATM   11  C   UNK N   1      33.430  17.945   7.945  0.00  0.00     0.001 A 
HETATM   12  C   UNK N   1      33.863  17.169   9.026  0.00  0.00     0.000 A 
HETATM   13  C   UNK N   1      33.364  15.876   9.202  0.00  0.00     0.001 A 
HETATM   14  C   UNK N   1      32.427  15.361   8.303  0.00  0.00     0.007 A 
ENDBRANCH   8   9
ENDBRANCH   1   8
BRANCH   1  15
HETATM   15  N   UNK N   1      28.780  16.253   5.457  0.00  0.00    -0.347 N 
HETATM   16  C   UNK N   1      27.832  16.862   6.227  0.00  0.00     0.241 C 
HETATM   17  O   UNK N   1      26.703  16.399   6.217  0.00  0.00    -0.271 OA
HETATM   18  H   UNK N   1      28.466  15.511   4.892  0.00  0.00     0.163 HD
BRANCH  16  19
HETATM   19  C   UNK N   1      28.107  18.086   7.098  0.00  0.00     0.177 C 
BRANCH  19  20
HETATM   20  N   UNK N   1      27.125  19.129   6.852  0.00  0.00    -0.348 N 
HETATM   21  C   UNK N   1      27.107  19.915   5.745  0.00  0.00     0.214 C 
HETATM   22  O   UNK N   1      26.226  20.749   5.618  0.00  0.00    -0.274 OA
HETATM   23  C   UNK N   1      28.165  19.816   4.695  0.00  0.00     0.117 C 
HETATM   24  H   UNK N   1      26.427  19.273   7.531  0.00  0.00     0.163 HD
ENDBRANCH  19  20
BRANCH  19  25
HETATM   25  C   UNK N   1      28.080  17.681   8.577  0.00  0.00     0.038 C 
BRANCH  25  26
HETATM   26  C   UNK N   1      29.450  17.496   9.217  0.00  0.00    -0.020 C 
HETATM   27  C   UNK N   1      29.321  16.754  10.533  0.00  0.00     0.009 C 
HETATM   28  C   UNK N   1      30.062  18.856   9.470  0.00  0.00     0.009 C 
ENDBRANCH  25  26
ENDBRANCH  19  25
ENDBRANCH  16  19
ENDBRANCH   1  15
TORSDOF 9
ENDMDL
MODEL 5
REMARK VINA RESULT:      -5.8     13.071     14.900
REMARK  9 active torsions:
REMARK  status: ('A' for Active; 'I' for Inactive)
REMARK    1  A    between atoms: C_1  and  C_5 
REMARK    2  A    between atoms: C_5  and  C_7 
REMARK    3  A    between atoms: C_7  and  C_8 
REMARK    4  A    between atoms: C_7  and  N_15 
REMARK    5  A    between atoms: C_8  and  C_9 
REMARK       I    between atoms: N_15  and  C_16 
REMARK    6  A    between atoms: C_16  and  C_18 
REMARK    7  A    between atoms: C_18  and  N_19 
REMARK    8  A    between atoms: C_18  and  C_23 
REMARK       I    between atoms: N_19  and  C_20 
REMARK    9  A    between atoms: C_23  and  C_24 
ROOT
HETATM    1  C   UNK N   1      30.798  16.964   6.848  0.00  0.00     0.168 C 
ENDROOT
BRANCH   1   2
HETATM    2  C   UNK N   1      31.677  17.616   7.896  0.00  0.00     0.255 C 
HETATM    3  O   UNK N   1      31.151  18.138   8.867  0.00  0.00    -0.286 OA
BRANCH   2   4
HETATM    4  C   UNK N   1      33.176  17.729   7.732  0.00  0.00     0.453 C 
HETATM    5  F   UNK N   1      33.512  17.652   6.395  0.00  0.00    -0.163 F 
HETATM    6  F   UNK N   1      33.776  16.681   8.403  0.00  0.00    -0.163 F 
HETATM    7  F   UNK N   1      33.667  18.913   8.253  0.00  0.00    -0.163 F 
ENDBRANCH   2   4
ENDBRANCH   1   2
BRANCH   1   8
HETATM    8  C   UNK N   1      29.275  17.141   7.017  0.00  0.00     0.072 C 
BRANCH   8   9
HETATM    9  C   UNK N   1      28.630  18.353   6.422  0.00  0.00    -0.056 A 
HETATM   10  C   UNK N   1      28.012  19.294   7.251  0.00  0.00     0.007 A 
HETATM   11  C   UNK N   1      27.385  20.414   6.694  0.00  0.00     0.001 A 
HETATM   12  C   UNK N   1      27.367  20.587   5.306  0.00  0.00     0.000 A 
HETATM   13  C   UNK N   1      27.966  19.637   4.475  0.00  0.00     0.001 A 
HETATM   14  C   UNK N   1      28.590  18.517   5.032  0.00  0.00     0.007 A 
ENDBRANCH   8   9
ENDBRANCH   1   8
BRANCH   1  15
HETATM   15  N   UNK N   1      31.119  15.551   6.801  0.00  0.00    -0.347 N 
HETATM   16  C   UNK N   1      31.067  14.716   5.723  0.00  0.00     0.241 C 
HETATM   17  O   UNK N   1      31.302  13.533   5.904  0.00  0.00    -0.271 OA
HETATM   18  H   UNK N   1      31.410  15.144   7.648  0.00  0.00     0.163 HD
BRANCH  16  19
HETATM   19  C   UNK N   1      30.729  15.180   4.307  0.00  0.00     0.177 C 
BRANCH  19  20
HETATM   20  N   UNK N   1      31.867  15.010   3.420  0.00  0.00    -0.348 N 
HETATM   21  C   UNK N   1      32.686  16.019   3.026  0.00  0.00     0.214 C 
HETATM   22  O   UNK N   1      33.632  15.772   2.296  0.00  0.00    -0.274 OA
HETATM   23  C   UNK N   1      32.435  17.436   3.427  0.00  0.00     0.117 C 
HETATM   24  H   UNK N   1      32.058  14.104   3.084  0.00  0.00     0.163 HD
ENDBRANCH  19  20
BRANCH  19  25
HETATM   25  C   UNK N   1      29.530  14.385   3.778  0.00  0.00     0.038 C 
BRANCH  25  26
HETATM   26  C   UNK N   1      28.279  15.212   3.509  0.00  0.00    -0.020 C 
HETATM   27  C   UNK N   1      27.264  15.008   4.616  0.00  0.00     0.009 C 
HETATM   28  C   UNK N   1      27.675  14.773   2.193  0.00  0.00     0.009 C 
ENDBRANCH  25  26
ENDBRANCH  19  25
ENDBRANCH  16  19
ENDBRANCH   1  15
TORSDOF 9
ENDMDL
MODEL 6
REMARK VINA RESULT:      -5.7     13.322     15.262
REMARK  9 active torsions:
REMARK  status: ('A' for Active; 'I' for Inactive)
REMARK    1  A    between atoms: C_1  and  C_5 
REMARK    2  A    between atoms: C_5  and  C_7 
REMARK    3  A    between atoms: C_7  and  C_8 
REMARK    4  A    between atoms: C_7  and  N_15 
REMARK    5  A    between atoms: C_8  and  C_9 
REMARK       I    between atoms: N_15  and  C_16 
REMARK    6  A    between atoms: C_16  and  C_18 
REMARK    7  A    between atoms: C_18  and  N_19 
REMARK    8  A    between atoms: C_18  and  C_23 
REMARK       I    between atoms: N_19  and  C_20 
REMARK    9  A    between atoms: C_23  and  C_24 
ROOT
HETATM    1  C   UNK N   1      29.406  17.053   6.250  0.00  0.00     0.168 C 
ENDROOT
BRANCH   1   2
HETATM    2  C   UNK N   1      28.319  17.322   7.272  0.00  0.00     0.255 C 
HETATM    3  O   UNK N   1      27.309  16.636   7.254  0.00  0.00    -0.286 OA
BRANCH   2   4
HETATM    4  C   UNK N   1      28.401  18.473   8.249  0.00  0.00     0.453 C 
HETATM    5  F   UNK N   1      27.876  18.095   9.469  0.00  0.00    -0.163 F 
HETATM    6  F   UNK N   1      27.659  19.529   7.754  0.00  0.00    -0.163 F 
HETATM    7  F   UNK N   1      29.701  18.907   8.433  0.00  0.00    -0.163 F 
ENDBRANCH   2   4
ENDBRANCH   1   2
BRANCH   1   8
HETATM    8  C   UNK N   1      29.430  17.971   5.010  0.00  0.00     0.072 C 
BRANCH   8   9
HETATM    9  C   UNK N   1      28.138  18.548   4.527  0.00  0.00    -0.056 A 
HETATM   10  C   UNK N   1      27.890  19.918   4.659  0.00  0.00     0.007 A 
HETATM   11  C   UNK N   1      26.671  20.454   4.233  0.00  0.00     0.001 A 
HETATM   12  C   UNK N   1      25.693  19.618   3.684  0.00  0.00     0.000 A 
HETATM   13  C   UNK N   1      25.930  18.246   3.570  0.00  0.00     0.001 A 
HETATM   14  C   UNK N   1      27.147  17.710   3.998  0.00  0.00     0.007 A 
ENDBRANCH   8   9
ENDBRANCH   1   8
BRANCH   1  15
HETATM   15  N   UNK N   1      29.301  15.670   5.828  0.00  0.00    -0.347 N 
HETATM   16  C   UNK N   1      30.310  14.768   5.659  0.00  0.00     0.241 C 
HETATM   17  O   UNK N   1      30.025  13.666   5.219  0.00  0.00    -0.271 OA
HETATM   18  H   UNK N   1      28.393  15.343   5.640  0.00  0.00     0.163 HD
BRANCH  16  19
HETATM   19  C   UNK N   1      31.773  15.060   5.988  0.00  0.00     0.177 C 
BRANCH  19  20
HETATM   20  N   UNK N   1      32.290  14.101   6.950  0.00  0.00    -0.348 N 
HETATM   21  C   UNK N   1      32.475  14.367   8.269  0.00  0.00     0.214 C 
HETATM   22  O   UNK N   1      32.893  13.488   9.004  0.00  0.00    -0.274 OA
HETATM   23  C   UNK N   1      32.221  15.725   8.840  0.00  0.00     0.117 C 
HETATM   24  H   UNK N   1      32.520  13.201   6.625  0.00  0.00     0.163 HD
ENDBRANCH  19  20
BRANCH  19  25
HETATM   25  C   UNK N   1      32.609  15.015   4.704  0.00  0.00     0.038 C 
BRANCH  25  26
HETATM   26  C   UNK N   1      33.203  16.350   4.276  0.00  0.00    -0.020 C 
HETATM   27  C   UNK N   1      33.128  17.349   5.414  0.00  0.00     0.009 C 
HETATM   28  C   UNK N   1      32.420  16.879   3.095  0.00  0.00     0.009 C 
ENDBRANCH  25  26
ENDBRANCH  19  25
ENDBRANCH  16  19
ENDBRANCH   1  15
TORSDOF 9
ENDMDL
MODEL 7
REMARK VINA RESULT:      -5.6      1.344      2.867
REMARK  9 active torsions:
REMARK  status: ('A' for Active; 'I' for Inactive)
REMARK    1  A    between atoms: C_1  and  C_5 
REMARK    2  A    between atoms: C_5  and  C_7 
REMARK    3  A    between atoms: C_7  and  C_8 
REMARK    4  A    between atoms: C_7  and  N_15 
REMARK    5  A    between atoms: C_8  and  C_9 
REMARK       I    between atoms: N_15  and  C_16 
REMARK    6  A    between atoms: C_16  and  C_18 
REMARK    7  A    between atoms: C_18  and  N_19 
REMARK    8  A    between atoms: C_18  and  C_23 
REMARK       I    between atoms: N_19  and  C_20 
REMARK    9  A    between atoms: C_23  and  C_24 
ROOT
HETATM    1  C   UNK N   1      26.179  24.804  -5.452  0.00  0.00     0.168 C 
ENDROOT
BRANCH   1   2
HETATM    2  C   UNK N   1      26.908  24.501  -4.159  0.00  0.00     0.255 C 
HETATM    3  O   UNK N   1      26.269  24.090  -3.203  0.00  0.00    -0.286 OA
BRANCH   2   4
HETATM    4  C   UNK N   1      28.383  24.782  -3.982  0.00  0.00     0.453 C 
HETATM    5  F   UNK N   1      29.074  24.419  -5.121  0.00  0.00    -0.163 F 
HETATM    6  F   UNK N   1      28.854  24.034  -2.920  0.00  0.00    -0.163 F 
HETATM    7  F   UNK N   1      28.628  26.117  -3.713  0.00  0.00    -0.163 F 
ENDBRANCH   2   4
ENDBRANCH   1   2
BRANCH   1   8
HETATM    8  C   UNK N   1      25.297  26.070  -5.468  0.00  0.00     0.072 C 
BRANCH   8   9
HETATM    9  C   UNK N   1      25.953  27.396  -5.242  0.00  0.00    -0.056 A 
HETATM   10  C   UNK N   1      26.943  27.845  -6.120  0.00  0.00     0.007 A 
HETATM   11  C   UNK N   1      27.576  29.072  -5.894  0.00  0.00     0.001 A 
HETATM   12  C   UNK N   1      27.227  29.844  -4.781  0.00  0.00     0.000 A 
HETATM   13  C   UNK N   1      26.252  29.387  -3.891  0.00  0.00     0.001 A 
HETATM   14  C   UNK N   1      25.622  28.161  -4.116  0.00  0.00     0.007 A 
ENDBRANCH   8   9
ENDBRANCH   1   8
BRANCH   1  15
HETATM   15  N   UNK N   1      25.375  23.649  -5.803  0.00  0.00    -0.347 N 
HETATM   16  C   UNK N   1      25.546  22.799  -6.856  0.00  0.00     0.241 C 
HETATM   17  O   UNK N   1      24.711  21.925  -7.026  0.00  0.00    -0.271 OA
HETATM   18  H   UNK N   1      24.614  23.456  -5.210  0.00  0.00     0.163 HD
BRANCH  16  19
HETATM   19  C   UNK N   1      26.720  22.880  -7.829  0.00  0.00     0.177 C 
BRANCH  19  20
HETATM   20  N   UNK N   1      27.073  24.263  -8.102  0.00  0.00    -0.348 N 
HETATM   21  C   UNK N   1      26.555  24.997  -9.121  0.00  0.00     0.214 C 
HETATM   22  O   UNK N   1      26.897  26.160  -9.254  0.00  0.00    -0.274 OA
HETATM   23  C   UNK N   1      25.607  24.405 -10.112  0.00  0.00     0.117 C 
HETATM   24  H   UNK N   1      27.729  24.696  -7.509  0.00  0.00     0.163 HD
ENDBRANCH  19  20
BRANCH  19  25
HETATM   25  C   UNK N   1      27.927  22.138  -7.243  0.00  0.00     0.038 C 
BRANCH  25  26
HETATM   26  C   UNK N   1      28.712  21.298  -8.242  0.00  0.00    -0.020 C 
HETATM   27  C   UNK N   1      27.861  20.993  -9.459  0.00  0.00     0.009 C 
HETATM   28  C   UNK N   1      29.118  20.001  -7.580  0.00  0.00     0.009 C 
ENDBRANCH  25  26
ENDBRANCH  19  25
ENDBRANCH  16  19
ENDBRANCH   1  15
TORSDOF 9
ENDMDL
MODEL 8
REMARK VINA RESULT:      -5.6      1.828      2.243
REMARK  9 active torsions:
REMARK  status: ('A' for Active; 'I' for Inactive)
REMARK    1  A    between atoms: C_1  and  C_5 
REMARK    2  A    between atoms: C_5  and  C_7 
REMARK    3  A    between atoms: C_7  and  C_8 
REMARK    4  A    between atoms: C_7  and  N_15 
REMARK    5  A    between atoms: C_8  and  C_9 
REMARK       I    between atoms: N_15  and  C_16 
REMARK    6  A    between atoms: C_16  and  C_18 
REMARK    7  A    between atoms: C_18  and  N_19 
REMARK    8  A    between atoms: C_18  and  C_23 
REMARK       I    between atoms: N_19  and  C_20 
REMARK    9  A    between atoms: C_23  and  C_24 
ROOT
HETATM    1  C   UNK N   1      27.389  24.614  -3.782  0.00  0.00     0.168 C 
ENDROOT
BRANCH   1   2
HETATM    2  C   UNK N   1      28.169  23.752  -2.809  0.00  0.00     0.255 C 
HETATM    3  O   UNK N   1      27.590  23.282  -1.841  0.00  0.00    -0.286 OA
BRANCH   2   4
HETATM    4  C   UNK N   1      29.659  23.536  -2.941  0.00  0.00     0.453 C 
HETATM    5  F   UNK N   1      30.165  23.003  -1.771  0.00  0.00    -0.163 F 
HETATM    6  F   UNK N   1      30.266  24.756  -3.172  0.00  0.00    -0.163 F 
HETATM    7  F   UNK N   1      29.970  22.692  -3.992  0.00  0.00    -0.163 F 
ENDBRANCH   2   4
ENDBRANCH   1   2
BRANCH   1   8
HETATM    8  C   UNK N   1      26.682  25.853  -3.195  0.00  0.00     0.072 C 
BRANCH   8   9
HETATM    9  C   UNK N   1      26.943  27.185  -3.824  0.00  0.00    -0.056 A 
HETATM   10  C   UNK N   1      28.109  27.391  -4.568  0.00  0.00     0.007 A 
HETATM   11  C   UNK N   1      28.367  28.644  -5.133  0.00  0.00     0.001 A 
HETATM   12  C   UNK N   1      27.464  29.696  -4.945  0.00  0.00     0.000 A 
HETATM   13  C   UNK N   1      26.309  29.498  -4.184  0.00  0.00     0.001 A 
HETATM   14  C   UNK N   1      26.053  28.247  -3.617  0.00  0.00     0.007 A 
ENDBRANCH   8   9
ENDBRANCH   1   8
BRANCH   1  15
HETATM   15  N   UNK N   1      26.417  23.774  -4.455  0.00  0.00    -0.347 N 
HETATM   16  C   UNK N   1      26.220  23.633  -5.797  0.00  0.00     0.241 C 
HETATM   17  O   UNK N   1      25.293  22.932  -6.168  0.00  0.00    -0.271 OA
HETATM   18  H   UNK N   1      25.829  23.243  -3.873  0.00  0.00     0.163 HD
BRANCH  16  19
HETATM   19  C   UNK N   1      27.092  24.302  -6.857  0.00  0.00     0.177 C 
BRANCH  19  20
HETATM   20  N   UNK N   1      28.118  23.391  -7.336  0.00  0.00    -0.348 N 
HETATM   21  C   UNK N   1      29.452  23.597  -7.186  0.00  0.00     0.214 C 
HETATM   22  O   UNK N   1      30.237  22.761  -7.602  0.00  0.00    -0.274 OA
HETATM   23  C   UNK N   1      29.989  24.844  -6.562  0.00  0.00     0.117 C 
HETATM   24  H   UNK N   1      27.828  22.572  -7.797  0.00  0.00     0.163 HD
ENDBRANCH  19  20
BRANCH  19  25
HETATM   25  C   UNK N   1      26.216  24.765  -8.028  0.00  0.00     0.038 C 
BRANCH  25  26
HETATM   26  C   UNK N   1      26.041  26.273  -8.143  0.00  0.00    -0.020 C 
HETATM   27  C   UNK N   1      27.391  26.955  -8.240  0.00  0.00     0.009 C 
HETATM   28  C   UNK N   1      25.316  26.777  -6.914  0.00  0.00     0.009 C 
ENDBRANCH  25  26
ENDBRANCH  19  25
ENDBRANCH  16  19
ENDBRANCH   1  15
TORSDOF 9
ENDMDL
MODEL 9
REMARK VINA RESULT:      -5.5      3.616      4.946
REMARK  9 active torsions:
REMARK  status: ('A' for Active; 'I' for Inactive)
REMARK    1  A    between atoms: C_1  and  C_5 
REMARK    2  A    between atoms: C_5  and  C_7 
REMARK    3  A    between atoms: C_7  and  C_8 
REMARK    4  A    between atoms: C_7  and  N_15 
REMARK    5  A    between atoms: C_8  and  C_9 
REMARK       I    between atoms: N_15  and  C_16 
REMARK    6  A    between atoms: C_16  and  C_18 
REMARK    7  A    between atoms: C_18  and  N_19 
REMARK    8  A    between atoms: C_18  and  C_23 
REMARK       I    between atoms: N_19  and  C_20 
REMARK    9  A    between atoms: C_23  and  C_24 
ROOT
HETATM    1  C   UNK N   1      28.893  24.345  -3.838  0.00  0.00     0.168 C 
ENDROOT
BRANCH   1   2
HETATM    2  C   UNK N   1      29.574  25.613  -4.311  0.00  0.00     0.255 C 
HETATM    3  O   UNK N   1      30.101  26.343  -3.486  0.00  0.00    -0.286 OA
BRANCH   2   4
HETATM    4  C   UNK N   1      29.538  26.055  -5.757  0.00  0.00     0.453 C 
HETATM    5  F   UNK N   1      30.793  26.470  -6.155  0.00  0.00    -0.163 F 
HETATM    6  F   UNK N   1      28.660  27.116  -5.875  0.00  0.00    -0.163 F 
HETATM    7  F   UNK N   1      29.110  25.044  -6.598  0.00  0.00    -0.163 F 
ENDBRANCH   2   4
ENDBRANCH   1   2
BRANCH   1   8
HETATM    8  C   UNK N   1      27.438  24.484  -3.344  0.00  0.00     0.072 C 
BRANCH   8   9
HETATM    9  C   UNK N   1      26.560  25.504  -3.997  0.00  0.00    -0.056 A 
HETATM   10  C   UNK N   1      25.967  25.228  -5.233  0.00  0.00     0.007 A 
HETATM   11  C   UNK N   1      25.168  26.191  -5.857  0.00  0.00     0.001 A 
HETATM   12  C   UNK N   1      24.971  27.437  -5.252  0.00  0.00     0.000 A 
HETATM   13  C   UNK N   1      25.580  27.722  -4.027  0.00  0.00     0.001 A 
HETATM   14  C   UNK N   1      26.380  26.760  -3.404  0.00  0.00     0.007 A 
ENDBRANCH   8   9
ENDBRANCH   1   8
BRANCH   1  15
HETATM   15  N   UNK N   1      29.706  23.755  -2.793  0.00  0.00    -0.347 N 
HETATM   16  C   UNK N   1      30.726  22.860  -2.930  0.00  0.00     0.241 C 
HETATM   17  O   UNK N   1      31.240  22.418  -1.915  0.00  0.00    -0.271 OA
HETATM   18  H   UNK N   1      29.495  24.033  -1.873  0.00  0.00     0.163 HD
BRANCH  16  19
HETATM   19  C   UNK N   1      31.258  22.381  -4.279  0.00  0.00     0.177 C 
BRANCH  19  20
HETATM   20  N   UNK N   1      32.696  22.572  -4.367  0.00  0.00    -0.348 N 
HETATM   21  C   UNK N   1      33.319  23.233  -5.377  0.00  0.00     0.214 C 
HETATM   22  O   UNK N   1      34.532  23.361  -5.350  0.00  0.00    -0.274 OA
HETATM   23  C   UNK N   1      32.561  23.773  -6.546  0.00  0.00     0.117 C 
HETATM   24  H   UNK N   1      33.255  22.198  -3.648  0.00  0.00     0.163 HD
ENDBRANCH  19  20
BRANCH  19  25
HETATM   25  C   UNK N   1      30.914  20.900  -4.472  0.00  0.00     0.038 C 
BRANCH  25  26
HETATM   26  C   UNK N   1      30.286  20.556  -5.817  0.00  0.00    -0.020 C 
HETATM   27  C   UNK N   1      31.362  20.227  -6.833  0.00  0.00     0.009 C 
HETATM   28  C   UNK N   1      29.488  21.745  -6.304  0.00  0.00     0.009 C 
ENDBRANCH  25  26
ENDBRANCH  19  25
ENDBRANCH  16  19
ENDBRANCH   1  15
TORSDOF 9
ENDMDL
