REMARK  9 active torsions:
REMARK  status: ('A' for Active; 'I' for Inactive)
REMARK    1  A    between atoms: C_1  and  C_5 
REMARK    2  A    between atoms: C_5  and  C_7 
REMARK    3  A    between atoms: C_7  and  C_8 
REMARK    4  A    between atoms: C_7  and  N_15 
REMARK    5  A    between atoms: C_8  and  C_9 
REMARK       I    between atoms: N_15  and  C_16 
REMARK    6  A    between atoms: C_16  and  C_18 
REMARK    7  A    between atoms: C_18  and  N_19 
REMARK    8  A    between atoms: C_18  and  C_23 
REMARK       I    between atoms: N_19  and  C_20 
REMARK    9  A    between atoms: C_23  and  C_24 
ROOT
HETATM    1  C   UNK N   1      -0.621  -0.406  -0.772  0.00  0.00     0.168 C 
ENDROOT
BRANCH   1   2
HETATM    2  C   UNK N   1      -1.755   0.598  -0.723  0.00  0.00     0.255 C 
HETATM    3  O   UNK N   1      -1.833   1.444  -1.601  0.00  0.00    -0.286 OA
BRANCH   2   4
HETATM    4  C   UNK N   1      -2.735   0.650   0.427  0.00  0.00     0.453 C 
HETATM    5  F   UNK N   1      -4.027   0.540  -0.048  0.00  0.00    -0.163 F 
HETATM    6  F   UNK N   1      -2.600   1.865   1.071  0.00  0.00    -0.163 F 
HETATM    7  F   UNK N   1      -2.507  -0.356   1.349  0.00  0.00    -0.163 F 
ENDBRANCH   2   4
ENDBRANCH   1   2
BRANCH   1   8
HETATM    8  C   UNK N   1      -1.005  -1.868  -1.082  0.00  0.00     0.072 C 
BRANCH   8   9
HETATM    9  C   UNK N   1      -2.408  -2.308  -0.807  0.00  0.00    -0.056 A 
HETATM   10  C   UNK N   1      -2.668  -3.209   0.230  0.00  0.00     0.007 A 
HETATM   11  C   UNK N   1      -3.976  -3.642   0.470  0.00  0.00     0.001 A 
HETATM   12  C   UNK N   1      -5.024  -3.183  -0.335  0.00  0.00     0.000 A 
HETATM   13  C   UNK N   1      -4.763  -2.299  -1.385  0.00  0.00     0.001 A 
HETATM   14  C   UNK N   1      -3.456  -1.868  -1.626  0.00  0.00     0.007 A 
ENDBRANCH   8   9
ENDBRANCH   1   8
BRANCH   1  15
HETATM   15  N   UNK N   1       0.092  -0.349   0.489  0.00  0.00    -0.347 N 
HETATM   16  C   UNK N   1       1.322   0.189   0.732  0.00  0.00     0.241 C 
HETATM   17  O   UNK N   1       1.788   0.068   1.853  0.00  0.00    -0.271 OA
HETATM   18  H   UNK N   1      -0.366  -0.747   1.263  0.00  0.00     0.163 HD
BRANCH  16  19
HETATM   19  C   UNK N   1       2.145   0.931  -0.319  0.00  0.00     0.177 C 
BRANCH  19  20
HETATM   20  N   UNK N   1       2.563   2.233   0.173  0.00  0.00    -0.348 N 
HETATM   21  C   UNK N   1       1.748   3.316   0.255  0.00  0.00     0.214 C 
HETATM   22  O   UNK N   1       2.186   4.362   0.705  0.00  0.00    -0.274 OA
HETATM   23  C   UNK N   1       0.336   3.275  -0.232  0.00  0.00     0.117 C 
HETATM   24  H   UNK N   1       3.497   2.336   0.467  0.00  0.00     0.163 HD
ENDBRANCH  19  20
BRANCH  19  25
HETATM   25  C   UNK N   1       3.374   0.095  -0.695  0.00  0.00     0.038 C 
BRANCH  25  26
HETATM   26  C   UNK N   1       4.324  -0.206   0.457  0.00  0.00    -0.020 C 
HETATM   27  C   UNK N   1       5.316   0.927   0.632  0.00  0.00     0.009 C 
HETATM   28  C   UNK N   1       5.075  -1.483   0.152  0.00  0.00     0.009 C 
ENDBRANCH  25  26
ENDBRANCH  19  25
ENDBRANCH  16  19
ENDBRANCH   1  15
TORSDOF 9
