MODEL 1
REMARK VINA RESULT:      -4.1      0.000      0.000
REMARK  9 active torsions:
REMARK  status: ('A' for Active; 'I' for Inactive)
REMARK       I    between atoms: C_1  and  N_3 
REMARK    1  A    between atoms: C_1  and  C_4 
REMARK    2  A    between atoms: C_4  and  C_5 
REMARK    3  A    between atoms: C_5  and  C_6 
REMARK    4  A    between atoms: C_6  and  C_7 
REMARK    5  A    between atoms: C_7  and  C_8 
REMARK    6  A    between atoms: C_8  and  S_9 
REMARK    7  A    between atoms: C_8  and  C_10 
REMARK    8  A    between atoms: C_10  and  C_11 
REMARK    9  A    between atoms: C_11  and  S_12 
ROOT
HETATM    1  C   UNK N   1      31.209  16.834   7.426  0.00  0.00     0.002 C 
ENDROOT
BRANCH   1   2
HETATM    2  C   UNK N   1      32.031  17.829   8.222  0.00  0.00     0.009 C 
BRANCH   2   3
HETATM    3  C   UNK N   1      33.398  17.955   7.561  0.00  0.00     0.102 C 
BRANCH   3   4
HETATM    4  C   UNK N   1      34.488  18.184   8.565  0.00  0.00     0.215 C 
HETATM    5  O   UNK N   1      35.253  19.119   8.422  0.00  0.00    -0.274 OA
HETATM    6  N   UNK N   1      34.610  17.376   9.639  0.00  0.00    -0.370 N 
HETATM    7  H   UNK N   1      34.125  16.521   9.702  0.00  0.00     0.159 HD
HETATM    8  H   UNK N   1      35.199  17.648  10.380  0.00  0.00     0.159 HD
ENDBRANCH   3   4
ENDBRANCH   2   3
ENDBRANCH   1   2
BRANCH   1   9
HETATM    9  C   UNK N   1      29.839  17.360   7.010  0.00  0.00     0.015 C 
BRANCH   9  10
HETATM   10  C   UNK N   1      29.157  18.336   7.977  0.00  0.00     0.045 C 
BRANCH  10  11
HETATM   11  S   UNK N   1      28.329  17.485   9.371  0.00  0.00    -0.177 SA
HETATM   12  H   UNK N   1      27.655  17.712  10.529  0.00  0.00     0.102 HD
ENDBRANCH  10  11
BRANCH  10  13
HETATM   13  C   UNK N   1      28.122  19.089   7.147  0.00  0.00     0.025 C 
BRANCH  13  14
HETATM   14  C   UNK N   1      27.972  18.553   5.734  0.00  0.00     0.072 C 
BRANCH  14  15
HETATM   15  S   UNK N   1      27.705  19.948   4.606  0.00  0.00    -0.182 SA
HETATM   16  H   UNK N   1      28.703  20.408   3.805  0.00  0.00     0.101 HD
ENDBRANCH  14  15
ENDBRANCH  13  14
ENDBRANCH  10  13
ENDBRANCH   9  10
ENDBRANCH   1   9
TORSDOF 9
ENDMDL
MODEL 2
REMARK VINA RESULT:      -4.1      9.777     10.712
REMARK  9 active torsions:
REMARK  status: ('A' for Active; 'I' for Inactive)
REMARK       I    between atoms: C_1  and  N_3 
REMARK    1  A    between atoms: C_1  and  C_4 
REMARK    2  A    between atoms: C_4  and  C_5 
REMARK    3  A    between atoms: C_5  and  C_6 
REMARK    4  A    between atoms: C_6  and  C_7 
REMARK    5  A    between atoms: C_7  and  C_8 
REMARK    6  A    between atoms: C_8  and  S_9 
REMARK    7  A    between atoms: C_8  and  C_10 
REMARK    8  A    between atoms: C_10  and  C_11 
REMARK    9  A    between atoms: C_11  and  S_12 
ROOT
HETATM    1  C   UNK N   1      21.152  13.431   9.267  0.00  0.00     0.002 C 
ENDROOT
BRANCH   1   2
HETATM    2  C   UNK N   1      21.381  12.589  10.507  0.00  0.00     0.009 C 
BRANCH   2   3
HETATM    3  C   UNK N   1      22.747  11.926  10.387  0.00  0.00     0.102 C 
BRANCH   3   4
HETATM    4  C   UNK N   1      23.450  11.845  11.710  0.00  0.00     0.215 C 
HETATM    5  O   UNK N   1      24.657  11.986  11.761  0.00  0.00    -0.274 OA
HETATM    6  N   UNK N   1      22.749  11.642  12.846  0.00  0.00    -0.370 N 
HETATM    7  H   UNK N   1      21.807  11.358  12.829  0.00  0.00     0.159 HD
HETATM    8  H   UNK N   1      23.192  11.782  13.714  0.00  0.00     0.159 HD
ENDBRANCH   3   4
ENDBRANCH   2   3
ENDBRANCH   1   2
BRANCH   1   9
HETATM    9  C   UNK N   1      20.173  14.582   9.477  0.00  0.00     0.015 C 
BRANCH   9  10
HETATM   10  C   UNK N   1      20.484  15.890   8.739  0.00  0.00     0.045 C 
BRANCH  10  11
HETATM   11  S   UNK N   1      19.089  17.076   8.789  0.00  0.00    -0.177 SA
HETATM   12  H   UNK N   1      17.814  17.227   9.234  0.00  0.00     0.102 HD
ENDBRANCH  10  11
BRANCH  10  13
HETATM   13  C   UNK N   1      20.771  15.495   7.294  0.00  0.00     0.025 C 
BRANCH  13  14
HETATM   14  C   UNK N   1      22.065  16.074   6.753  0.00  0.00     0.072 C 
BRANCH  14  15
HETATM   15  S   UNK N   1      21.715  17.691   6.008  0.00  0.00    -0.182 SA
HETATM   16  H   UNK N   1      20.559  17.918   5.329  0.00  0.00     0.101 HD
ENDBRANCH  14  15
ENDBRANCH  13  14
ENDBRANCH  10  13
ENDBRANCH   9  10
ENDBRANCH   1   9
TORSDOF 9
ENDMDL
MODEL 3
REMARK VINA RESULT:      -4.0     13.973     16.074
REMARK  9 active torsions:
REMARK  status: ('A' for Active; 'I' for Inactive)
REMARK       I    between atoms: C_1  and  N_3 
REMARK    1  A    between atoms: C_1  and  C_4 
REMARK    2  A    between atoms: C_4  and  C_5 
REMARK    3  A    between atoms: C_5  and  C_6 
REMARK    4  A    between atoms: C_6  and  C_7 
REMARK    5  A    between atoms: C_7  and  C_8 
REMARK    6  A    between atoms: C_8  and  S_9 
REMARK    7  A    between atoms: C_8  and  C_10 
REMARK    8  A    between atoms: C_10  and  C_11 
REMARK    9  A    between atoms: C_11  and  S_12 
ROOT
HETATM    1  C   UNK N   1      25.507  26.117  -6.557  0.00  0.00     0.002 C 
ENDROOT
BRANCH   1   2
HETATM    2  C   UNK N   1      24.964  27.255  -5.714  0.00  0.00     0.009 C 
BRANCH   2   3
HETATM    3  C   UNK N   1      26.144  28.025  -5.136  0.00  0.00     0.102 C 
BRANCH   3   4
HETATM    4  C   UNK N   1      25.887  28.471  -3.728  0.00  0.00     0.215 C 
HETATM    5  O   UNK N   1      25.471  27.674  -2.908  0.00  0.00    -0.274 OA
HETATM    6  N   UNK N   1      26.141  29.744  -3.356  0.00  0.00    -0.370 N 
HETATM    7  H   UNK N   1      26.315  30.452  -4.019  0.00  0.00     0.159 HD
HETATM    8  H   UNK N   1      26.152  29.972  -2.399  0.00  0.00     0.159 HD
ENDBRANCH   3   4
ENDBRANCH   2   3
ENDBRANCH   1   2
BRANCH   1   9
HETATM    9  C   UNK N   1      26.878  25.620  -6.111  0.00  0.00     0.015 C 
BRANCH   9  10
HETATM   10  C   UNK N   1      26.947  24.185  -5.573  0.00  0.00     0.045 C 
BRANCH  10  11
HETATM   11  S   UNK N   1      26.032  22.995  -6.622  0.00  0.00    -0.177 SA
HETATM   12  H   UNK N   1      25.878  22.584  -7.908  0.00  0.00     0.102 HD
ENDBRANCH  10  11
BRANCH  10  13
HETATM   13  C   UNK N   1      26.322  24.231  -4.183  0.00  0.00     0.025 C 
BRANCH  13  14
HETATM   14  C   UNK N   1      27.341  24.191  -3.059  0.00  0.00     0.072 C 
BRANCH  14  15
HETATM   15  S   UNK N   1      28.948  23.704  -3.744  0.00  0.00    -0.182 SA
HETATM   16  H   UNK N   1      29.574  22.567  -3.336  0.00  0.00     0.101 HD
ENDBRANCH  14  15
ENDBRANCH  13  14
ENDBRANCH  10  13
ENDBRANCH   9  10
ENDBRANCH   1   9
TORSDOF 9
ENDMDL
MODEL 4
REMARK VINA RESULT:      -4.0      8.226     10.431
REMARK  9 active torsions:
REMARK  status: ('A' for Active; 'I' for Inactive)
REMARK       I    between atoms: C_1  and  N_3 
REMARK    1  A    between atoms: C_1  and  C_4 
REMARK    2  A    between atoms: C_4  and  C_5 
REMARK    3  A    between atoms: C_5  and  C_6 
REMARK    4  A    between atoms: C_6  and  C_7 
REMARK    5  A    between atoms: C_7  and  C_8 
REMARK    6  A    between atoms: C_8  and  S_9 
REMARK    7  A    between atoms: C_8  and  C_10 
REMARK    8  A    between atoms: C_10  and  C_11 
REMARK    9  A    between atoms: C_11  and  S_12 
ROOT
HETATM    1  C   UNK N   1      23.908  20.669   2.880  0.00  0.00     0.002 C 
ENDROOT
BRANCH   1   2
HETATM    2  C   UNK N   1      22.579  19.961   3.054  0.00  0.00     0.009 C 
BRANCH   2   3
HETATM    3  C   UNK N   1      21.491  20.831   2.439  0.00  0.00     0.102 C 
BRANCH   3   4
HETATM    4  C   UNK N   1      20.948  20.240   1.172  0.00  0.00     0.215 C 
HETATM    5  O   UNK N   1      21.134  20.809   0.113  0.00  0.00    -0.274 OA
HETATM    6  N   UNK N   1      20.279  19.067   1.196  0.00  0.00    -0.370 N 
HETATM    7  H   UNK N   1      19.966  18.667   2.039  0.00  0.00     0.159 HD
HETATM    8  H   UNK N   1      20.099  18.600   0.348  0.00  0.00     0.159 HD
ENDBRANCH   3   4
ENDBRANCH   2   3
ENDBRANCH   1   2
BRANCH   1   9
HETATM    9  C   UNK N   1      24.966  20.251   3.896  0.00  0.00     0.015 C 
BRANCH   9  10
HETATM   10  C   UNK N   1      25.822  19.030   3.534  0.00  0.00     0.045 C 
BRANCH  10  11
HETATM   11  S   UNK N   1      25.274  17.506   4.388  0.00  0.00    -0.177 SA
HETATM   12  H   UNK N   1      24.724  16.283   4.170  0.00  0.00     0.102 HD
ENDBRANCH  10  11
BRANCH  10  13
HETATM   13  C   UNK N   1      27.244  19.377   3.962  0.00  0.00     0.025 C 
BRANCH  13  14
HETATM   14  C   UNK N   1      27.315  20.517   4.962  0.00  0.00     0.072 C 
BRANCH  14  15
HETATM   15  S   UNK N   1      27.620  19.828   6.612  0.00  0.00    -0.182 SA
HETATM   16  H   UNK N   1      28.798  20.042   7.258  0.00  0.00     0.101 HD
ENDBRANCH  14  15
ENDBRANCH  13  14
ENDBRANCH  10  13
ENDBRANCH   9  10
ENDBRANCH   1   9
TORSDOF 9
ENDMDL
MODEL 5
REMARK VINA RESULT:      -4.0      4.326      5.412
REMARK  9 active torsions:
REMARK  status: ('A' for Active; 'I' for Inactive)
REMARK       I    between atoms: C_1  and  N_3 
REMARK    1  A    between atoms: C_1  and  C_4 
REMARK    2  A    between atoms: C_4  and  C_5 
REMARK    3  A    between atoms: C_5  and  C_6 
REMARK    4  A    between atoms: C_6  and  C_7 
REMARK    5  A    between atoms: C_7  and  C_8 
REMARK    6  A    between atoms: C_8  and  S_9 
REMARK    7  A    between atoms: C_8  and  C_10 
REMARK    8  A    between atoms: C_10  and  C_11 
REMARK    9  A    between atoms: C_11  and  S_12 
ROOT
HETATM    1  C   UNK N   1      31.175  17.270   8.410  0.00  0.00     0.002 C 
ENDROOT
BRANCH   1   2
HETATM    2  C   UNK N   1      30.576  18.593   8.846  0.00  0.00     0.009 C 
BRANCH   2   3
HETATM    3  C   UNK N   1      29.511  18.311   9.897  0.00  0.00     0.102 C 
BRANCH   3   4
HETATM    4  C   UNK N   1      28.172  18.036   9.280  0.00  0.00     0.215 C 
HETATM    5  O   UNK N   1      27.611  16.978   9.501  0.00  0.00    -0.274 OA
HETATM    6  N   UNK N   1      27.572  18.964   8.505  0.00  0.00    -0.370 N 
HETATM    7  H   UNK N   1      28.059  19.752   8.170  0.00  0.00     0.159 HD
HETATM    8  H   UNK N   1      26.623  18.851   8.268  0.00  0.00     0.159 HD
ENDBRANCH   3   4
ENDBRANCH   2   3
ENDBRANCH   1   2
BRANCH   1   9
HETATM    9  C   UNK N   1      32.677  17.330   8.150  0.00  0.00     0.015 C 
BRANCH   9  10
HETATM   10  C   UNK N   1      33.207  16.479   6.989  0.00  0.00     0.045 C 
BRANCH  10  11
HETATM   11  S   UNK N   1      34.698  15.518   7.442  0.00  0.00    -0.177 SA
HETATM   12  H   UNK N   1      35.349  14.351   7.194  0.00  0.00     0.102 HD
ENDBRANCH  10  11
BRANCH  10  13
HETATM   13  C   UNK N   1      33.548  17.462   5.874  0.00  0.00     0.025 C 
BRANCH  13  14
HETATM   14  C   UNK N   1      32.569  17.427   4.714  0.00  0.00     0.072 C 
BRANCH  14  15
HETATM   15  S   UNK N   1      31.714  15.827   4.721  0.00  0.00    -0.182 SA
HETATM   16  H   UNK N   1      31.137  15.341   5.852  0.00  0.00     0.101 HD
ENDBRANCH  14  15
ENDBRANCH  13  14
ENDBRANCH  10  13
ENDBRANCH   9  10
ENDBRANCH   1   9
TORSDOF 9
ENDMDL
MODEL 6
REMARK VINA RESULT:      -3.9      2.795      3.245
REMARK  9 active torsions:
REMARK  status: ('A' for Active; 'I' for Inactive)
REMARK       I    between atoms: C_1  and  N_3 
REMARK    1  A    between atoms: C_1  and  C_4 
REMARK    2  A    between atoms: C_4  and  C_5 
REMARK    3  A    between atoms: C_5  and  C_6 
REMARK    4  A    between atoms: C_6  and  C_7 
REMARK    5  A    between atoms: C_7  and  C_8 
REMARK    6  A    between atoms: C_8  and  S_9 
REMARK    7  A    between atoms: C_8  and  C_10 
REMARK    8  A    between atoms: C_10  and  C_11 
REMARK    9  A    between atoms: C_11  and  S_12 
ROOT
HETATM    1  C   UNK N   1      31.258  16.812   7.973  0.00  0.00     0.002 C 
ENDROOT
BRANCH   1   2
HETATM    2  C   UNK N   1      32.036  18.092   8.205  0.00  0.00     0.009 C 
BRANCH   2   3
HETATM    3  C   UNK N   1      33.421  17.926   7.592  0.00  0.00     0.102 C 
BRANCH   3   4
HETATM    4  C   UNK N   1      34.511  18.171   8.593  0.00  0.00     0.215 C 
HETATM    5  O   UNK N   1      35.248  19.130   8.459  0.00  0.00    -0.274 OA
HETATM    6  N   UNK N   1      34.662  17.352   9.655  0.00  0.00    -0.370 N 
HETATM    7  H   UNK N   1      34.202  16.483   9.708  0.00  0.00     0.159 HD
HETATM    8  H   UNK N   1      35.247  17.629  10.396  0.00  0.00     0.159 HD
ENDBRANCH   3   4
ENDBRANCH   2   3
ENDBRANCH   1   2
BRANCH   1   9
HETATM    9  C   UNK N   1      31.259  16.345   6.520  0.00  0.00     0.015 C 
BRANCH   9  10
HETATM   10  C   UNK N   1      30.460  17.197   5.525  0.00  0.00     0.045 C 
BRANCH  10  11
HETATM   11  S   UNK N   1      29.013  16.308   4.841  0.00  0.00    -0.177 SA
HETATM   12  H   UNK N   1      27.841  15.717   5.194  0.00  0.00     0.102 HD
ENDBRANCH  10  11
BRANCH  10  13
HETATM   13  C   UNK N   1      31.430  17.542   4.401  0.00  0.00     0.025 C 
BRANCH  13  14
HETATM   14  C   UNK N   1      31.459  16.511   3.287  0.00  0.00     0.072 C 
BRANCH  14  15
HETATM   15  S   UNK N   1      33.176  15.991   3.017  0.00  0.00    -0.182 SA
HETATM   16  H   UNK N   1      33.998  15.705   4.062  0.00  0.00     0.101 HD
ENDBRANCH  14  15
ENDBRANCH  13  14
ENDBRANCH  10  13
ENDBRANCH   9  10
ENDBRANCH   1   9
TORSDOF 9
ENDMDL
MODEL 7
REMARK VINA RESULT:      -3.8      3.663      4.421
REMARK  9 active torsions:
REMARK  status: ('A' for Active; 'I' for Inactive)
REMARK       I    between atoms: C_1  and  N_3 
REMARK    1  A    between atoms: C_1  and  C_4 
REMARK    2  A    between atoms: C_4  and  C_5 
REMARK    3  A    between atoms: C_5  and  C_6 
REMARK    4  A    between atoms: C_6  and  C_7 
REMARK    5  A    between atoms: C_7  and  C_8 
REMARK    6  A    between atoms: C_8  and  S_9 
REMARK    7  A    between atoms: C_8  and  C_10 
REMARK    8  A    between atoms: C_10  and  C_11 
REMARK    9  A    between atoms: C_11  and  S_12 
ROOT
HETATM    1  C   UNK N   1      32.653  17.033   6.706  0.00  0.00     0.002 C 
ENDROOT
BRANCH   1   2
HETATM    2  C   UNK N   1      32.978  17.967   7.855  0.00  0.00     0.009 C 
BRANCH   2   3
HETATM    3  C   UNK N   1      34.461  17.829   8.177  0.00  0.00     0.102 C 
BRANCH   3   4
HETATM    4  C   UNK N   1      34.689  17.154   9.496  0.00  0.00     0.215 C 
HETATM    5  O   UNK N   1      35.595  17.528  10.217  0.00  0.00    -0.274 OA
HETATM    6  N   UNK N   1      33.879  16.153   9.902  0.00  0.00    -0.370 N 
HETATM    7  H   UNK N   1      33.249  15.714   9.285  0.00  0.00     0.159 HD
HETATM    8  H   UNK N   1      33.919  15.853  10.839  0.00  0.00     0.159 HD
ENDBRANCH   3   4
ENDBRANCH   2   3
ENDBRANCH   1   2
BRANCH   1   9
HETATM    9  C   UNK N   1      33.263  17.461   5.374  0.00  0.00     0.015 C 
BRANCH   9  10
HETATM   10  C   UNK N   1      32.285  17.696   4.216  0.00  0.00     0.045 C 
BRANCH  10  11
HETATM   11  S   UNK N   1      30.563  17.246   4.644  0.00  0.00    -0.177 SA
HETATM   12  H   UNK N   1      29.509  17.619   5.418  0.00  0.00     0.102 HD
ENDBRANCH  10  11
BRANCH  10  13
HETATM   13  C   UNK N   1      32.777  16.815   3.072  0.00  0.00     0.025 C 
BRANCH  13  14
HETATM   14  C   UNK N   1      32.472  15.341   3.268  0.00  0.00     0.072 C 
BRANCH  14  15
HETATM   15  S   UNK N   1      33.946  14.377   2.830  0.00  0.00    -0.182 SA
HETATM   16  H   UNK N   1      33.840  13.154   2.244  0.00  0.00     0.101 HD
ENDBRANCH  14  15
ENDBRANCH  13  14
ENDBRANCH  10  13
ENDBRANCH   9  10
ENDBRANCH   1   9
TORSDOF 9
ENDMDL
MODEL 8
REMARK VINA RESULT:      -3.8      1.550      2.154
REMARK  9 active torsions:
REMARK  status: ('A' for Active; 'I' for Inactive)
REMARK       I    between atoms: C_1  and  N_3 
REMARK    1  A    between atoms: C_1  and  C_4 
REMARK    2  A    between atoms: C_4  and  C_5 
REMARK    3  A    between atoms: C_5  and  C_6 
REMARK    4  A    between atoms: C_6  and  C_7 
REMARK    5  A    between atoms: C_7  and  C_8 
REMARK    6  A    between atoms: C_8  and  S_9 
REMARK    7  A    between atoms: C_8  and  C_10 
REMARK    8  A    between atoms: C_10  and  C_11 
REMARK    9  A    between atoms: C_11  and  S_12 
ROOT
HETATM    1  C   UNK N   1      31.375  16.686   7.001  0.00  0.00     0.002 C 
ENDROOT
BRANCH   1   2
HETATM    2  C   UNK N   1      32.126  17.424   8.092  0.00  0.00     0.009 C 
BRANCH   2   3
HETATM    3  C   UNK N   1      33.425  17.955   7.501  0.00  0.00     0.102 C 
BRANCH   3   4
HETATM    4  C   UNK N   1      34.473  18.172   8.551  0.00  0.00     0.215 C 
HETATM    5  O   UNK N   1      35.257  19.096   8.439  0.00  0.00    -0.274 OA
HETATM    6  N   UNK N   1      34.535  17.366   9.632  0.00  0.00    -0.370 N 
HETATM    7  H   UNK N   1      34.036  16.518   9.676  0.00  0.00     0.159 HD
HETATM    8  H   UNK N   1      35.095  17.632  10.397  0.00  0.00     0.159 HD
ENDBRANCH   3   4
ENDBRANCH   2   3
ENDBRANCH   1   2
BRANCH   1   9
HETATM    9  C   UNK N   1      30.053  17.342   6.611  0.00  0.00     0.015 C 
BRANCH   9  10
HETATM   10  C   UNK N   1      29.556  17.089   5.183  0.00  0.00     0.045 C 
BRANCH  10  11
HETATM   11  S   UNK N   1      30.927  16.867   3.989  0.00  0.00    -0.177 SA
HETATM   12  H   UNK N   1      31.361  17.247   2.758  0.00  0.00     0.102 HD
ENDBRANCH  10  11
BRANCH  10  13
HETATM   13  C   UNK N   1      28.739  18.319   4.803  0.00  0.00     0.025 C 
BRANCH  13  14
HETATM   14  C   UNK N   1      27.524  18.536   5.687  0.00  0.00     0.072 C 
BRANCH  14  15
HETATM   15  S   UNK N   1      27.488  20.271   6.214  0.00  0.00    -0.182 SA
HETATM   16  H   UNK N   1      27.844  20.631   7.477  0.00  0.00     0.101 HD
ENDBRANCH  14  15
ENDBRANCH  13  14
ENDBRANCH  10  13
ENDBRANCH   9  10
ENDBRANCH   1   9
TORSDOF 9
ENDMDL
MODEL 9
REMARK VINA RESULT:      -3.8      4.604      6.657
REMARK  9 active torsions:
REMARK  status: ('A' for Active; 'I' for Inactive)
REMARK       I    between atoms: C_1  and  N_3 
REMARK    1  A    between atoms: C_1  and  C_4 
REMARK    2  A    between atoms: C_4  and  C_5 
REMARK    3  A    between atoms: C_5  and  C_6 
REMARK    4  A    between atoms: C_6  and  C_7 
REMARK    5  A    between atoms: C_7  and  C_8 
REMARK    6  A    between atoms: C_8  and  S_9 
REMARK    7  A    between atoms: C_8  and  C_10 
REMARK    8  A    between atoms: C_10  and  C_11 
REMARK    9  A    between atoms: C_11  and  S_12 
ROOT
HETATM    1  C   UNK N   1      31.784  17.214   8.654  0.00  0.00     0.002 C 
ENDROOT
BRANCH   1   2
HETATM    2  C   UNK N   1      30.493  17.772   8.088  0.00  0.00     0.009 C 
BRANCH   2   3
HETATM    3  C   UNK N   1      29.722  18.435   9.223  0.00  0.00     0.102 C 
BRANCH   3   4
HETATM    4  C   UNK N   1      28.246  18.192   9.117  0.00  0.00     0.215 C 
HETATM    5  O   UNK N   1      27.769  17.167   9.569  0.00  0.00    -0.274 OA
HETATM    6  N   UNK N   1      27.440  19.113   8.548  0.00  0.00    -0.370 N 
HETATM    7  H   UNK N   1      27.801  19.867   8.027  0.00  0.00     0.159 HD
HETATM    8  H   UNK N   1      26.465  19.030   8.657  0.00  0.00     0.159 HD
ENDBRANCH   3   4
ENDBRANCH   2   3
ENDBRANCH   1   2
BRANCH   1   9
HETATM    9  C   UNK N   1      33.038  17.897   8.117  0.00  0.00     0.015 C 
BRANCH   9  10
HETATM   10  C   UNK N   1      34.329  17.071   8.132  0.00  0.00     0.045 C 
BRANCH  10  11
HETATM   11  S   UNK N   1      34.472  15.960   6.683  0.00  0.00    -0.177 SA
HETATM   12  H   UNK N   1      35.372  15.419   5.820  0.00  0.00     0.102 HD
ENDBRANCH  10  11
BRANCH  10  13
HETATM   13  C   UNK N   1      34.279  16.242   9.411  0.00  0.00     0.025 C 
BRANCH  13  14
HETATM   14  C   UNK N   1      35.591  15.554   9.740  0.00  0.00     0.072 C 
BRANCH  14  15
HETATM   15  S   UNK N   1      35.801  15.527  11.542  0.00  0.00    -0.182 SA
HETATM   16  H   UNK N   1      36.793  16.234  12.147  0.00  0.00     0.101 HD
ENDBRANCH  14  15
ENDBRANCH  13  14
ENDBRANCH  10  13
ENDBRANCH   9  10
ENDBRANCH   1   9
TORSDOF 9
ENDMDL
