REMARK  9 active torsions:
REMARK  status: ('A' for Active; 'I' for Inactive)
REMARK       I    between atoms: C_1  and  N_3 
REMARK    1  A    between atoms: C_1  and  C_4 
REMARK    2  A    between atoms: C_4  and  C_5 
REMARK    3  A    between atoms: C_5  and  C_6 
REMARK    4  A    between atoms: C_6  and  C_7 
REMARK    5  A    between atoms: C_7  and  C_8 
REMARK    6  A    between atoms: C_8  and  S_9 
REMARK    7  A    between atoms: C_8  and  C_10 
REMARK    8  A    between atoms: C_10  and  C_11 
REMARK    9  A    between atoms: C_11  and  S_12 
ROOT
HETATM    1  C   UNK N   1      -0.821   0.340   0.417  0.00  0.00     0.002 C 
ENDROOT
BRANCH   1   2
HETATM    2  C   UNK N   1      -1.626  -0.611  -0.447  0.00  0.00     0.009 C 
BRANCH   2   3
HETATM    3  C   UNK N   1      -2.934  -0.916   0.271  0.00  0.00     0.102 C 
BRANCH   3   4
HETATM    4  C   UNK N   1      -3.978   0.127   0.004  0.00  0.00     0.215 C 
HETATM    5  O   UNK N   1      -5.050  -0.200  -0.470  0.00  0.00    -0.274 OA
HETATM    6  N   UNK N   1      -3.747   1.421   0.311  0.00  0.00    -0.370 N 
HETATM    7  H   UNK N   1      -2.845   1.747   0.535  0.00  0.00     0.159 HD
HETATM    8  H   UNK N   1      -4.499   2.056   0.311  0.00  0.00     0.159 HD
ENDBRANCH   3   4
ENDBRANCH   2   3
ENDBRANCH   1   2
BRANCH   1   9
HETATM    9  C   UNK N   1       0.525   0.730  -0.186  0.00  0.00     0.015 C 
BRANCH   9  10
HETATM   10  C   UNK N   1       1.620  -0.344  -0.173  0.00  0.00     0.045 C 
BRANCH  10  11
HETATM   11  S   UNK N   1       1.454  -1.503   1.235  0.00  0.00    -0.177 SA
HETATM   12  H   UNK N   1       0.647  -1.826   2.280  0.00  0.00     0.102 HD
ENDBRANCH  10  11
BRANCH  10  13
HETATM   13  C   UNK N   1       2.941   0.410  -0.065  0.00  0.00     0.025 C 
BRANCH  13  14
HETATM   14  C   UNK N   1       4.158  -0.497  -0.060  0.00  0.00     0.072 C 
BRANCH  14  15
HETATM   15  S   UNK N   1       5.631   0.504   0.286  0.00  0.00    -0.182 SA
HETATM   16  H   UNK N   1       6.833  -0.077   0.546  0.00  0.00     0.101 HD
ENDBRANCH  14  15
ENDBRANCH  13  14
ENDBRANCH  10  13
ENDBRANCH   9  10
ENDBRANCH   1   9
TORSDOF 9
