MODEL 1
REMARK VINA RESULT:      -7.7      0.000      0.000
REMARK  7 active torsions:
REMARK  status: ('A' for Active; 'I' for Inactive)
REMARK    1  A    between atoms: C_6  and  C_7 
REMARK    2  A    between atoms: C_7  and  C_8 
REMARK    3  A    between atoms: C_8  and  C_9 
REMARK    4  A    between atoms: C_8  and  O_12 
REMARK    5  A    between atoms: C_9  and  O_10 
REMARK    6  A    between atoms: O_12  and  C_13 
REMARK    7  A    between atoms: C_19  and  C_18 
ROOT
HETATM    1  O   UNK N   1      32.694  16.705   8.736  0.00  0.00    -0.335 OA
ENDROOT
BRANCH   1   2
HETATM    2  C   UNK N   1      31.441  17.077   8.353  0.00  0.00     0.070 A 
HETATM    3  C   UNK N   1      30.785  16.368   7.341  0.00  0.00     0.037 A 
HETATM    4  C   UNK N   1      29.592  16.866   6.797  0.00  0.00     0.015 A 
HETATM    5  C   UNK N   1      29.046  18.072   7.273  0.00  0.00    -0.026 A 
HETATM    6  C   UNK N   1      29.668  18.730   8.339  0.00  0.00     0.015 A 
HETATM    7  C   UNK N   1      30.850  18.238   8.874  0.00  0.00     0.037 A 
BRANCH   5   8
HETATM    8  C   UNK N   1      27.899  18.718   6.593  0.00  0.00    -0.026 A 
HETATM    9  C   UNK N   1      27.136  18.021   5.644  0.00  0.00     0.012 A 
HETATM   10  C   UNK N   1      26.117  18.672   4.943  0.00  0.00     0.001 A 
HETATM   11  C   UNK N   1      25.860  20.026   5.177  0.00  0.00     0.000 A 
HETATM   12  C   UNK N   1      26.613  20.730   6.118  0.00  0.00     0.001 A 
HETATM   13  C   UNK N   1      27.630  20.080   6.820  0.00  0.00     0.012 A 
ENDBRANCH   5   8
ENDBRANCH   1   2
BRANCH   1  14
HETATM   14  C   UNK N   1      33.830  17.029   8.004  0.00  0.00     0.230 C 
BRANCH  14  15
HETATM   15  C   UNK N   1      33.398  17.828   6.763  0.00  0.00     0.082 C 
BRANCH  15  16
HETATM   16  C   UNK N   1      33.384  17.104   5.440  0.00  0.00    -0.055 A 
HETATM   17  C   UNK N   1      34.064  15.886   5.339  0.00  0.00     0.007 A 
HETATM   18  C   UNK N   1      34.067  15.174   4.135  0.00  0.00     0.001 A 
HETATM   19  C   UNK N   1      33.389  15.679   3.022  0.00  0.00     0.000 A 
HETATM   20  C   UNK N   1      32.716  16.898   3.110  0.00  0.00     0.001 A 
HETATM   21  C   UNK N   1      32.719  17.612   4.311  0.00  0.00     0.007 A 
ENDBRANCH  15  16
ENDBRANCH  14  15
BRANCH  14  22
HETATM   22  C   UNK N   1      34.798  17.855   8.851  0.00  0.00     0.170 C 
HETATM   23  O   UNK N   1      35.253  17.394   9.895  0.00  0.00    -0.648 OA
BRANCH  22  24
HETATM   24  O   UNK N   1      35.193  19.074   8.459  0.00  0.00    -0.774 OA
HETATM   25  H   UNK N   1      35.761  19.167   7.720  0.00  0.00     0.167 HD
ENDBRANCH  22  24
ENDBRANCH  14  22
ENDBRANCH   1  14
TORSDOF 7
ENDMDL
MODEL 2
REMARK VINA RESULT:      -7.7     10.911     12.824
REMARK  7 active torsions:
REMARK  status: ('A' for Active; 'I' for Inactive)
REMARK    1  A    between atoms: C_6  and  C_7 
REMARK    2  A    between atoms: C_7  and  C_8 
REMARK    3  A    between atoms: C_8  and  C_9 
REMARK    4  A    between atoms: C_8  and  O_12 
REMARK    5  A    between atoms: C_9  and  O_10 
REMARK    6  A    between atoms: O_12  and  C_13 
REMARK    7  A    between atoms: C_19  and  C_18 
ROOT
HETATM    1  O   UNK N   1      31.206  22.730  -2.583  0.00  0.00    -0.335 OA
ENDROOT
BRANCH   1   2
HETATM    2  C   UNK N   1      30.153  23.559  -2.829  0.00  0.00     0.070 A 
HETATM    3  C   UNK N   1      28.851  23.133  -2.543  0.00  0.00     0.037 A 
HETATM    4  C   UNK N   1      27.755  23.888  -2.984  0.00  0.00     0.015 A 
HETATM    5  C   UNK N   1      27.958  25.079  -3.705  0.00  0.00    -0.026 A 
HETATM    6  C   UNK N   1      29.264  25.535  -3.916  0.00  0.00     0.015 A 
HETATM    7  C   UNK N   1      30.348  24.786  -3.482  0.00  0.00     0.037 A 
BRANCH   5   8
HETATM    8  C   UNK N   1      26.830  25.792  -4.345  0.00  0.00    -0.026 A 
HETATM    9  C   UNK N   1      26.272  25.330  -5.547  0.00  0.00     0.012 A 
HETATM   10  C   UNK N   1      25.271  26.065  -6.188  0.00  0.00     0.001 A 
HETATM   11  C   UNK N   1      24.826  27.272  -5.640  0.00  0.00     0.000 A 
HETATM   12  C   UNK N   1      25.374  27.741  -4.445  0.00  0.00     0.001 A 
HETATM   13  C   UNK N   1      26.373  27.007  -3.803  0.00  0.00     0.012 A 
ENDBRANCH   5   8
ENDBRANCH   1   2
BRANCH   1  14
HETATM   14  C   UNK N   1      31.474  21.608  -3.357  0.00  0.00     0.230 C 
BRANCH  14  15
HETATM   15  C   UNK N   1      31.605  22.048  -4.824  0.00  0.00     0.082 C 
BRANCH  15  16
HETATM   16  C   UNK N   1      30.591  21.511  -5.804  0.00  0.00    -0.055 A 
HETATM   17  C   UNK N   1      29.509  22.323  -6.158  0.00  0.00     0.007 A 
HETATM   18  C   UNK N   1      28.553  21.870  -7.073  0.00  0.00     0.001 A 
HETATM   19  C   UNK N   1      28.673  20.598  -7.640  0.00  0.00     0.000 A 
HETATM   20  C   UNK N   1      29.745  19.776  -7.286  0.00  0.00     0.001 A 
HETATM   21  C   UNK N   1      30.696  20.227  -6.366  0.00  0.00     0.007 A 
ENDBRANCH  15  16
ENDBRANCH  14  15
BRANCH  14  22
HETATM   22  C   UNK N   1      32.764  20.931  -2.893  0.00  0.00     0.170 C 
HETATM   23  O   UNK N   1      33.328  21.313  -1.871  0.00  0.00    -0.648 OA
BRANCH  22  24
HETATM   24  O   UNK N   1      33.281  19.894  -3.566  0.00  0.00    -0.774 OA
HETATM   25  H   UNK N   1      32.765  19.447  -4.208  0.00  0.00     0.167 HD
ENDBRANCH  22  24
ENDBRANCH  14  22
ENDBRANCH   1  14
TORSDOF 7
ENDMDL
MODEL 3
REMARK VINA RESULT:      -7.6      2.285      5.229
REMARK  7 active torsions:
REMARK  status: ('A' for Active; 'I' for Inactive)
REMARK    1  A    between atoms: C_6  and  C_7 
REMARK    2  A    between atoms: C_7  and  C_8 
REMARK    3  A    between atoms: C_8  and  C_9 
REMARK    4  A    between atoms: C_8  and  O_12 
REMARK    5  A    between atoms: C_9  and  O_10 
REMARK    6  A    between atoms: O_12  and  C_13 
REMARK    7  A    between atoms: C_19  and  C_18 
ROOT
HETATM    1  O   UNK N   1      34.211  17.644   6.371  0.00  0.00    -0.335 OA
ENDROOT
BRANCH   1   2
HETATM    2  C   UNK N   1      33.518  16.951   5.424  0.00  0.00     0.070 A 
HETATM    3  C   UNK N   1      32.711  17.639   4.512  0.00  0.00     0.037 A 
HETATM    4  C   UNK N   1      31.837  16.928   3.676  0.00  0.00     0.015 A 
HETATM    5  C   UNK N   1      31.776  15.525   3.745  0.00  0.00    -0.026 A 
HETATM    6  C   UNK N   1      32.645  14.844   4.604  0.00  0.00     0.015 A 
HETATM    7  C   UNK N   1      33.506  15.548   5.433  0.00  0.00     0.037 A 
BRANCH   5   8
HETATM    8  C   UNK N   1      30.734  14.764   3.018  0.00  0.00    -0.026 A 
HETATM    9  C   UNK N   1      30.972  13.454   2.576  0.00  0.00     0.012 A 
HETATM   10  C   UNK N   1      30.014  12.783   1.810  0.00  0.00     0.001 A 
HETATM   11  C   UNK N   1      28.816  13.419   1.471  0.00  0.00     0.000 A 
HETATM   12  C   UNK N   1      28.569  14.722   1.904  0.00  0.00     0.001 A 
HETATM   13  C   UNK N   1      29.524  15.392   2.671  0.00  0.00     0.012 A 
ENDBRANCH   5   8
ENDBRANCH   1   2
BRANCH   1  14
HETATM   14  C   UNK N   1      33.628  18.093   7.550  0.00  0.00     0.230 C 
BRANCH  14  15
HETATM   15  C   UNK N   1      32.604  17.045   8.016  0.00  0.00     0.082 C 
BRANCH  15  16
HETATM   16  C   UNK N   1      31.154  17.461   8.058  0.00  0.00    -0.055 A 
HETATM   17  C   UNK N   1      30.279  16.927   7.107  0.00  0.00     0.007 A 
HETATM   18  C   UNK N   1      28.924  17.276   7.117  0.00  0.00     0.001 A 
HETATM   19  C   UNK N   1      28.436  18.162   8.081  0.00  0.00     0.000 A 
HETATM   20  C   UNK N   1      29.304  18.707   9.030  0.00  0.00     0.001 A 
HETATM   21  C   UNK N   1      30.659  18.364   9.014  0.00  0.00     0.007 A 
ENDBRANCH  15  16
ENDBRANCH  14  15
BRANCH  14  22
HETATM   22  C   UNK N   1      34.691  18.306   8.628  0.00  0.00     0.170 C 
HETATM   23  O   UNK N   1      34.873  17.454   9.494  0.00  0.00    -0.648 OA
BRANCH  22  24
HETATM   24  O   UNK N   1      35.462  19.402   8.630  0.00  0.00    -0.774 OA
HETATM   25  H   UNK N   1      35.076  20.247   8.750  0.00  0.00     0.167 HD
ENDBRANCH  22  24
ENDBRANCH  14  22
ENDBRANCH   1  14
TORSDOF 7
ENDMDL
MODEL 4
REMARK VINA RESULT:      -7.4      1.512      2.267
REMARK  7 active torsions:
REMARK  status: ('A' for Active; 'I' for Inactive)
REMARK    1  A    between atoms: C_6  and  C_7 
REMARK    2  A    between atoms: C_7  and  C_8 
REMARK    3  A    between atoms: C_8  and  C_9 
REMARK    4  A    between atoms: C_8  and  O_12 
REMARK    5  A    between atoms: C_9  and  O_10 
REMARK    6  A    between atoms: O_12  and  C_13 
REMARK    7  A    between atoms: C_19  and  C_18 
ROOT
HETATM    1  O   UNK N   1      30.585  17.149   8.445  0.00  0.00    -0.335 OA
ENDROOT
BRANCH   1   2
HETATM    2  C   UNK N   1      29.497  17.545   7.726  0.00  0.00     0.070 A 
HETATM    3  C   UNK N   1      29.069  16.779   6.636  0.00  0.00     0.037 A 
HETATM    4  C   UNK N   1      28.089  17.283   5.768  0.00  0.00     0.015 A 
HETATM    5  C   UNK N   1      27.526  18.552   5.997  0.00  0.00    -0.026 A 
HETATM    6  C   UNK N   1      27.904  19.273   7.134  0.00  0.00     0.015 A 
HETATM    7  C   UNK N   1      28.876  18.775   7.989  0.00  0.00     0.037 A 
BRANCH   5   8
HETATM    8  C   UNK N   1      26.635  19.188   4.999  0.00  0.00    -0.026 A 
HETATM    9  C   UNK N   1      25.282  18.827   4.904  0.00  0.00     0.012 A 
HETATM   10  C   UNK N   1      24.477  19.367   3.897  0.00  0.00     0.001 A 
HETATM   11  C   UNK N   1      25.020  20.264   2.971  0.00  0.00     0.000 A 
HETATM   12  C   UNK N   1      26.364  20.629   3.056  0.00  0.00     0.001 A 
HETATM   13  C   UNK N   1      27.168  20.092   4.062  0.00  0.00     0.012 A 
ENDBRANCH   5   8
ENDBRANCH   1   2
BRANCH   1  14
HETATM   14  C   UNK N   1      31.582  16.341   7.913  0.00  0.00     0.230 C 
BRANCH  14  15
HETATM   15  C   UNK N   1      32.539  17.223   7.095  0.00  0.00     0.082 C 
BRANCH  15  16
HETATM   16  C   UNK N   1      32.741  16.869   5.643  0.00  0.00    -0.055 A 
HETATM   17  C   UNK N   1      33.583  15.797   5.329  0.00  0.00     0.007 A 
HETATM   18  C   UNK N   1      33.789  15.426   3.996  0.00  0.00     0.001 A 
HETATM   19  C   UNK N   1      33.153  16.127   2.967  0.00  0.00     0.000 A 
HETATM   20  C   UNK N   1      32.318  17.204   3.271  0.00  0.00     0.001 A 
HETATM   21  C   UNK N   1      32.119  17.578   4.602  0.00  0.00     0.007 A 
ENDBRANCH  15  16
ENDBRANCH  14  15
BRANCH  14  22
HETATM   22  C   UNK N   1      32.346  15.627   9.029  0.00  0.00     0.170 C 
HETATM   23  O   UNK N   1      33.555  15.436   8.925  0.00  0.00    -0.648 OA
BRANCH  22  24
HETATM   24  O   UNK N   1      31.724  15.228  10.147  0.00  0.00    -0.774 OA
HETATM   25  H   UNK N   1      31.992  15.568  10.979  0.00  0.00     0.167 HD
ENDBRANCH  22  24
ENDBRANCH  14  22
ENDBRANCH   1  14
TORSDOF 7
ENDMDL
MODEL 5
REMARK VINA RESULT:      -7.3     13.890     16.453
REMARK  7 active torsions:
REMARK  status: ('A' for Active; 'I' for Inactive)
REMARK    1  A    between atoms: C_6  and  C_7 
REMARK    2  A    between atoms: C_7  and  C_8 
REMARK    3  A    between atoms: C_8  and  C_9 
REMARK    4  A    between atoms: C_8  and  O_12 
REMARK    5  A    between atoms: C_9  and  O_10 
REMARK    6  A    between atoms: O_12  and  C_13 
REMARK    7  A    between atoms: C_19  and  C_18 
ROOT
HETATM    1  O   UNK N   1      25.181  24.950  -7.785  0.00  0.00    -0.335 OA
ENDROOT
BRANCH   1   2
HETATM    2  C   UNK N   1      25.576  26.078  -7.130  0.00  0.00     0.070 A 
HETATM    3  C   UNK N   1      26.774  26.705  -7.486  0.00  0.00     0.037 A 
HETATM    4  C   UNK N   1      27.290  27.735  -6.687  0.00  0.00     0.015 A 
HETATM    5  C   UNK N   1      26.602  28.148  -5.531  0.00  0.00    -0.026 A 
HETATM    6  C   UNK N   1      25.365  27.567  -5.229  0.00  0.00     0.015 A 
HETATM    7  C   UNK N   1      24.857  26.546  -6.019  0.00  0.00     0.037 A 
BRANCH   5   8
HETATM    8  C   UNK N   1      27.212  29.093  -4.568  0.00  0.00    -0.026 A 
HETATM    9  C   UNK N   1      27.903  30.230  -5.013  0.00  0.00     0.012 A 
HETATM   10  C   UNK N   1      28.554  31.062  -4.097  0.00  0.00     0.001 A 
HETATM   11  C   UNK N   1      28.528  30.759  -2.732  0.00  0.00     0.000 A 
HETATM   12  C   UNK N   1      27.845  29.629  -2.280  0.00  0.00     0.001 A 
HETATM   13  C   UNK N   1      27.193  28.799  -3.193  0.00  0.00     0.012 A 
ENDBRANCH   5   8
ENDBRANCH   1   2
BRANCH   1  14
HETATM   14  C   UNK N   1      25.879  23.752  -7.702  0.00  0.00     0.230 C 
BRANCH  14  15
HETATM   15  C   UNK N   1      25.891  23.295  -6.234  0.00  0.00     0.082 C 
BRANCH  15  16
HETATM   16  C   UNK N   1      27.024  23.780  -5.364  0.00  0.00    -0.055 A 
HETATM   17  C   UNK N   1      26.730  24.217  -4.068  0.00  0.00     0.007 A 
HETATM   18  C   UNK N   1      27.752  24.664  -3.223  0.00  0.00     0.001 A 
HETATM   19  C   UNK N   1      29.076  24.676  -3.671  0.00  0.00     0.000 A 
HETATM   20  C   UNK N   1      29.378  24.251  -4.966  0.00  0.00     0.001 A 
HETATM   21  C   UNK N   1      28.356  23.812  -5.812  0.00  0.00     0.007 A 
ENDBRANCH  15  16
ENDBRANCH  14  15
BRANCH  14  22
HETATM   22  C   UNK N   1      25.223  22.686  -8.580  0.00  0.00     0.170 C 
HETATM   23  O   UNK N   1      25.738  22.361  -9.647  0.00  0.00    -0.648 OA
BRANCH  22  24
HETATM   24  O   UNK N   1      24.101  22.066  -8.192  0.00  0.00    -0.774 OA
HETATM   25  H   UNK N   1      24.150  21.249  -7.735  0.00  0.00     0.167 HD
ENDBRANCH  22  24
ENDBRANCH  14  22
ENDBRANCH   1  14
TORSDOF 7
ENDMDL
MODEL 6
REMARK VINA RESULT:      -7.3      4.478      8.424
REMARK  7 active torsions:
REMARK  status: ('A' for Active; 'I' for Inactive)
REMARK    1  A    between atoms: C_6  and  C_7 
REMARK    2  A    between atoms: C_7  and  C_8 
REMARK    3  A    between atoms: C_8  and  C_9 
REMARK    4  A    between atoms: C_8  and  O_12 
REMARK    5  A    between atoms: C_9  and  O_10 
REMARK    6  A    between atoms: O_12  and  C_13 
REMARK    7  A    between atoms: C_19  and  C_18 
ROOT
HETATM    1  O   UNK N   1      34.399  17.305   9.415  0.00  0.00    -0.335 OA
ENDROOT
BRANCH   1   2
HETATM    2  C   UNK N   1      34.778  16.267  10.213  0.00  0.00     0.070 A 
HETATM    3  C   UNK N   1      34.036  15.082  10.211  0.00  0.00     0.037 A 
HETATM    4  C   UNK N   1      34.291  14.094  11.174  0.00  0.00     0.015 A 
HETATM    5  C   UNK N   1      35.298  14.288  12.137  0.00  0.00    -0.026 A 
HETATM    6  C   UNK N   1      36.085  15.442  12.080  0.00  0.00     0.015 A 
HETATM    7  C   UNK N   1      35.830  16.420  11.129  0.00  0.00     0.037 A 
BRANCH   5   8
HETATM    8  C   UNK N   1      35.460  13.356  13.277  0.00  0.00    -0.026 A 
HETATM    9  C   UNK N   1      34.751  12.146  13.327  0.00  0.00     0.012 A 
HETATM   10  C   UNK N   1      34.844  11.321  14.452  0.00  0.00     0.001 A 
HETATM   11  C   UNK N   1      35.636  11.703  15.539  0.00  0.00     0.000 A 
HETATM   12  C   UNK N   1      36.344  12.905  15.500  0.00  0.00     0.001 A 
HETATM   13  C   UNK N   1      36.255  13.729  14.376  0.00  0.00     0.012 A 
ENDBRANCH   5   8
ENDBRANCH   1   2
BRANCH   1  14
HETATM   14  C   UNK N   1      33.504  17.153   8.363  0.00  0.00     0.230 C 
BRANCH  14  15
HETATM   15  C   UNK N   1      32.542  18.352   8.365  0.00  0.00     0.082 C 
BRANCH  15  16
HETATM   16  C   UNK N   1      31.063  18.056   8.340  0.00  0.00    -0.055 A 
HETATM   17  C   UNK N   1      30.561  17.251   7.312  0.00  0.00     0.007 A 
HETATM   18  C   UNK N   1      29.198  16.941   7.257  0.00  0.00     0.001 A 
HETATM   19  C   UNK N   1      28.327  17.436   8.232  0.00  0.00     0.000 A 
HETATM   20  C   UNK N   1      28.817  18.247   9.257  0.00  0.00     0.001 A 
HETATM   21  C   UNK N   1      30.178  18.562   9.306  0.00  0.00     0.007 A 
ENDBRANCH  15  16
ENDBRANCH  14  15
BRANCH  14  22
HETATM   22  C   UNK N   1      34.250  17.078   7.030  0.00  0.00     0.170 C 
HETATM   23  O   UNK N   1      34.152  17.992   6.215  0.00  0.00    -0.648 OA
BRANCH  22  24
HETATM   24  O   UNK N   1      35.046  16.039   6.741  0.00  0.00    -0.774 OA
HETATM   25  H   UNK N   1      35.563  16.048   5.960  0.00  0.00     0.167 HD
ENDBRANCH  22  24
ENDBRANCH  14  22
ENDBRANCH   1  14
TORSDOF 7
ENDMDL
MODEL 7
REMARK VINA RESULT:      -7.3      6.953      9.971
REMARK  7 active torsions:
REMARK  status: ('A' for Active; 'I' for Inactive)
REMARK    1  A    between atoms: C_6  and  C_7 
REMARK    2  A    between atoms: C_7  and  C_8 
REMARK    3  A    between atoms: C_8  and  C_9 
REMARK    4  A    between atoms: C_8  and  O_12 
REMARK    5  A    between atoms: C_9  and  O_10 
REMARK    6  A    between atoms: O_12  and  C_13 
REMARK    7  A    between atoms: C_19  and  C_18 
ROOT
HETATM    1  O   UNK N   1      35.419  12.613  13.093  0.00  0.00    -0.335 OA
ENDROOT
BRANCH   1   2
HETATM    2  C   UNK N   1      35.383  13.411  11.989  0.00  0.00     0.070 A 
HETATM    3  C   UNK N   1      35.547  14.793  12.126  0.00  0.00     0.037 A 
HETATM    4  C   UNK N   1      35.305  15.639  11.033  0.00  0.00     0.015 A 
HETATM    5  C   UNK N   1      34.906  15.100   9.796  0.00  0.00    -0.026 A 
HETATM    6  C   UNK N   1      34.822  13.712   9.651  0.00  0.00     0.015 A 
HETATM    7  C   UNK N   1      35.059  12.877  10.733  0.00  0.00     0.037 A 
BRANCH   5   8
HETATM    8  C   UNK N   1      34.459  15.973   8.686  0.00  0.00    -0.026 A 
HETATM    9  C   UNK N   1      34.330  15.473   7.381  0.00  0.00     0.012 A 
HETATM   10  C   UNK N   1      33.998  16.330   6.328  0.00  0.00     0.001 A 
HETATM   11  C   UNK N   1      33.804  17.693   6.567  0.00  0.00     0.000 A 
HETATM   12  C   UNK N   1      33.931  18.201   7.861  0.00  0.00     0.001 A 
HETATM   13  C   UNK N   1      34.260  17.347   8.914  0.00  0.00     0.012 A 
ENDBRANCH   5   8
ENDBRANCH   1   2
BRANCH   1  14
HETATM   14  C   UNK N   1      35.549  13.119  14.380  0.00  0.00     0.230 C 
BRANCH  14  15
HETATM   15  C   UNK N   1      34.621  12.324  15.313  0.00  0.00     0.082 C 
BRANCH  15  16
HETATM   16  C   UNK N   1      34.910  12.379  16.793  0.00  0.00    -0.055 A 
HETATM   17  C   UNK N   1      35.214  11.187  17.458  0.00  0.00     0.007 A 
HETATM   18  C   UNK N   1      35.501  11.193  18.827  0.00  0.00     0.001 A 
HETATM   19  C   UNK N   1      35.484  12.395  19.541  0.00  0.00     0.000 A 
HETATM   20  C   UNK N   1      35.172  13.589  18.888  0.00  0.00     0.001 A 
HETATM   21  C   UNK N   1      34.879  13.580  17.521  0.00  0.00     0.007 A 
ENDBRANCH  15  16
ENDBRANCH  14  15
BRANCH  14  22
HETATM   22  C   UNK N   1      36.998  13.007  14.857  0.00  0.00     0.170 C 
HETATM   23  O   UNK N   1      37.594  11.936  14.773  0.00  0.00    -0.648 OA
BRANCH  22  24
HETATM   24  O   UNK N   1      37.651  14.072  15.340  0.00  0.00    -0.774 OA
HETATM   25  H   UNK N   1      38.110  14.645  14.757  0.00  0.00     0.167 HD
ENDBRANCH  22  24
ENDBRANCH  14  22
ENDBRANCH   1  14
TORSDOF 7
ENDMDL
MODEL 8
REMARK VINA RESULT:      -7.2     12.251     15.689
REMARK  7 active torsions:
REMARK  status: ('A' for Active; 'I' for Inactive)
REMARK    1  A    between atoms: C_6  and  C_7 
REMARK    2  A    between atoms: C_7  and  C_8 
REMARK    3  A    between atoms: C_8  and  C_9 
REMARK    4  A    between atoms: C_8  and  O_12 
REMARK    5  A    between atoms: C_9  and  O_10 
REMARK    6  A    between atoms: O_12  and  C_13 
REMARK    7  A    between atoms: C_19  and  C_18 
ROOT
HETATM    1  O   UNK N   1      27.442  22.726  -7.565  0.00  0.00    -0.335 OA
ENDROOT
BRANCH   1   2
HETATM    2  C   UNK N   1      28.415  22.128  -6.820  0.00  0.00     0.070 A 
HETATM    3  C   UNK N   1      28.904  22.765  -5.675  0.00  0.00     0.037 A 
HETATM    4  C   UNK N   1      30.041  22.264  -5.026  0.00  0.00     0.015 A 
HETATM    5  C   UNK N   1      30.687  21.114  -5.516  0.00  0.00    -0.026 A 
HETATM    6  C   UNK N   1      30.142  20.440  -6.615  0.00  0.00     0.015 A 
HETATM    7  C   UNK N   1      29.019  20.940  -7.258  0.00  0.00     0.037 A 
BRANCH   5   8
HETATM    8  C   UNK N   1      31.992  20.674  -4.971  0.00  0.00    -0.026 A 
HETATM    9  C   UNK N   1      32.432  21.109  -3.712  0.00  0.00     0.012 A 
HETATM   10  C   UNK N   1      33.705  20.761  -3.252  0.00  0.00     0.001 A 
HETATM   11  C   UNK N   1      34.552  19.985  -4.049  0.00  0.00     0.000 A 
HETATM   12  C   UNK N   1      34.124  19.547  -5.304  0.00  0.00     0.001 A 
HETATM   13  C   UNK N   1      32.852  19.892  -5.764  0.00  0.00     0.012 A 
ENDBRANCH   5   8
ENDBRANCH   1   2
BRANCH   1  14
HETATM   14  C   UNK N   1      26.160  22.951  -7.080  0.00  0.00     0.230 C 
BRANCH  14  15
HETATM   15  C   UNK N   1      25.786  24.417  -7.354  0.00  0.00     0.082 C 
BRANCH  15  16
HETATM   16  C   UNK N   1      25.777  25.364  -6.180  0.00  0.00    -0.055 A 
HETATM   17  C   UNK N   1      26.314  24.925  -4.965  0.00  0.00     0.007 A 
HETATM   18  C   UNK N   1      26.338  25.775  -3.854  0.00  0.00     0.001 A 
HETATM   19  C   UNK N   1      25.824  27.071  -3.952  0.00  0.00     0.000 A 
HETATM   20  C   UNK N   1      25.278  27.515  -5.158  0.00  0.00     0.001 A 
HETATM   21  C   UNK N   1      25.248  26.663  -6.265  0.00  0.00     0.007 A 
ENDBRANCH  15  16
ENDBRANCH  14  15
BRANCH  14  22
HETATM   22  C   UNK N   1      25.157  22.016  -7.757  0.00  0.00     0.170 C 
HETATM   23  O   UNK N   1      25.411  20.819  -7.874  0.00  0.00    -0.648 OA
BRANCH  22  24
HETATM   24  O   UNK N   1      23.978  22.471  -8.201  0.00  0.00    -0.774 OA
HETATM   25  H   UNK N   1      23.213  22.393  -7.665  0.00  0.00     0.167 HD
ENDBRANCH  22  24
ENDBRANCH  14  22
ENDBRANCH   1  14
TORSDOF 7
ENDMDL
MODEL 9
REMARK VINA RESULT:      -7.2      6.137      9.442
REMARK  7 active torsions:
REMARK  status: ('A' for Active; 'I' for Inactive)
REMARK    1  A    between atoms: C_6  and  C_7 
REMARK    2  A    between atoms: C_7  and  C_8 
REMARK    3  A    between atoms: C_8  and  C_9 
REMARK    4  A    between atoms: C_8  and  O_12 
REMARK    5  A    between atoms: C_9  and  O_10 
REMARK    6  A    between atoms: O_12  and  C_13 
REMARK    7  A    between atoms: C_19  and  C_18 
ROOT
HETATM    1  O   UNK N   1      35.112  13.538  13.418  0.00  0.00    -0.335 OA
ENDROOT
BRANCH   1   2
HETATM    2  C   UNK N   1      35.188  14.139  12.197  0.00  0.00     0.070 A 
HETATM    3  C   UNK N   1      35.404  15.519  12.114  0.00  0.00     0.037 A 
HETATM    4  C   UNK N   1      35.276  16.175  10.882  0.00  0.00     0.015 A 
HETATM    5  C   UNK N   1      34.939  15.450   9.725  0.00  0.00    -0.026 A 
HETATM    6  C   UNK N   1      34.803  14.060   9.805  0.00  0.00     0.015 A 
HETATM    7  C   UNK N   1      34.927  13.412  11.026  0.00  0.00     0.037 A 
BRANCH   5   8
HETATM    8  C   UNK N   1      34.609  16.137   8.455  0.00  0.00    -0.026 A 
HETATM    9  C   UNK N   1      34.048  17.423   8.455  0.00  0.00     0.012 A 
HETATM   10  C   UNK N   1      33.656  18.021   7.254  0.00  0.00     0.001 A 
HETATM   11  C   UNK N   1      33.810  17.335   6.045  0.00  0.00     0.000 A 
HETATM   12  C   UNK N   1      34.366  16.055   6.034  0.00  0.00     0.001 A 
HETATM   13  C   UNK N   1      34.761  15.458   7.233  0.00  0.00     0.012 A 
ENDBRANCH   5   8
ENDBRANCH   1   2
BRANCH   1  14
HETATM   14  C   UNK N   1      35.456  12.207  13.620  0.00  0.00     0.230 C 
BRANCH  14  15
HETATM   15  C   UNK N   1      36.341  12.119  14.874  0.00  0.00     0.082 C 
BRANCH  15  16
HETATM   16  C   UNK N   1      36.364  13.313  15.795  0.00  0.00    -0.055 A 
HETATM   17  C   UNK N   1      35.554  13.292  16.935  0.00  0.00     0.007 A 
HETATM   18  C   UNK N   1      35.554  14.374  17.823  0.00  0.00     0.001 A 
HETATM   19  C   UNK N   1      36.365  15.484  17.575  0.00  0.00     0.000 A 
HETATM   20  C   UNK N   1      37.170  15.518  16.434  0.00  0.00     0.001 A 
HETATM   21  C   UNK N   1      37.164  14.441  15.544  0.00  0.00     0.007 A 
ENDBRANCH  15  16
ENDBRANCH  14  15
BRANCH  14  22
HETATM   22  C   UNK N   1      34.203  11.349  13.798  0.00  0.00     0.170 C 
HETATM   23  O   UNK N   1      33.602  11.348  14.869  0.00  0.00    -0.648 OA
BRANCH  22  24
HETATM   24  O   UNK N   1      33.720  10.614  12.787  0.00  0.00    -0.774 OA
HETATM   25  H   UNK N   1      33.012  10.018  12.937  0.00  0.00     0.167 HD
ENDBRANCH  22  24
ENDBRANCH  14  22
ENDBRANCH   1  14
TORSDOF 7
ENDMDL
