MODEL 1
REMARK VINA RESULT:      -7.7      0.000      0.000
REMARK  4 active torsions:
REMARK  status: ('A' for Active; 'I' for Inactive)
REMARK    1  A    between atoms: C_11  and  N_12 
REMARK    2  A    between atoms: N_12  and  C_13 
REMARK    3  A    between atoms: C_16  and  S_19 
REMARK    4  A    between atoms: S_19  and  N_22 
ROOT
HETATM    1  N   UNK N   1      20.422  15.221   7.355  0.00  0.00    -0.365 N 
HETATM    2  H   UNK N   1      19.518  14.957   7.642  0.00  0.00     0.165 HD
ENDROOT
BRANCH   1   3
HETATM    3  C   UNK N   1      21.567  14.605   7.926  0.00  0.00     0.106 C 
HETATM    4  C   UNK N   1      21.554  13.882   9.047  0.00  0.00     0.060 A 
HETATM    5  C   UNK N   1      20.452  13.526   9.955  0.00  0.00     0.258 A 
HETATM    6  C   UNK N   1      22.728  13.280   9.652  0.00  0.00     0.008 A 
HETATM    7  N   UNK N   1      20.921  12.793  10.994  0.00  0.00    -0.322 N 
HETATM    8  O   UNK N   1      19.282  13.833   9.822  0.00  0.00    -0.267 OA
HETATM    9  C   UNK N   1      22.312  12.648  10.803  0.00  0.00     0.046 A 
HETATM   10  H   UNK N   1      20.392  12.429  11.740  0.00  0.00     0.169 HD
HETATM   11  C   UNK N   1      23.214  11.979  11.628  0.00  0.00     0.030 A 
HETATM   12  C   UNK N   1      24.571  11.966  11.249  0.00  0.00     0.002 A 
HETATM   13  C   UNK N   1      24.992  12.614  10.067  0.00  0.00     0.001 A 
HETATM   14  C   UNK N   1      24.062  13.283   9.253  0.00  0.00     0.015 A 
ENDBRANCH   1   3
BRANCH   1  15
HETATM   15  C   UNK N   1      20.602  16.225   6.366  0.00  0.00     0.032 A 
HETATM   16  C   UNK N   1      21.498  17.285   6.568  0.00  0.00     0.031 A 
HETATM   17  C   UNK N   1      21.664  18.268   5.574  0.00  0.00     0.027 A 
HETATM   18  C   UNK N   1      20.911  18.209   4.379  0.00  0.00     0.079 A 
HETATM   19  C   UNK N   1      20.043  17.126   4.188  0.00  0.00     0.027 A 
HETATM   20  C   UNK N   1      19.888  16.153   5.163  0.00  0.00     0.031 A 
BRANCH  18  21
HETATM   21  S   UNK N   1      21.085  19.435   3.027  0.00  0.00     0.258 S 
HETATM   22  O   UNK N   1      19.690  19.109   2.469  0.00  0.00    -0.201 OA
HETATM   23  O   UNK N   1      20.492  20.242   4.194  0.00  0.00    -0.201 OA
BRANCH  21  24
HETATM   24  N   UNK N   1      20.957  21.067   2.363  0.00  0.00    -0.320 N 
HETATM   25  C   UNK N   1      20.800  20.953   0.927  0.00  0.00     0.159 C 
HETATM   26  H   UNK N   1      20.989  21.936   2.897  0.00  0.00     0.171 HD
ENDBRANCH  21  24
ENDBRANCH  18  21
ENDBRANCH   1  15
TORSDOF 4
ENDMDL
MODEL 2
REMARK VINA RESULT:      -7.4     10.029     12.960
REMARK  4 active torsions:
REMARK  status: ('A' for Active; 'I' for Inactive)
REMARK    1  A    between atoms: C_11  and  N_12 
REMARK    2  A    between atoms: N_12  and  C_13 
REMARK    3  A    between atoms: C_16  and  S_19 
REMARK    4  A    between atoms: S_19  and  N_22 
ROOT
HETATM    1  N   UNK N   1      30.664  16.067   6.758  0.00  0.00    -0.365 N 
HETATM    2  H   UNK N   1      30.475  15.330   6.133  0.00  0.00     0.165 HD
ENDROOT
BRANCH   1   3
HETATM    3  C   UNK N   1      29.775  17.169   6.864  0.00  0.00     0.106 C 
HETATM    4  C   UNK N   1      29.143  17.728   5.831  0.00  0.00     0.060 A 
HETATM    5  C   UNK N   1      29.164  17.407   4.395  0.00  0.00     0.258 A 
HETATM    6  C   UNK N   1      28.260  18.876   5.930  0.00  0.00     0.008 A 
HETATM    7  N   UNK N   1      28.379  18.275   3.710  0.00  0.00    -0.322 N 
HETATM    8  O   UNK N   1      29.786  16.505   3.869  0.00  0.00    -0.267 OA
HETATM    9  C   UNK N   1      27.832  19.170   4.654  0.00  0.00     0.046 A 
HETATM   10  H   UNK N   1      28.221  18.280   2.739  0.00  0.00     0.169 HD
HETATM   11  C   UNK N   1      26.974  20.241   4.407  0.00  0.00     0.030 A 
HETATM   12  C   UNK N   1      26.553  21.016   5.505  0.00  0.00     0.002 A 
HETATM   13  C   UNK N   1      26.993  20.710   6.811  0.00  0.00     0.001 A 
HETATM   14  C   UNK N   1      27.860  19.626   7.033  0.00  0.00     0.015 A 
ENDBRANCH   1   3
BRANCH   1  15
HETATM   15  C   UNK N   1      31.833  16.046   7.567  0.00  0.00     0.032 A 
HETATM   16  C   UNK N   1      32.494  17.235   7.910  0.00  0.00     0.031 A 
HETATM   17  C   UNK N   1      33.648  17.193   8.714  0.00  0.00     0.027 A 
HETATM   18  C   UNK N   1      34.165  15.954   9.158  0.00  0.00     0.079 A 
HETATM   19  C   UNK N   1      33.471  14.782   8.826  0.00  0.00     0.027 A 
HETATM   20  C   UNK N   1      32.329  14.825   8.042  0.00  0.00     0.031 A 
BRANCH  18  21
HETATM   21  S   UNK N   1      35.647  15.815  10.227  0.00  0.00     0.258 S 
HETATM   22  O   UNK N   1      35.643  17.322  10.534  0.00  0.00    -0.201 OA
HETATM   23  O   UNK N   1      34.468  15.560  11.181  0.00  0.00    -0.201 OA
BRANCH  21  24
HETATM   24  N   UNK N   1      36.442  15.513  11.776  0.00  0.00    -0.320 N 
HETATM   25  C   UNK N   1      35.816  14.352  12.379  0.00  0.00     0.159 C 
HETATM   26  H   UNK N   1      37.205  16.059  12.176  0.00  0.00     0.171 HD
ENDBRANCH  21  24
ENDBRANCH  18  21
ENDBRANCH   1  15
TORSDOF 4
ENDMDL
MODEL 3
REMARK VINA RESULT:      -7.3     12.684     14.781
REMARK  4 active torsions:
REMARK  status: ('A' for Active; 'I' for Inactive)
REMARK    1  A    between atoms: C_11  and  N_12 
REMARK    2  A    between atoms: N_12  and  C_13 
REMARK    3  A    between atoms: C_16  and  S_19 
REMARK    4  A    between atoms: S_19  and  N_22 
ROOT
HETATM    1  N   UNK N   1      36.747  14.614  11.821  0.00  0.00    -0.365 N 
HETATM    2  H   UNK N   1      37.605  14.990  12.127  0.00  0.00     0.165 HD
ENDROOT
BRANCH   1   3
HETATM    3  C   UNK N   1      36.186  13.481  12.467  0.00  0.00     0.106 C 
HETATM    4  C   UNK N   1      36.109  13.330  13.790  0.00  0.00     0.060 A 
HETATM    5  C   UNK N   1      36.536  14.208  14.890  0.00  0.00     0.258 A 
HETATM    6  C   UNK N   1      35.567  12.158  14.454  0.00  0.00     0.008 A 
HETATM    7  N   UNK N   1      36.280  13.619  16.085  0.00  0.00    -0.322 N 
HETATM    8  O   UNK N   1      37.050  15.305  14.778  0.00  0.00    -0.267 OA
HETATM    9  C   UNK N   1      35.690  12.367  15.810  0.00  0.00     0.046 A 
HETATM   10  H   UNK N   1      36.469  13.995  16.975  0.00  0.00     0.169 HD
HETATM   11  C   UNK N   1      35.270  11.409  16.731  0.00  0.00     0.030 A 
HETATM   12  C   UNK N   1      34.712  10.215  16.235  0.00  0.00     0.002 A 
HETATM   13  C   UNK N   1      34.586  10.006  14.844  0.00  0.00     0.001 A 
HETATM   14  C   UNK N   1      35.019  10.987  13.935  0.00  0.00     0.015 A 
ENDBRANCH   1   3
BRANCH   1  15
HETATM   15  C   UNK N   1      36.052  15.196  10.726  0.00  0.00     0.032 A 
HETATM   16  C   UNK N   1      35.525  16.493  10.814  0.00  0.00     0.031 A 
HETATM   17  C   UNK N   1      34.843  17.053   9.718  0.00  0.00     0.027 A 
HETATM   18  C   UNK N   1      34.660  16.304   8.533  0.00  0.00     0.079 A 
HETATM   19  C   UNK N   1      35.220  15.021   8.458  0.00  0.00     0.027 A 
HETATM   20  C   UNK N   1      35.900  14.475   9.535  0.00  0.00     0.031 A 
BRANCH  18  21
HETATM   21  S   UNK N   1      33.805  16.968   7.053  0.00  0.00     0.258 S 
HETATM   22  O   UNK N   1      34.567  18.301   7.136  0.00  0.00    -0.201 OA
HETATM   23  O   UNK N   1      35.033  16.237   6.484  0.00  0.00    -0.201 OA
BRANCH  21  24
HETATM   24  N   UNK N   1      33.632  17.189   5.309  0.00  0.00    -0.320 N 
HETATM   25  C   UNK N   1      32.221  17.104   4.987  0.00  0.00     0.159 C 
HETATM   26  H   UNK N   1      34.391  17.348   4.645  0.00  0.00     0.171 HD
ENDBRANCH  21  24
ENDBRANCH  18  21
ENDBRANCH   1  15
TORSDOF 4
ENDMDL
MODEL 4
REMARK VINA RESULT:      -7.3     13.090     15.274
REMARK  4 active torsions:
REMARK  status: ('A' for Active; 'I' for Inactive)
REMARK    1  A    between atoms: C_11  and  N_12 
REMARK    2  A    between atoms: N_12  and  C_13 
REMARK    3  A    between atoms: C_16  and  S_19 
REMARK    4  A    between atoms: S_19  and  N_22 
ROOT
HETATM    1  N   UNK N   1      37.044  13.993  11.838  0.00  0.00    -0.365 N 
HETATM    2  H   UNK N   1      37.887  13.559  11.573  0.00  0.00     0.165 HD
ENDROOT
BRANCH   1   3
HETATM    3  C   UNK N   1      36.547  13.854  13.161  0.00  0.00     0.106 C 
HETATM    4  C   UNK N   1      36.671  12.751  13.900  0.00  0.00     0.060 A 
HETATM    5  C   UNK N   1      37.305  11.456  13.606  0.00  0.00     0.258 A 
HETATM    6  C   UNK N   1      36.135  12.593  15.239  0.00  0.00     0.008 A 
HETATM    7  N   UNK N   1      37.158  10.614  14.658  0.00  0.00    -0.322 N 
HETATM    8  O   UNK N   1      37.882  11.154  12.578  0.00  0.00    -0.267 OA
HETATM    9  C   UNK N   1      36.441  11.315  15.651  0.00  0.00     0.046 A 
HETATM   10  H   UNK N   1      37.490   9.689  14.718  0.00  0.00     0.169 HD
HETATM   11  C   UNK N   1      36.047  10.843  16.902  0.00  0.00     0.030 A 
HETATM   12  C   UNK N   1      35.325  11.715  17.739  0.00  0.00     0.002 A 
HETATM   13  C   UNK N   1      35.015  13.026  17.313  0.00  0.00     0.001 A 
HETATM   14  C   UNK N   1      35.422  13.476  16.046  0.00  0.00     0.015 A 
ENDBRANCH   1   3
BRANCH   1  15
HETATM   15  C   UNK N   1      36.305  14.767  10.903  0.00  0.00     0.032 A 
HETATM   16  C   UNK N   1      35.825  16.041  11.240  0.00  0.00     0.031 A 
HETATM   17  C   UNK N   1      35.098  16.793  10.299  0.00  0.00     0.027 A 
HETATM   18  C   UNK N   1      34.822  16.261   9.019  0.00  0.00     0.079 A 
HETATM   19  C   UNK N   1      35.336  14.998   8.695  0.00  0.00     0.027 A 
HETATM   20  C   UNK N   1      36.060  14.262   9.619  0.00  0.00     0.031 A 
BRANCH  18  21
HETATM   21  S   UNK N   1      33.904  17.184   7.729  0.00  0.00     0.258 S 
HETATM   22  O   UNK N   1      34.865  18.381   7.815  0.00  0.00    -0.201 OA
HETATM   23  O   UNK N   1      34.926  16.349   6.940  0.00  0.00    -0.201 OA
BRANCH  21  24
HETATM   24  N   UNK N   1      33.553  17.601   6.048  0.00  0.00    -0.320 N 
HETATM   25  C   UNK N   1      32.274  17.013   5.701  0.00  0.00     0.159 C 
HETATM   26  H   UNK N   1      34.145  18.157   5.431  0.00  0.00     0.171 HD
ENDBRANCH  21  24
ENDBRANCH  18  21
ENDBRANCH   1  15
TORSDOF 4
ENDMDL
MODEL 5
REMARK VINA RESULT:      -7.2     11.785     15.034
REMARK  4 active torsions:
REMARK  status: ('A' for Active; 'I' for Inactive)
REMARK    1  A    between atoms: C_11  and  N_12 
REMARK    2  A    between atoms: N_12  and  C_13 
REMARK    3  A    between atoms: C_16  and  S_19 
REMARK    4  A    between atoms: S_19  and  N_22 
ROOT
HETATM    1  N   UNK N   1      33.841  17.484   9.156  0.00  0.00    -0.365 N 
HETATM    2  H   UNK N   1      34.353  18.315   9.024  0.00  0.00     0.165 HD
ENDROOT
BRANCH   1   3
HETATM    3  C   UNK N   1      32.576  17.311   8.536  0.00  0.00     0.106 C 
HETATM    4  C   UNK N   1      32.379  17.310   7.216  0.00  0.00     0.060 A 
HETATM    5  C   UNK N   1      33.320  17.469   6.097  0.00  0.00     0.258 A 
HETATM    6  C   UNK N   1      31.082  17.167   6.579  0.00  0.00     0.008 A 
HETATM    7  N   UNK N   1      32.655  17.430   4.917  0.00  0.00    -0.322 N 
HETATM    8  O   UNK N   1      34.524  17.619   6.185  0.00  0.00    -0.267 OA
HETATM    9  C   UNK N   1      31.288  17.247   5.219  0.00  0.00     0.046 A 
HETATM   10  H   UNK N   1      33.050  17.512   4.019  0.00  0.00     0.169 HD
HETATM   11  C   UNK N   1      30.227  17.159   4.320  0.00  0.00     0.030 A 
HETATM   12  C   UNK N   1      28.931  16.984   4.843  0.00  0.00     0.002 A 
HETATM   13  C   UNK N   1      28.726  16.901   6.238  0.00  0.00     0.001 A 
HETATM   14  C   UNK N   1      29.813  16.995   7.123  0.00  0.00     0.015 A 
ENDBRANCH   1   3
BRANCH   1  15
HETATM   15  C   UNK N   1      34.356  16.441   9.972  0.00  0.00     0.032 A 
HETATM   16  C   UNK N   1      33.839  15.140   9.892  0.00  0.00     0.031 A 
HETATM   17  C   UNK N   1      34.365  14.120  10.706  0.00  0.00     0.027 A 
HETATM   18  C   UNK N   1      35.397  14.404  11.629  0.00  0.00     0.079 A 
HETATM   19  C   UNK N   1      35.917  15.705  11.672  0.00  0.00     0.027 A 
HETATM   20  C   UNK N   1      35.405  16.706  10.863  0.00  0.00     0.031 A 
BRANCH  18  21
HETATM   21  S   UNK N   1      36.153  13.129  12.708  0.00  0.00     0.258 S 
HETATM   22  O   UNK N   1      36.554  14.172  13.764  0.00  0.00    -0.201 OA
HETATM   23  O   UNK N   1      34.679  13.170  13.146  0.00  0.00    -0.201 OA
BRANCH  21  24
HETATM   24  N   UNK N   1      36.074  11.896  13.971  0.00  0.00    -0.320 N 
HETATM   25  C   UNK N   1      37.375  11.829  14.609  0.00  0.00     0.159 C 
HETATM   26  H   UNK N   1      35.259  11.332  14.210  0.00  0.00     0.171 HD
ENDBRANCH  21  24
ENDBRANCH  18  21
ENDBRANCH   1  15
TORSDOF 4
ENDMDL
MODEL 6
REMARK VINA RESULT:      -7.1      5.701      7.018
REMARK  4 active torsions:
REMARK  status: ('A' for Active; 'I' for Inactive)
REMARK    1  A    between atoms: C_11  and  N_12 
REMARK    2  A    between atoms: N_12  and  C_13 
REMARK    3  A    between atoms: C_16  and  S_19 
REMARK    4  A    between atoms: S_19  and  N_22 
ROOT
HETATM    1  N   UNK N   1      26.521  20.100   3.613  0.00  0.00    -0.365 N 
HETATM    2  H   UNK N   1      26.892  20.876   3.134  0.00  0.00     0.165 HD
ENDROOT
BRANCH   1   3
HETATM    3  C   UNK N   1      27.364  19.263   4.392  0.00  0.00     0.106 C 
HETATM    4  C   UNK N   1      27.519  19.371   5.712  0.00  0.00     0.060 A 
HETATM    5  C   UNK N   1      26.920  20.299   6.684  0.00  0.00     0.258 A 
HETATM    6  C   UNK N   1      28.405  18.540   6.506  0.00  0.00     0.008 A 
HETATM    7  N   UNK N   1      27.402  20.050   7.927  0.00  0.00    -0.322 N 
HETATM    8  O   UNK N   1      26.111  21.173   6.440  0.00  0.00    -0.267 OA
HETATM    9  C   UNK N   1      28.310  18.976   7.810  0.00  0.00     0.046 A 
HETATM   10  H   UNK N   1      27.164  20.527   8.753  0.00  0.00     0.169 HD
HETATM   11  C   UNK N   1      29.057  18.385   8.827  0.00  0.00     0.030 A 
HETATM   12  C   UNK N   1      29.916  17.322   8.484  0.00  0.00     0.002 A 
HETATM   13  C   UNK N   1      30.009  16.878   7.147  0.00  0.00     0.001 A 
HETATM   14  C   UNK N   1      29.246  17.492   6.139  0.00  0.00     0.015 A 
ENDBRANCH   1   3
BRANCH   1  15
HETATM   15  C   UNK N   1      25.134  19.798   3.536  0.00  0.00     0.032 A 
HETATM   16  C   UNK N   1      24.235  20.688   2.930  0.00  0.00     0.031 A 
HETATM   17  C   UNK N   1      22.866  20.370   2.860  0.00  0.00     0.027 A 
HETATM   18  C   UNK N   1      22.383  19.167   3.424  0.00  0.00     0.079 A 
HETATM   19  C   UNK N   1      23.304  18.280   3.998  0.00  0.00     0.027 A 
HETATM   20  C   UNK N   1      24.654  18.590   4.058  0.00  0.00     0.031 A 
BRANCH  18  21
HETATM   21  S   UNK N   1      20.621  18.667   3.354  0.00  0.00     0.258 S 
HETATM   22  O   UNK N   1      20.575  18.818   1.824  0.00  0.00    -0.201 OA
HETATM   23  O   UNK N   1      21.394  17.341   3.257  0.00  0.00    -0.201 OA
BRANCH  21  24
HETATM   24  N   UNK N   1      19.335  17.459   3.262  0.00  0.00    -0.320 N 
HETATM   25  C   UNK N   1      19.957  16.159   3.095  0.00  0.00     0.159 C 
HETATM   26  H   UNK N   1      18.334  17.642   3.317  0.00  0.00     0.171 HD
ENDBRANCH  21  24
ENDBRANCH  18  21
ENDBRANCH   1  15
TORSDOF 4
ENDMDL
MODEL 7
REMARK VINA RESULT:      -7.1     11.902     14.959
REMARK  4 active torsions:
REMARK  status: ('A' for Active; 'I' for Inactive)
REMARK    1  A    between atoms: C_11  and  N_12 
REMARK    2  A    between atoms: N_12  and  C_13 
REMARK    3  A    between atoms: C_16  and  S_19 
REMARK    4  A    between atoms: S_19  and  N_22 
ROOT
HETATM    1  N   UNK N   1      34.396  17.679   8.939  0.00  0.00    -0.365 N 
HETATM    2  H   UNK N   1      34.441  18.573   9.352  0.00  0.00     0.165 HD
ENDROOT
BRANCH   1   3
HETATM    3  C   UNK N   1      34.100  17.537   7.558  0.00  0.00     0.106 C 
HETATM    4  C   UNK N   1      32.867  17.440   7.058  0.00  0.00     0.060 A 
HETATM    5  C   UNK N   1      31.552  17.454   7.718  0.00  0.00     0.258 A 
HETATM    6  C   UNK N   1      32.562  17.260   5.651  0.00  0.00     0.008 A 
HETATM    7  N   UNK N   1      30.567  17.295   6.801  0.00  0.00    -0.322 N 
HETATM    8  O   UNK N   1      31.347  17.585   8.910  0.00  0.00    -0.267 OA
HETATM    9  C   UNK N   1      31.192  17.175   5.541  0.00  0.00     0.046 A 
HETATM   10  H   UNK N   1      29.600  17.269   6.979  0.00  0.00     0.169 HD
HETATM   11  C   UNK N   1      30.575  16.984   4.306  0.00  0.00     0.030 A 
HETATM   12  C   UNK N   1      31.397  16.881   3.166  0.00  0.00     0.002 A 
HETATM   13  C   UNK N   1      32.801  16.971   3.284  0.00  0.00     0.001 A 
HETATM   14  C   UNK N   1      33.398  17.162   4.542  0.00  0.00     0.015 A 
ENDBRANCH   1   3
BRANCH   1  15
HETATM   15  C   UNK N   1      34.626  16.512   9.718  0.00  0.00     0.032 A 
HETATM   16  C   UNK N   1      34.133  15.264   9.310  0.00  0.00     0.031 A 
HETATM   17  C   UNK N   1      34.374  14.120  10.094  0.00  0.00     0.027 A 
HETATM   18  C   UNK N   1      35.089  14.225  11.309  0.00  0.00     0.079 A 
HETATM   19  C   UNK N   1      35.596  15.477  11.681  0.00  0.00     0.027 A 
HETATM   20  C   UNK N   1      35.366  16.601  10.904  0.00  0.00     0.031 A 
BRANCH  18  21
HETATM   21  S   UNK N   1      35.465  12.781  12.374  0.00  0.00     0.258 S 
HETATM   22  O   UNK N   1      36.926  13.222  12.560  0.00  0.00    -0.201 OA
HETATM   23  O   UNK N   1      34.958  13.852  13.354  0.00  0.00    -0.201 OA
BRANCH  21  24
HETATM   24  N   UNK N   1      35.526  11.957  13.936  0.00  0.00    -0.320 N 
HETATM   25  C   UNK N   1      35.271  12.942  14.969  0.00  0.00     0.159 C 
HETATM   26  H   UNK N   1      35.709  10.965  14.084  0.00  0.00     0.171 HD
ENDBRANCH  21  24
ENDBRANCH  18  21
ENDBRANCH   1  15
TORSDOF 4
ENDMDL
MODEL 8
REMARK VINA RESULT:      -6.9     12.657     16.306
REMARK  4 active torsions:
REMARK  status: ('A' for Active; 'I' for Inactive)
REMARK    1  A    between atoms: C_11  and  N_12 
REMARK    2  A    between atoms: N_12  and  C_13 
REMARK    3  A    between atoms: C_16  and  S_19 
REMARK    4  A    between atoms: S_19  and  N_22 
ROOT
HETATM    1  N   UNK N   1      36.437  14.620   9.732  0.00  0.00    -0.365 N 
HETATM    2  H   UNK N   1      37.292  14.952   9.374  0.00  0.00     0.165 HD
ENDROOT
BRANCH   1   3
HETATM    3  C   UNK N   1      35.261  14.652   8.937  0.00  0.00     0.106 C 
HETATM    4  C   UNK N   1      34.473  15.719   8.801  0.00  0.00     0.060 A 
HETATM    5  C   UNK N   1      34.567  17.070   9.375  0.00  0.00     0.258 A 
HETATM    6  C   UNK N   1      33.252  15.745   8.016  0.00  0.00     0.008 A 
HETATM    7  N   UNK N   1      33.510  17.822   8.978  0.00  0.00    -0.322 N 
HETATM    8  O   UNK N   1      35.448  17.483  10.105  0.00  0.00    -0.267 OA
HETATM    9  C   UNK N   1      32.711  17.005   8.150  0.00  0.00     0.046 A 
HETATM   10  H   UNK N   1      33.335  18.759   9.219  0.00  0.00     0.169 HD
HETATM   11  C   UNK N   1      31.515  17.349   7.522  0.00  0.00     0.030 A 
HETATM   12  C   UNK N   1      30.872  16.369   6.742  0.00  0.00     0.002 A 
HETATM   13  C   UNK N   1      31.431  15.079   6.607  0.00  0.00     0.001 A 
HETATM   14  C   UNK N   1      32.638  14.756   7.252  0.00  0.00     0.015 A 
ENDBRANCH   1   3
BRANCH   1  15
HETATM   15  C   UNK N   1      36.359  14.103  11.054  0.00  0.00     0.032 A 
HETATM   16  C   UNK N   1      36.583  12.743  11.312  0.00  0.00     0.031 A 
HETATM   17  C   UNK N   1      36.505  12.252  12.628  0.00  0.00     0.027 A 
HETATM   18  C   UNK N   1      36.173  13.118  13.695  0.00  0.00     0.079 A 
HETATM   19  C   UNK N   1      35.982  14.479  13.417  0.00  0.00     0.027 A 
HETATM   20  C   UNK N   1      36.069  14.963  12.122  0.00  0.00     0.031 A 
BRANCH  18  21
HETATM   21  S   UNK N   1      36.075  12.563  15.439  0.00  0.00     0.258 S 
HETATM   22  O   UNK N   1      36.469  13.953  15.968  0.00  0.00    -0.201 OA
HETATM   23  O   UNK N   1      34.647  13.031  15.110  0.00  0.00    -0.201 OA
BRANCH  21  24
HETATM   24  N   UNK N   1      35.195  12.254  16.940  0.00  0.00    -0.320 N 
HETATM   25  C   UNK N   1      35.721  11.035  17.522  0.00  0.00     0.159 C 
HETATM   26  H   UNK N   1      34.449  12.831  17.328  0.00  0.00     0.171 HD
ENDBRANCH  21  24
ENDBRANCH  18  21
ENDBRANCH   1  15
TORSDOF 4
ENDMDL
MODEL 9
REMARK VINA RESULT:      -6.8     12.608     14.572
REMARK  4 active torsions:
REMARK  status: ('A' for Active; 'I' for Inactive)
REMARK    1  A    between atoms: C_11  and  N_12 
REMARK    2  A    between atoms: N_12  and  C_13 
REMARK    3  A    between atoms: C_16  and  S_19 
REMARK    4  A    between atoms: S_19  and  N_22 
ROOT
HETATM    1  N   UNK N   1      36.437  15.272  11.689  0.00  0.00    -0.365 N 
HETATM    2  H   UNK N   1      37.272  15.729  11.942  0.00  0.00     0.165 HD
ENDROOT
BRANCH   1   3
HETATM    3  C   UNK N   1      35.849  14.314  12.556  0.00  0.00     0.106 C 
HETATM    4  C   UNK N   1      36.270  13.054  12.682  0.00  0.00     0.060 A 
HETATM    5  C   UNK N   1      37.373  12.333  12.028  0.00  0.00     0.258 A 
HETATM    6  C   UNK N   1      35.650  12.062  13.541  0.00  0.00     0.008 A 
HETATM    7  N   UNK N   1      37.404  11.045  12.449  0.00  0.00    -0.322 N 
HETATM    8  O   UNK N   1      38.156  12.795  11.220  0.00  0.00    -0.267 OA
HETATM    9  C   UNK N   1      36.348  10.886  13.372  0.00  0.00     0.046 A 
HETATM   10  H   UNK N   1      38.043  10.352  12.167  0.00  0.00     0.169 HD
HETATM   11  C   UNK N   1      35.988   9.726  14.055  0.00  0.00     0.030 A 
HETATM   12  C   UNK N   1      34.886   9.789  14.930  0.00  0.00     0.002 A 
HETATM   13  C   UNK N   1      34.174  10.998  15.100  0.00  0.00     0.001 A 
HETATM   14  C   UNK N   1      34.556  12.153  14.398  0.00  0.00     0.015 A 
ENDBRANCH   1   3
BRANCH   1  15
HETATM   15  C   UNK N   1      35.802  15.560  10.450  0.00  0.00     0.032 A 
HETATM   16  C   UNK N   1      35.806  14.627   9.403  0.00  0.00     0.031 A 
HETATM   17  C   UNK N   1      35.169  14.930   8.185  0.00  0.00     0.027 A 
HETATM   18  C   UNK N   1      34.547  16.186   7.998  0.00  0.00     0.079 A 
HETATM   19  C   UNK N   1      34.532  17.091   9.068  0.00  0.00     0.027 A 
HETATM   20  C   UNK N   1      35.151  16.788  10.270  0.00  0.00     0.031 A 
BRANCH  18  21
HETATM   21  S   UNK N   1      33.676  16.649   6.453  0.00  0.00     0.258 S 
HETATM   22  O   UNK N   1      32.479  17.226   7.228  0.00  0.00    -0.201 OA
HETATM   23  O   UNK N   1      34.548  17.874   6.777  0.00  0.00    -0.201 OA
BRANCH  21  24
HETATM   24  N   UNK N   1      33.330  17.754   5.119  0.00  0.00    -0.320 N 
HETATM   25  C   UNK N   1      32.889  16.962   3.987  0.00  0.00     0.159 C 
HETATM   26  H   UNK N   1      33.424  18.770   5.140  0.00  0.00     0.171 HD
ENDBRANCH  21  24
ENDBRANCH  18  21
ENDBRANCH   1  15
TORSDOF 4
ENDMDL
