MODEL 1
REMARK VINA RESULT:      -7.8      0.000      0.000
REMARK  6 active torsions:
REMARK  status: ('A' for Active; 'I' for Inactive)
REMARK    1  A    between atoms: C_3  and  N_11 
REMARK    2  A    between atoms: N_11  and  N_17 
REMARK    3  A    between atoms: N_17  and  C_18 
REMARK    4  A    between atoms: C_21  and  C_24 
REMARK    5  A    between atoms: C_24  and  S_25 
REMARK    6  A    between atoms: S_25  and  N_28 
ROOT
HETATM    1  N   UNK N   1      32.881  17.321   8.933  0.00  0.00    -0.294 N 
ATOM      2  HN  UNK N   1      32.102  17.230   9.585  1.00  0.00     0.187 HD
ENDROOT
BRANCH   1   3
HETATM    3  C   UNK N   1      32.595  17.404   7.691  0.00  0.00     0.130 A 
HETATM    4  C   UNK N   1      33.437  17.366   6.493  0.00  0.00     0.275 A 
HETATM    5  N   UNK N   1      32.653  17.335   5.383  0.00  0.00    -0.321 N 
HETATM    6  O   UNK N   1      34.655  17.347   6.462  0.00  0.00    -0.266 OA
HETATM    7  C   UNK N   1      31.307  17.341   5.830  0.00  0.00     0.049 A 
HETATM    8  H   UNK N   1      32.961  17.311   4.448  0.00  0.00     0.169 HD
HETATM    9  C   UNK N   1      30.135  17.263   5.055  0.00  0.00     0.033 A 
HETATM   10  C   UNK N   1      31.247  17.393   7.203  0.00  0.00     0.044 A 
HETATM   11  C   UNK N   1      28.878  17.241   5.722  0.00  0.00     0.033 A 
HETATM   12  C   UNK N   1      28.846  17.296   7.132  0.00  0.00     0.050 A 
HETATM   13  C   UNK N   1      30.029  17.373   7.854  0.00  0.00     0.047 A 
HETATM   14  N   UNK N   1      27.699  17.268   7.897  0.00  0.00    -0.359 N 
HETATM   15  S   UNK N   1      29.617  17.403   9.448  0.00  0.00    -0.082 SA
HETATM   16  C   UNK N   1      27.965  17.324   9.238  0.00  0.00     0.139 A 
ATOM     17  HN  UNK N   1      26.759  17.213   7.507  1.00  0.00     0.166 HD
ENDBRANCH   1   3
BRANCH   1  18
HETATM   18  N   UNK N   1      34.142  17.341   9.464  0.00  0.00    -0.300 N 
HETATM   19  H   UNK N   1      34.746  18.110   9.351  0.00  0.00     0.187 HD
BRANCH  18  20
HETATM   20  C   UNK N   1      34.520  16.187  10.186  0.00  0.00     0.048 A 
HETATM   21  C   UNK N   1      33.968  14.932   9.909  0.00  0.00     0.031 A 
HETATM   22  C   UNK N   1      34.517  13.790  10.516  0.00  0.00     0.010 A 
HETATM   23  C   UNK N   1      35.599  13.917  11.403  0.00  0.00    -0.043 A 
HETATM   24  C   UNK N   1      36.101  15.176  11.719  0.00  0.00     0.010 A 
HETATM   25  C   UNK N   1      35.571  16.297  11.110  0.00  0.00     0.031 A 
BRANCH  23  26
HETATM   26  C   UNK N   1      36.327  12.717  11.891  0.00  0.00     0.201 C 
BRANCH  26  27
HETATM   27  S   UNK N   1      36.082  12.598  13.705  0.00  0.00     0.230 S 
HETATM   28  O   UNK N   1      35.844  11.146  14.163  0.00  0.00    -0.206 OA
HETATM   29  O   UNK N   1      34.786  13.276  14.173  0.00  0.00    -0.206 OA
BRANCH  27  30
HETATM   30  N   UNK N   1      37.358  13.195  14.779  0.00  0.00    -0.324 N 
HETATM   31  C   UNK N   1      36.925  14.464  15.342  0.00  0.00     0.159 C 
HETATM   32  H   UNK N   1      38.246  12.728  14.969  0.00  0.00     0.171 HD
ENDBRANCH  27  30
ENDBRANCH  26  27
ENDBRANCH  23  26
ENDBRANCH  18  20
ENDBRANCH   1  18
TORSDOF 6
ENDMDL
MODEL 2
REMARK VINA RESULT:      -7.5      1.181      1.656
REMARK  6 active torsions:
REMARK  status: ('A' for Active; 'I' for Inactive)
REMARK    1  A    between atoms: C_3  and  N_11 
REMARK    2  A    between atoms: N_11  and  N_17 
REMARK    3  A    between atoms: N_17  and  C_18 
REMARK    4  A    between atoms: C_21  and  C_24 
REMARK    5  A    between atoms: C_24  and  S_25 
REMARK    6  A    between atoms: S_25  and  N_28 
ROOT
HETATM    1  N   UNK N   1      32.885  17.430   8.856  0.00  0.00    -0.294 N 
ATOM      2  HN  UNK N   1      32.120  17.399   9.530  1.00  0.00     0.187 HD
ENDROOT
BRANCH   1   3
HETATM    3  C   UNK N   1      32.570  17.465   7.619  0.00  0.00     0.130 A 
HETATM    4  C   UNK N   1      33.386  17.401   6.404  0.00  0.00     0.275 A 
HETATM    5  N   UNK N   1      32.579  17.317   5.314  0.00  0.00    -0.321 N 
HETATM    6  O   UNK N   1      34.603  17.404   6.346  0.00  0.00    -0.266 OA
HETATM    7  C   UNK N   1      31.242  17.314   5.790  0.00  0.00     0.049 A 
HETATM    8  H   UNK N   1      32.866  17.267   4.374  0.00  0.00     0.169 HD
HETATM    9  C   UNK N   1      30.056  17.188   5.045  0.00  0.00     0.033 A 
HETATM   10  C   UNK N   1      31.212  17.412   7.162  0.00  0.00     0.044 A 
HETATM   11  C   UNK N   1      28.814  17.165   5.740  0.00  0.00     0.033 A 
HETATM   12  C   UNK N   1      28.812  17.269   7.148  0.00  0.00     0.050 A 
HETATM   13  C   UNK N   1      30.009  17.392   7.841  0.00  0.00     0.047 A 
HETATM   14  N   UNK N   1      27.683  17.246   7.940  0.00  0.00    -0.359 N 
HETATM   15  S   UNK N   1      29.632  17.470   9.441  0.00  0.00    -0.082 SA
HETATM   16  C   UNK N   1      27.977  17.353   9.272  0.00  0.00     0.139 A 
ATOM     17  HN  UNK N   1      26.736  17.160   7.573  1.00  0.00     0.166 HD
ENDBRANCH   1   3
BRANCH   1  18
HETATM   18  N   UNK N   1      34.159  17.430   9.355  0.00  0.00    -0.300 N 
HETATM   19  H   UNK N   1      34.779  18.179   9.208  0.00  0.00     0.187 HD
BRANCH  18  20
HETATM   20  C   UNK N   1      34.525  16.284  10.096  0.00  0.00     0.048 A 
HETATM   21  C   UNK N   1      34.155  14.997   9.691  0.00  0.00     0.031 A 
HETATM   22  C   UNK N   1      34.707  13.885  10.349  0.00  0.00     0.010 A 
HETATM   23  C   UNK N   1      35.607  14.071  11.410  0.00  0.00    -0.043 A 
HETATM   24  C   UNK N   1      35.921  15.355  11.845  0.00  0.00     0.010 A 
HETATM   25  C   UNK N   1      35.390  16.448  11.189  0.00  0.00     0.031 A 
BRANCH  23  26
HETATM   26  C   UNK N   1      36.360  12.923  11.980  0.00  0.00     0.201 C 
BRANCH  26  27
HETATM   27  S   UNK N   1      35.252  12.028  13.136  0.00  0.00     0.230 S 
HETATM   28  O   UNK N   1      34.488  12.990  14.066  0.00  0.00    -0.206 OA
HETATM   29  O   UNK N   1      36.023  11.175  14.153  0.00  0.00    -0.206 OA
BRANCH  27  30
HETATM   30  N   UNK N   1      33.997  10.972  12.467  0.00  0.00    -0.324 N 
HETATM   31  C   UNK N   1      34.583  10.194  11.386  0.00  0.00     0.159 C 
HETATM   32  H   UNK N   1      33.028  10.918  12.785  0.00  0.00     0.171 HD
ENDBRANCH  27  30
ENDBRANCH  26  27
ENDBRANCH  23  26
ENDBRANCH  18  20
ENDBRANCH   1  18
TORSDOF 6
ENDMDL
MODEL 3
REMARK VINA RESULT:      -7.4      3.146      8.418
REMARK  6 active torsions:
REMARK  status: ('A' for Active; 'I' for Inactive)
REMARK    1  A    between atoms: C_3  and  N_11 
REMARK    2  A    between atoms: N_11  and  N_17 
REMARK    3  A    between atoms: N_17  and  C_18 
REMARK    4  A    between atoms: C_21  and  C_24 
REMARK    5  A    between atoms: C_24  and  S_25 
REMARK    6  A    between atoms: S_25  and  N_28 
ROOT
HETATM    1  N   UNK N   1      36.868  14.157  12.559  0.00  0.00    -0.294 N 
ATOM      2  HN  UNK N   1      37.588  13.615  12.081  1.00  0.00     0.187 HD
ENDROOT
BRANCH   1   3
HETATM    3  C   UNK N   1      36.463  13.721  13.689  0.00  0.00     0.130 A 
HETATM    4  C   UNK N   1      36.632  14.237  15.049  0.00  0.00     0.275 A 
HETATM    5  N   UNK N   1      35.880  13.505  15.913  0.00  0.00    -0.321 N 
HETATM    6  O   UNK N   1      37.320  15.183  15.386  0.00  0.00    -0.266 OA
HETATM    7  C   UNK N   1      35.208  12.521  15.142  0.00  0.00     0.049 A 
HETATM    8  H   UNK N   1      35.813  13.633  16.887  0.00  0.00     0.169 HD
HETATM    9  C   UNK N   1      34.275  11.563  15.580  0.00  0.00     0.033 A 
HETATM   10  C   UNK N   1      35.548  12.624  13.814  0.00  0.00     0.044 A 
HETATM   11  C   UNK N   1      33.687  10.695  14.618  0.00  0.00     0.033 A 
HETATM   12  C   UNK N   1      34.055  10.822  13.262  0.00  0.00     0.050 A 
HETATM   13  C   UNK N   1      34.981  11.783  12.877  0.00  0.00     0.047 A 
HETATM   14  N   UNK N   1      33.551  10.056  12.232  0.00  0.00    -0.359 N 
HETATM   15  S   UNK N   1      35.153  11.656  11.244  0.00  0.00    -0.082 SA
HETATM   16  C   UNK N   1      34.076  10.403  11.017  0.00  0.00     0.139 A 
ATOM     17  HN  UNK N   1      32.865   9.313  12.362  1.00  0.00     0.166 HD
ENDBRANCH   1   3
BRANCH   1  18
HETATM   18  N   UNK N   1      36.419  15.288  11.933  0.00  0.00    -0.300 N 
HETATM   19  H   UNK N   1      36.674  16.190  12.233  0.00  0.00     0.187 HD
BRANCH  18  20
HETATM   20  C   UNK N   1      35.564  15.078  10.828  0.00  0.00     0.048 A 
HETATM   21  C   UNK N   1      34.172  15.126  10.954  0.00  0.00     0.031 A 
HETATM   22  C   UNK N   1      33.376  15.106   9.797  0.00  0.00     0.010 A 
HETATM   23  C   UNK N   1      33.977  15.022   8.531  0.00  0.00    -0.043 A 
HETATM   24  C   UNK N   1      35.360  14.913   8.419  0.00  0.00     0.010 A 
HETATM   25  C   UNK N   1      36.144  14.948   9.556  0.00  0.00     0.031 A 
BRANCH  23  26
HETATM   26  C   UNK N   1      33.176  15.210   7.293  0.00  0.00     0.201 C 
BRANCH  26  27
HETATM   27  S   UNK N   1      33.233  16.986   6.838  0.00  0.00     0.230 S 
HETATM   28  O   UNK N   1      32.016  17.405   5.991  0.00  0.00    -0.206 OA
HETATM   29  O   UNK N   1      34.391  17.317   5.886  0.00  0.00    -0.206 OA
BRANCH  27  30
HETATM   30  N   UNK N   1      33.306  18.195   8.132  0.00  0.00    -0.324 N 
HETATM   31  C   UNK N   1      34.695  18.586   8.313  0.00  0.00     0.159 C 
HETATM   32  H   UNK N   1      32.510  18.554   8.660  0.00  0.00     0.171 HD
ENDBRANCH  27  30
ENDBRANCH  26  27
ENDBRANCH  23  26
ENDBRANCH  18  20
ENDBRANCH   1  18
TORSDOF 6
ENDMDL
MODEL 4
REMARK VINA RESULT:      -7.3      3.902      6.132
REMARK  6 active torsions:
REMARK  status: ('A' for Active; 'I' for Inactive)
REMARK    1  A    between atoms: C_3  and  N_11 
REMARK    2  A    between atoms: N_11  and  N_17 
REMARK    3  A    between atoms: N_17  and  C_18 
REMARK    4  A    between atoms: C_21  and  C_24 
REMARK    5  A    between atoms: C_24  and  S_25 
REMARK    6  A    between atoms: S_25  and  N_28 
ROOT
HETATM    1  N   UNK N   1      28.502  16.463   5.736  0.00  0.00    -0.294 N 
ATOM      2  HN  UNK N   1      27.880  15.671   5.897  1.00  0.00     0.187 HD
ENDROOT
BRANCH   1   3
HETATM    3  C   UNK N   1      28.384  17.466   6.517  0.00  0.00     0.130 A 
HETATM    4  C   UNK N   1      29.067  17.814   7.766  0.00  0.00     0.275 A 
HETATM    5  N   UNK N   1      28.710  19.068   8.149  0.00  0.00    -0.321 N 
HETATM    6  O   UNK N   1      29.851  17.115   8.383  0.00  0.00    -0.266 OA
HETATM    7  C   UNK N   1      27.811  19.558   7.167  0.00  0.00     0.049 A 
HETATM    8  H   UNK N   1      29.017  19.545   8.954  0.00  0.00     0.169 HD
HETATM    9  C   UNK N   1      27.211  20.829   7.097  0.00  0.00     0.033 A 
HETATM   10  C   UNK N   1      27.593  18.616   6.189  0.00  0.00     0.044 A 
HETATM   11  C   UNK N   1      26.368  21.125   5.989  0.00  0.00     0.033 A 
HETATM   12  C   UNK N   1      26.162  20.139   5.000  0.00  0.00     0.050 A 
HETATM   13  C   UNK N   1      26.775  18.898   5.113  0.00  0.00     0.047 A 
HETATM   14  N   UNK N   1      25.383  20.301   3.874  0.00  0.00    -0.359 N 
HETATM   15  S   UNK N   1      26.330  18.022   3.792  0.00  0.00    -0.082 SA
HETATM   16  C   UNK N   1      25.370  19.186   3.082  0.00  0.00     0.139 A 
ATOM     17  HN  UNK N   1      24.872  21.157   3.657  1.00  0.00     0.166 HD
ENDBRANCH   1   3
BRANCH   1  18
HETATM   18  N   UNK N   1      29.391  16.359   4.700  0.00  0.00    -0.300 N 
HETATM   19  H   UNK N   1      29.098  16.273   3.765  0.00  0.00     0.187 HD
BRANCH  18  20
HETATM   20  C   UNK N   1      30.757  16.383   5.061  0.00  0.00     0.048 A 
HETATM   21  C   UNK N   1      31.608  17.413   4.648  0.00  0.00     0.031 A 
HETATM   22  C   UNK N   1      32.901  17.495   5.194  0.00  0.00     0.010 A 
HETATM   23  C   UNK N   1      33.331  16.542   6.131  0.00  0.00    -0.043 A 
HETATM   24  C   UNK N   1      32.497  15.487   6.488  0.00  0.00     0.010 A 
HETATM   25  C   UNK N   1      31.222  15.414   5.964  0.00  0.00     0.031 A 
BRANCH  23  26
HETATM   26  C   UNK N   1      34.605  16.725   6.873  0.00  0.00     0.201 C 
BRANCH  26  27
HETATM   27  S   UNK N   1      34.277  17.813   8.314  0.00  0.00     0.230 S 
HETATM   28  O   UNK N   1      32.894  18.486   8.227  0.00  0.00    -0.206 OA
HETATM   29  O   UNK N   1      35.205  19.035   8.355  0.00  0.00    -0.206 OA
BRANCH  27  30
HETATM   30  N   UNK N   1      34.325  17.110   9.939  0.00  0.00    -0.324 N 
HETATM   31  C   UNK N   1      35.317  16.046   9.948  0.00  0.00     0.159 C 
HETATM   32  H   UNK N   1      33.754  17.402  10.734  0.00  0.00     0.171 HD
ENDBRANCH  27  30
ENDBRANCH  26  27
ENDBRANCH  23  26
ENDBRANCH  18  20
ENDBRANCH   1  18
TORSDOF 6
ENDMDL
MODEL 5
REMARK VINA RESULT:      -7.3      4.088      6.419
REMARK  6 active torsions:
REMARK  status: ('A' for Active; 'I' for Inactive)
REMARK    1  A    between atoms: C_3  and  N_11 
REMARK    2  A    between atoms: N_11  and  N_17 
REMARK    3  A    between atoms: N_17  and  C_18 
REMARK    4  A    between atoms: C_21  and  C_24 
REMARK    5  A    between atoms: C_24  and  S_25 
REMARK    6  A    between atoms: S_25  and  N_28 
ROOT
HETATM    1  N   UNK N   1      29.462  17.183   3.021  0.00  0.00    -0.294 N 
ATOM      2  HN  UNK N   1      29.364  18.191   3.140  1.00  0.00     0.187 HD
ENDROOT
BRANCH   1   3
HETATM    3  C   UNK N   1      28.389  16.490   3.008  0.00  0.00     0.130 A 
HETATM    4  C   UNK N   1      28.119  15.119   2.570  0.00  0.00     0.275 A 
HETATM    5  N   UNK N   1      26.848  14.773   2.902  0.00  0.00    -0.321 N 
HETATM    6  O   UNK N   1      28.898  14.371   2.006  0.00  0.00    -0.266 OA
HETATM    7  C   UNK N   1      26.276  15.891   3.563  0.00  0.00     0.049 A 
HETATM    8  H   UNK N   1      26.407  13.912   2.720  0.00  0.00     0.169 HD
HETATM    9  C   UNK N   1      24.998  15.998   4.141  0.00  0.00     0.033 A 
HETATM   10  C   UNK N   1      27.174  16.932   3.629  0.00  0.00     0.044 A 
HETATM   11  C   UNK N   1      24.646  17.210   4.798  0.00  0.00     0.033 A 
HETATM   12  C   UNK N   1      25.586  18.262   4.850  0.00  0.00     0.050 A 
HETATM   13  C   UNK N   1      26.836  18.110   4.265  0.00  0.00     0.047 A 
HETATM   14  N   UNK N   1      25.377  19.478   5.466  0.00  0.00    -0.359 N 
HETATM   15  S   UNK N   1      27.663  19.509   4.531  0.00  0.00    -0.082 SA
HETATM   16  C   UNK N   1      26.463  20.304   5.372  0.00  0.00     0.139 A 
ATOM     17  HN  UNK N   1      24.509  19.732   5.937  1.00  0.00     0.166 HD
ENDBRANCH   1   3
BRANCH   1  18
HETATM   18  N   UNK N   1      30.731  16.689   2.890  0.00  0.00    -0.300 N 
HETATM   19  H   UNK N   1      31.074  16.346   2.034  0.00  0.00     0.187 HD
BRANCH  18  20
HETATM   20  C   UNK N   1      31.517  16.703   4.064  0.00  0.00     0.048 A 
HETATM   21  C   UNK N   1      31.366  15.735   5.062  0.00  0.00     0.031 A 
HETATM   22  C   UNK N   1      32.299  15.678   6.111  0.00  0.00     0.010 A 
HETATM   23  C   UNK N   1      33.361  16.596   6.159  0.00  0.00    -0.043 A 
HETATM   24  C   UNK N   1      33.466  17.594   5.195  0.00  0.00     0.010 A 
HETATM   25  C   UNK N   1      32.557  17.641   4.155  0.00  0.00     0.031 A 
BRANCH  23  26
HETATM   26  C   UNK N   1      34.471  16.428   7.132  0.00  0.00     0.201 C 
BRANCH  26  27
HETATM   27  S   UNK N   1      34.222  17.628   8.498  0.00  0.00     0.230 S 
HETATM   28  O   UNK N   1      32.775  18.152   8.551  0.00  0.00    -0.206 OA
HETATM   29  O   UNK N   1      35.007  18.931   8.290  0.00  0.00    -0.206 OA
BRANCH  27  30
HETATM   30  N   UNK N   1      34.565  17.112  10.158  0.00  0.00    -0.324 N 
HETATM   31  C   UNK N   1      35.564  16.055  10.111  0.00  0.00     0.159 C 
HETATM   32  H   UNK N   1      34.136  17.491  11.002  0.00  0.00     0.171 HD
ENDBRANCH  27  30
ENDBRANCH  26  27
ENDBRANCH  23  26
ENDBRANCH  18  20
ENDBRANCH   1  18
TORSDOF 6
ENDMDL
MODEL 6
REMARK VINA RESULT:      -7.1      7.207     12.994
REMARK  6 active torsions:
REMARK  status: ('A' for Active; 'I' for Inactive)
REMARK    1  A    between atoms: C_3  and  N_11 
REMARK    2  A    between atoms: N_11  and  N_17 
REMARK    3  A    between atoms: N_17  and  C_18 
REMARK    4  A    between atoms: C_21  and  C_24 
REMARK    5  A    between atoms: C_24  and  S_25 
REMARK    6  A    between atoms: S_25  and  N_28 
ROOT
HETATM    1  N   UNK N   1      35.002   9.580  20.946  0.00  0.00    -0.294 N 
ATOM      2  HN  UNK N   1      35.626   8.777  20.862  1.00  0.00     0.187 HD
ENDROOT
BRANCH   1   3
HETATM    3  C   UNK N   1      33.758   9.337  21.103  0.00  0.00     0.130 A 
HETATM    4  C   UNK N   1      32.683  10.120  21.717  0.00  0.00     0.275 A 
HETATM    5  N   UNK N   1      31.489   9.506  21.501  0.00  0.00    -0.321 N 
HETATM    6  O   UNK N   1      32.804  11.171  22.321  0.00  0.00    -0.266 OA
HETATM    7  C   UNK N   1      31.759   8.337  20.744  0.00  0.00     0.049 A 
HETATM    8  H   UNK N   1      30.607   9.815  21.809  0.00  0.00     0.169 HD
HETATM    9  C   UNK N   1      30.839   7.404  20.231  0.00  0.00     0.033 A 
HETATM   10  C   UNK N   1      33.107   8.209  20.503  0.00  0.00     0.044 A 
HETATM   11  C   UNK N   1      31.331   6.318  19.454  0.00  0.00     0.033 A 
HETATM   12  C   UNK N   1      32.719   6.211  19.224  0.00  0.00     0.050 A 
HETATM   13  C   UNK N   1      33.589   7.156  19.751  0.00  0.00     0.047 A 
HETATM   14  N   UNK N   1      33.322   5.218  18.481  0.00  0.00    -0.359 N 
HETATM   15  S   UNK N   1      35.106   6.731  19.274  0.00  0.00    -0.082 SA
HETATM   16  C   UNK N   1      34.680   5.368  18.413  0.00  0.00     0.139 A 
ATOM     17  HN  UNK N   1      32.812   4.458  18.032  1.00  0.00     0.166 HD
ENDBRANCH   1   3
BRANCH   1  18
HETATM   18  N   UNK N   1      35.571  10.823  20.882  0.00  0.00    -0.300 N 
HETATM   19  H   UNK N   1      35.905  11.288  21.682  0.00  0.00     0.187 HD
BRANCH  18  20
HETATM   20  C   UNK N   1      35.646  11.395  19.592  0.00  0.00     0.048 A 
HETATM   21  C   UNK N   1      35.949  10.626  18.464  0.00  0.00     0.031 A 
HETATM   22  C   UNK N   1      35.819  11.199  17.187  0.00  0.00     0.010 A 
HETATM   23  C   UNK N   1      35.405  12.534  17.054  0.00  0.00    -0.043 A 
HETATM   24  C   UNK N   1      35.166  13.308  18.186  0.00  0.00     0.010 A 
HETATM   25  C   UNK N   1      35.279  12.741  19.440  0.00  0.00     0.031 A 
BRANCH  23  26
HETATM   26  C   UNK N   1      35.060  13.096  15.723  0.00  0.00     0.201 C 
BRANCH  26  27
HETATM   27  S   UNK N   1      36.614  13.632  14.908  0.00  0.00     0.230 S 
HETATM   28  O   UNK N   1      37.567  12.451  14.646  0.00  0.00    -0.206 OA
HETATM   29  O   UNK N   1      37.479  14.523  15.811  0.00  0.00    -0.206 OA
BRANCH  27  30
HETATM   30  N   UNK N   1      36.513  14.471  13.350  0.00  0.00    -0.324 N 
HETATM   31  C   UNK N   1      36.667  13.487  12.291  0.00  0.00     0.159 C 
HETATM   32  H   UNK N   1      36.371  15.473  13.219  0.00  0.00     0.171 HD
ENDBRANCH  27  30
ENDBRANCH  26  27
ENDBRANCH  23  26
ENDBRANCH  18  20
ENDBRANCH   1  18
TORSDOF 6
ENDMDL
MODEL 7
REMARK VINA RESULT:      -7.0      5.750     11.078
REMARK  6 active torsions:
REMARK  status: ('A' for Active; 'I' for Inactive)
REMARK    1  A    between atoms: C_3  and  N_11 
REMARK    2  A    between atoms: N_11  and  N_17 
REMARK    3  A    between atoms: N_17  and  C_18 
REMARK    4  A    between atoms: C_21  and  C_24 
REMARK    5  A    between atoms: C_24  and  S_25 
REMARK    6  A    between atoms: S_25  and  N_28 
ROOT
HETATM    1  N   UNK N   1      29.028  17.177   4.473  0.00  0.00    -0.294 N 
ATOM      2  HN  UNK N   1      28.416  16.395   4.707  1.00  0.00     0.187 HD
ENDROOT
BRANCH   1   3
HETATM    3  C   UNK N   1      30.264  17.060   4.770  0.00  0.00     0.130 A 
HETATM    4  C   UNK N   1      31.456  16.897   3.934  0.00  0.00     0.275 A 
HETATM    5  N   UNK N   1      32.571  16.975   4.706  0.00  0.00    -0.321 N 
HETATM    6  O   UNK N   1      31.478  16.732   2.727  0.00  0.00    -0.266 OA
HETATM    7  C   UNK N   1      32.135  17.198   6.038  0.00  0.00     0.049 A 
HETATM    8  H   UNK N   1      33.503  16.894   4.400  0.00  0.00     0.169 HD
HETATM    9  C   UNK N   1      32.922  17.401   7.187  0.00  0.00     0.033 A 
HETATM   10  C   UNK N   1      30.762  17.242   6.102  0.00  0.00     0.044 A 
HETATM   11  C   UNK N   1      32.268  17.652   8.425  0.00  0.00     0.033 A 
HETATM   12  C   UNK N   1      30.858  17.691   8.462  0.00  0.00     0.050 A 
HETATM   13  C   UNK N   1      30.123  17.484   7.302  0.00  0.00     0.047 A 
HETATM   14  N   UNK N   1      30.104  17.937   9.591  0.00  0.00    -0.359 N 
HETATM   15  S   UNK N   1      28.534  17.615   7.712  0.00  0.00    -0.082 SA
HETATM   16  C   UNK N   1      28.761  17.926   9.334  0.00  0.00     0.139 A 
ATOM     17  HN  UNK N   1      30.504  18.107  10.513  1.00  0.00     0.166 HD
ENDBRANCH   1   3
BRANCH   1  18
HETATM   18  N   UNK N   1      28.452  18.262   3.868  0.00  0.00    -0.300 N 
HETATM   19  H   UNK N   1      28.985  18.945   3.400  0.00  0.00     0.187 HD
BRANCH  18  20
HETATM   20  C   UNK N   1      27.044  18.338   3.960  0.00  0.00     0.048 A 
HETATM   21  C   UNK N   1      26.221  17.310   3.489  0.00  0.00     0.031 A 
HETATM   22  C   UNK N   1      24.846  17.344   3.780  0.00  0.00     0.010 A 
HETATM   23  C   UNK N   1      24.310  18.409   4.522  0.00  0.00    -0.043 A 
HETATM   24  C   UNK N   1      25.128  19.457   4.933  0.00  0.00     0.010 A 
HETATM   25  C   UNK N   1      26.482  19.416   4.660  0.00  0.00     0.031 A 
BRANCH  23  26
HETATM   26  C   UNK N   1      22.910  18.363   5.018  0.00  0.00     0.201 C 
BRANCH  26  27
HETATM   27  S   UNK N   1      21.824  19.103   3.738  0.00  0.00     0.230 S 
HETATM   28  O   UNK N   1      22.581  20.103   2.844  0.00  0.00    -0.206 OA
HETATM   29  O   UNK N   1      20.732  20.001   4.337  0.00  0.00    -0.206 OA
BRANCH  27  30
HETATM   30  N   UNK N   1      20.999  18.028   2.597  0.00  0.00    -0.324 N 
HETATM   31  C   UNK N   1      19.566  18.137   2.822  0.00  0.00     0.159 C 
HETATM   32  H   UNK N   1      21.451  17.434   1.901  0.00  0.00     0.171 HD
ENDBRANCH  27  30
ENDBRANCH  26  27
ENDBRANCH  23  26
ENDBRANCH  18  20
ENDBRANCH   1  18
TORSDOF 6
ENDMDL
MODEL 8
REMARK VINA RESULT:      -6.9      2.927      4.342
REMARK  6 active torsions:
REMARK  status: ('A' for Active; 'I' for Inactive)
REMARK    1  A    between atoms: C_3  and  N_11 
REMARK    2  A    between atoms: N_11  and  N_17 
REMARK    3  A    between atoms: N_17  and  C_18 
REMARK    4  A    between atoms: C_21  and  C_24 
REMARK    5  A    between atoms: C_24  and  S_25 
REMARK    6  A    between atoms: S_25  and  N_28 
ROOT
HETATM    1  N   UNK N   1      30.434  17.915   7.982  0.00  0.00    -0.294 N 
ATOM      2  HN  UNK N   1      30.801  18.716   7.468  1.00  0.00     0.187 HD
ENDROOT
BRANCH   1   3
HETATM    3  C   UNK N   1      29.317  17.435   7.592  0.00  0.00     0.130 A 
HETATM    4  C   UNK N   1      28.025  17.301   8.270  0.00  0.00     0.275 A 
HETATM    5  N   UNK N   1      27.087  16.869   7.387  0.00  0.00    -0.321 N 
HETATM    6  O   UNK N   1      27.791  17.545   9.440  0.00  0.00    -0.266 OA
HETATM    7  C   UNK N   1      27.737  16.726   6.133  0.00  0.00     0.049 A 
HETATM    8  H   UNK N   1      26.138  16.690   7.579  0.00  0.00     0.169 HD
HETATM    9  C   UNK N   1      27.171  16.356   4.899  0.00  0.00     0.033 A 
HETATM   10  C   UNK N   1      29.070  17.049   6.234  0.00  0.00     0.044 A 
HETATM   11  C   UNK N   1      28.008  16.319   3.749  0.00  0.00     0.033 A 
HETATM   12  C   UNK N   1      29.373  16.654   3.881  0.00  0.00     0.050 A 
HETATM   13  C   UNK N   1      29.887  17.013   5.121  0.00  0.00     0.047 A 
HETATM   14  N   UNK N   1      30.285  16.671   2.848  0.00  0.00    -0.359 N 
HETATM   15  S   UNK N   1      31.483  17.349   4.899  0.00  0.00    -0.082 SA
HETATM   16  C   UNK N   1      31.535  17.044   3.260  0.00  0.00     0.139 A 
ATOM     17  HN  UNK N   1      30.054  16.432   1.884  1.00  0.00     0.166 HD
ENDBRANCH   1   3
BRANCH   1  18
HETATM   18  N   UNK N   1      31.182  17.448   9.029  0.00  0.00    -0.300 N 
HETATM   19  H   UNK N   1      30.952  17.645   9.965  0.00  0.00     0.187 HD
BRANCH  18  20
HETATM   20  C   UNK N   1      32.304  16.666   8.678  0.00  0.00     0.048 A 
HETATM   21  C   UNK N   1      33.416  17.221   8.037  0.00  0.00     0.031 A 
HETATM   22  C   UNK N   1      34.580  16.448   7.888  0.00  0.00     0.010 A 
HETATM   23  C   UNK N   1      34.614  15.128   8.365  0.00  0.00    -0.043 A 
HETATM   24  C   UNK N   1      33.481  14.565   8.946  0.00  0.00     0.010 A 
HETATM   25  C   UNK N   1      32.342  15.330   9.106  0.00  0.00     0.031 A 
BRANCH  23  26
HETATM   26  C   UNK N   1      35.888  14.365   8.408  0.00  0.00     0.201 C 
BRANCH  26  27
HETATM   27  S   UNK N   1      36.699  14.696  10.020  0.00  0.00     0.230 S 
HETATM   28  O   UNK N   1      36.125  13.818  11.148  0.00  0.00    -0.206 OA
HETATM   29  O   UNK N   1      36.402  16.105  10.553  0.00  0.00    -0.206 OA
BRANCH  27  30
HETATM   30  N   UNK N   1      38.454  14.488  10.149  0.00  0.00    -0.324 N 
HETATM   31  C   UNK N   1      38.731  13.077  10.366  0.00  0.00     0.159 C 
HETATM   32  H   UNK N   1      39.151  15.231  10.083  0.00  0.00     0.171 HD
ENDBRANCH  27  30
ENDBRANCH  26  27
ENDBRANCH  23  26
ENDBRANCH  18  20
ENDBRANCH   1  18
TORSDOF 6
ENDMDL
MODEL 9
REMARK VINA RESULT:      -6.9      5.690     10.120
REMARK  6 active torsions:
REMARK  status: ('A' for Active; 'I' for Inactive)
REMARK    1  A    between atoms: C_3  and  N_11 
REMARK    2  A    between atoms: N_11  and  N_17 
REMARK    3  A    between atoms: N_17  and  C_18 
REMARK    4  A    between atoms: C_21  and  C_24 
REMARK    5  A    between atoms: C_24  and  S_25 
REMARK    6  A    between atoms: S_25  and  N_28 
ROOT
HETATM    1  N   UNK N   1      29.454  17.160   4.313  0.00  0.00    -0.294 N 
ATOM      2  HN  UNK N   1      28.924  16.291   4.386  1.00  0.00     0.187 HD
ENDROOT
BRANCH   1   3
HETATM    3  C   UNK N   1      30.700  17.107   4.588  0.00  0.00     0.130 A 
HETATM    4  C   UNK N   1      31.885  17.050   3.730  0.00  0.00     0.275 A 
HETATM    5  N   UNK N   1      33.007  17.167   4.490  0.00  0.00    -0.321 N 
HETATM    6  O   UNK N   1      31.899  16.931   2.518  0.00  0.00    -0.266 OA
HETATM    7  C   UNK N   1      32.579  17.313   5.835  0.00  0.00     0.049 A 
HETATM    8  H   UNK N   1      33.937  17.155   4.168  0.00  0.00     0.169 HD
HETATM    9  C   UNK N   1      33.371  17.521   6.979  0.00  0.00     0.033 A 
HETATM   10  C   UNK N   1      31.207  17.270   5.920  0.00  0.00     0.044 A 
HETATM   11  C   UNK N   1      32.722  17.685   8.236  0.00  0.00     0.033 A 
HETATM   12  C   UNK N   1      31.313  17.636   8.294  0.00  0.00     0.050 A 
HETATM   13  C   UNK N   1      30.574  17.427   7.137  0.00  0.00     0.047 A 
HETATM   14  N   UNK N   1      30.564  17.793   9.440  0.00  0.00    -0.359 N 
HETATM   15  S   UNK N   1      28.986  17.445   7.572  0.00  0.00    -0.082 SA
HETATM   16  C   UNK N   1      29.220  17.709   9.202  0.00  0.00     0.139 A 
ATOM     17  HN  UNK N   1      30.968  17.953  10.363  1.00  0.00     0.166 HD
ENDBRANCH   1   3
BRANCH   1  18
HETATM   18  N   UNK N   1      28.768  18.280   3.929  0.00  0.00    -0.300 N 
HETATM   19  H   UNK N   1      29.217  19.054   3.520  0.00  0.00     0.187 HD
BRANCH  18  20
HETATM   20  C   UNK N   1      27.374  18.252   4.157  0.00  0.00     0.048 A 
HETATM   21  C   UNK N   1      26.730  19.252   4.894  0.00  0.00     0.031 A 
HETATM   22  C   UNK N   1      25.325  19.284   4.925  0.00  0.00     0.010 A 
HETATM   23  C   UNK N   1      24.584  18.311   4.236  0.00  0.00    -0.043 A 
HETATM   24  C   UNK N   1      25.235  17.285   3.558  0.00  0.00     0.010 A 
HETATM   25  C   UNK N   1      26.616  17.262   3.514  0.00  0.00     0.031 A 
BRANCH  23  26
HETATM   26  C   UNK N   1      23.112  18.443   4.081  0.00  0.00     0.201 C 
BRANCH  26  27
HETATM   27  S   UNK N   1      22.308  17.558   5.472  0.00  0.00     0.230 S 
HETATM   28  O   UNK N   1      21.041  16.804   5.023  0.00  0.00    -0.206 OA
HETATM   29  O   UNK N   1      21.731  18.513   6.527  0.00  0.00    -0.206 OA
BRANCH  27  30
HETATM   30  N   UNK N   1      23.244  16.351   6.369  0.00  0.00    -0.324 N 
HETATM   31  C   UNK N   1      22.318  15.383   6.936  0.00  0.00     0.159 C 
HETATM   32  H   UNK N   1      24.260  16.337   6.470  0.00  0.00     0.171 HD
ENDBRANCH  27  30
ENDBRANCH  26  27
ENDBRANCH  23  26
ENDBRANCH  18  20
ENDBRANCH   1  18
TORSDOF 6
ENDMDL
