MODEL 1
REMARK VINA RESULT:      -7.8      0.000      0.000
REMARK  4 active torsions:
REMARK  status: ('A' for Active; 'I' for Inactive)
REMARK    1  A    between atoms: C_7  and  C_8 
REMARK    2  A    between atoms: C_16  and  C_17 
REMARK    3  A    between atoms: C_17  and  N_18 
REMARK    4  A    between atoms: N_18  and  C_19 
ROOT
HETATM    1  O   UNK N   1      27.347  24.710 -10.523  0.00  0.00    -0.267 OA
HETATM    2  C   UNK N   1      27.455  25.591  -9.690  0.00  0.00     0.258 A 
HETATM    3  N   UNK N   1      28.373  26.592  -9.766  0.00  0.00    -0.322 N 
HETATM    4  C   UNK N   1      28.186  27.405  -8.620  0.00  0.00     0.046 A 
HETATM    5  C   UNK N   1      28.891  28.549  -8.236  0.00  0.00     0.031 A 
HETATM    6  C   UNK N   1      28.515  29.184  -7.023  0.00  0.00     0.016 A 
HETATM    7  C   UNK N   1      27.452  28.661  -6.236  0.00  0.00     0.000 A 
HETATM    8  C   UNK N   1      26.779  27.517  -6.664  0.00  0.00     0.029 A 
HETATM    9  C   UNK N   1      27.167  26.922  -7.847  0.00  0.00     0.009 A 
HETATM   10  C   UNK N   1      26.642  25.744  -8.474  0.00  0.00     0.060 A 
HETATM   11  H   UNK N   1      29.038  26.726 -10.478  0.00  0.00     0.169 HD
ENDROOT
BRANCH  10  12
HETATM   12  C   UNK N   1      25.647  25.062  -7.915  0.00  0.00     0.106 C 
BRANCH  12  13
HETATM   13  N   UNK N   1      25.723  23.842  -7.211  0.00  0.00    -0.365 N 
HETATM   14  H   UNK N   1      25.240  23.040  -7.516  0.00  0.00     0.165 HD
BRANCH  13  15
HETATM   15  C   UNK N   1      26.531  23.824  -6.041  0.00  0.00     0.032 A 
HETATM   16  C   UNK N   1      27.857  23.364  -6.087  0.00  0.00     0.038 A 
HETATM   17  C   UNK N   1      28.607  23.386  -4.904  0.00  0.00    -0.035 A 
HETATM   18  C   UNK N   1      29.984  22.937  -4.715  0.00  0.00     0.179 C 
HETATM   19  C   UNK N   1      28.094  23.824  -3.748  0.00  0.00    -0.037 A 
HETATM   20  S   UNK N   1      30.140  22.232  -2.988  0.00  0.00     0.152 S 
HETATM   21  O   UNK N   1      31.519  22.538  -3.590  0.00  0.00    -0.227 OA
HETATM   22  O   UNK N   1      30.764  23.167  -1.940  0.00  0.00    -0.227 OA
HETATM   23  C   UNK N   1      29.064  23.723  -2.665  0.00  0.00     0.179 C 
HETATM   24  C   UNK N   1      26.786  24.281  -3.650  0.00  0.00     0.011 A 
HETATM   25  C   UNK N   1      26.002  24.283  -4.806  0.00  0.00     0.030 A 
ENDBRANCH  13  15
ENDBRANCH  12  13
ENDBRANCH  10  12
BRANCH   7  26
HETATM   26  C   UNK N   1      27.031  29.275  -4.969  0.00  0.00     0.102 A 
HETATM   27  O   UNK N   1      27.086  30.549  -4.682  0.00  0.00    -0.304 OA
HETATM   28  C   UNK N   1      26.625  30.706  -3.460  0.00  0.00     0.233 A 
HETATM   29  N   UNK N   1      26.260  29.519  -2.927  0.00  0.00    -0.354 N 
HETATM   30  C   UNK N   1      26.515  28.605  -3.880  0.00  0.00     0.127 A 
ATOM     31  HN  UNK N   1      25.873  29.353  -1.999  1.00  0.00     0.166 HD
ENDBRANCH   7  26
TORSDOF 4
ENDMDL
MODEL 2
REMARK VINA RESULT:      -7.7     12.604     15.428
REMARK  4 active torsions:
REMARK  status: ('A' for Active; 'I' for Inactive)
REMARK    1  A    between atoms: C_7  and  C_8 
REMARK    2  A    between atoms: C_16  and  C_17 
REMARK    3  A    between atoms: C_17  and  N_18 
REMARK    4  A    between atoms: N_18  and  C_19 
ROOT
HETATM    1  O   UNK N   1      29.374  18.065   5.253  0.00  0.00    -0.267 OA
HETATM    2  C   UNK N   1      28.308  18.468   4.825  0.00  0.00     0.258 A 
HETATM    3  N   UNK N   1      28.188  19.516   3.966  0.00  0.00    -0.322 N 
HETATM    4  C   UNK N   1      26.803  19.676   3.709  0.00  0.00     0.046 A 
HETATM    5  C   UNK N   1      26.168  20.623   2.901  0.00  0.00     0.031 A 
HETATM    6  C   UNK N   1      24.751  20.581   2.818  0.00  0.00     0.016 A 
HETATM    7  C   UNK N   1      24.017  19.601   3.540  0.00  0.00     0.000 A 
HETATM    8  C   UNK N   1      24.698  18.677   4.332  0.00  0.00     0.029 A 
HETATM    9  C   UNK N   1      26.074  18.742   4.392  0.00  0.00     0.009 A 
HETATM   10  C   UNK N   1      26.980  17.920   5.142  0.00  0.00     0.060 A 
HETATM   11  H   UNK N   1      28.920  20.058   3.595  0.00  0.00     0.169 HD
ENDROOT
BRANCH  10  12
HETATM   12  C   UNK N   1      26.527  16.938   5.914  0.00  0.00     0.106 C 
BRANCH  12  13
HETATM   13  N   UNK N   1      26.060  15.669   5.514  0.00  0.00    -0.365 N 
HETATM   14  H   UNK N   1      26.431  15.208   4.727  0.00  0.00     0.165 HD
BRANCH  13  15
HETATM   15  C   UNK N   1      25.029  15.085   6.301  0.00  0.00     0.032 A 
HETATM   16  C   UNK N   1      23.733  15.624   6.307  0.00  0.00     0.038 A 
HETATM   17  C   UNK N   1      22.758  14.994   7.091  0.00  0.00    -0.035 A 
HETATM   18  C   UNK N   1      21.363  15.393   7.265  0.00  0.00     0.179 C 
HETATM   19  C   UNK N   1      23.030  13.908   7.824  0.00  0.00    -0.037 A 
HETATM   20  S   UNK N   1      20.844  14.962   9.012  0.00  0.00     0.152 S 
HETATM   21  O   UNK N   1      19.623  15.219   8.117  0.00  0.00    -0.227 OA
HETATM   22  O   UNK N   1      20.036  13.664   9.167  0.00  0.00    -0.227 OA
HETATM   23  C   UNK N   1      21.857  13.459   8.563  0.00  0.00     0.179 C 
HETATM   24  C   UNK N   1      24.298  13.343   7.857  0.00  0.00     0.011 A 
HETATM   25  C   UNK N   1      25.302  13.934   7.087  0.00  0.00     0.030 A 
ENDBRANCH  13  15
ENDBRANCH  12  13
ENDBRANCH  10  12
BRANCH   7  26
HETATM   26  C   UNK N   1      22.550  19.521   3.495  0.00  0.00     0.102 A 
HETATM   27  O   UNK N   1      21.736  20.522   3.285  0.00  0.00    -0.304 OA
HETATM   28  C   UNK N   1      20.507  20.055   3.321  0.00  0.00     0.233 A 
HETATM   29  N   UNK N   1      20.503  18.725   3.559  0.00  0.00    -0.354 N 
HETATM   30  C   UNK N   1      21.798  18.378   3.670  0.00  0.00     0.127 A 
ATOM     31  HN  UNK N   1      19.691  18.114   3.637  1.00  0.00     0.166 HD
ENDBRANCH   7  26
TORSDOF 4
ENDMDL
MODEL 3
REMARK VINA RESULT:      -7.6     11.947     15.651
REMARK  4 active torsions:
REMARK  status: ('A' for Active; 'I' for Inactive)
REMARK    1  A    between atoms: C_7  and  C_8 
REMARK    2  A    between atoms: C_16  and  C_17 
REMARK    3  A    between atoms: C_17  and  N_18 
REMARK    4  A    between atoms: N_18  and  C_19 
ROOT
HETATM    1  O   UNK N   1      26.167  20.974   6.470  0.00  0.00    -0.267 OA
HETATM    2  C   UNK N   1      26.987  20.152   6.837  0.00  0.00     0.258 A 
HETATM    3  N   UNK N   1      27.272  19.902   8.143  0.00  0.00    -0.322 N 
HETATM    4  C   UNK N   1      28.271  18.896   8.158  0.00  0.00     0.046 A 
HETATM    5  C   UNK N   1      28.903  18.307   9.256  0.00  0.00     0.031 A 
HETATM    6  C   UNK N   1      29.891  17.319   9.003  0.00  0.00     0.016 A 
HETATM    7  C   UNK N   1      30.214  16.951   7.668  0.00  0.00     0.000 A 
HETATM    8  C   UNK N   1      29.553  17.566   6.605  0.00  0.00     0.029 A 
HETATM    9  C   UNK N   1      28.598  18.523   6.883  0.00  0.00     0.009 A 
HETATM   10  C   UNK N   1      27.809  19.295   5.968  0.00  0.00     0.060 A 
HETATM   11  H   UNK N   1      26.865  20.335   8.926  0.00  0.00     0.169 HD
ENDROOT
BRANCH  10  12
HETATM   12  C   UNK N   1      27.945  19.141   4.654  0.00  0.00     0.106 C 
BRANCH  12  13
HETATM   13  N   UNK N   1      27.127  18.394   3.782  0.00  0.00    -0.365 N 
HETATM   14  H   UNK N   1      27.462  17.589   3.324  0.00  0.00     0.165 HD
BRANCH  13  15
HETATM   15  C   UNK N   1      25.796  18.857   3.593  0.00  0.00     0.032 A 
HETATM   16  C   UNK N   1      24.697  18.066   3.965  0.00  0.00     0.038 A 
HETATM   17  C   UNK N   1      23.411  18.585   3.769  0.00  0.00    -0.035 A 
HETATM   18  C   UNK N   1      22.136  17.933   4.056  0.00  0.00     0.179 C 
HETATM   19  C   UNK N   1      23.209  19.798   3.240  0.00  0.00    -0.037 A 
HETATM   20  S   UNK N   1      20.888  18.494   2.777  0.00  0.00     0.152 S 
HETATM   21  O   UNK N   1      20.193  17.861   3.991  0.00  0.00    -0.227 OA
HETATM   22  O   UNK N   1      19.924  19.602   3.227  0.00  0.00    -0.227 OA
HETATM   23  C   UNK N   1      21.787  20.094   3.120  0.00  0.00     0.179 C 
HETATM   24  C   UNK N   1      24.263  20.614   2.850  0.00  0.00     0.011 A 
HETATM   25  C   UNK N   1      25.564  20.141   3.032  0.00  0.00     0.030 A 
ENDBRANCH  13  15
ENDBRANCH  12  13
ENDBRANCH  10  12
BRANCH   7  26
HETATM   26  C   UNK N   1      31.234  15.940   7.353  0.00  0.00     0.102 A 
HETATM   27  O   UNK N   1      31.956  15.286   8.223  0.00  0.00    -0.304 OA
HETATM   28  C   UNK N   1      32.754  14.478   7.559  0.00  0.00     0.233 A 
HETATM   29  N   UNK N   1      32.559  14.598   6.227  0.00  0.00    -0.354 N 
HETATM   30  C   UNK N   1      31.594  15.525   6.088  0.00  0.00     0.127 A 
ATOM     31  HN  UNK N   1      33.041  14.092   5.484  1.00  0.00     0.166 HD
ENDBRANCH   7  26
TORSDOF 4
ENDMDL
MODEL 4
REMARK VINA RESULT:      -7.5     12.138     14.954
REMARK  4 active torsions:
REMARK  status: ('A' for Active; 'I' for Inactive)
REMARK    1  A    between atoms: C_7  and  C_8 
REMARK    2  A    between atoms: C_16  and  C_17 
REMARK    3  A    between atoms: C_17  and  N_18 
REMARK    4  A    between atoms: N_18  and  C_19 
ROOT
HETATM    1  O   UNK N   1      27.971  15.618   2.604  0.00  0.00    -0.267 OA
HETATM    2  C   UNK N   1      28.974  16.011   3.172  0.00  0.00     0.258 A 
HETATM    3  N   UNK N   1      30.065  16.499   2.524  0.00  0.00    -0.322 N 
HETATM    4  C   UNK N   1      31.012  16.843   3.520  0.00  0.00     0.046 A 
HETATM    5  C   UNK N   1      32.296  17.372   3.361  0.00  0.00     0.031 A 
HETATM    6  C   UNK N   1      33.061  17.621   4.532  0.00  0.00     0.016 A 
HETATM    7  C   UNK N   1      32.523  17.335   5.817  0.00  0.00     0.000 A 
HETATM    8  C   UNK N   1      31.236  16.808   5.922  0.00  0.00     0.029 A 
HETATM    9  C   UNK N   1      30.518  16.578   4.767  0.00  0.00     0.009 A 
HETATM   10  C   UNK N   1      29.198  16.034   4.626  0.00  0.00     0.060 A 
HETATM   11  H   UNK N   1      30.177  16.594   1.551  0.00  0.00     0.169 HD
ENDROOT
BRANCH  10  12
HETATM   12  C   UNK N   1      28.494  15.670   5.693  0.00  0.00     0.106 C 
BRANCH  12  13
HETATM   13  N   UNK N   1      27.657  16.476   6.492  0.00  0.00    -0.365 N 
HETATM   14  H   UNK N   1      27.498  16.271   7.442  0.00  0.00     0.165 HD
BRANCH  13  15
HETATM   15  C   UNK N   1      27.052  17.599   5.863  0.00  0.00     0.032 A 
HETATM   16  C   UNK N   1      25.752  17.519   5.340  0.00  0.00     0.038 A 
HETATM   17  C   UNK N   1      25.206  18.665   4.746  0.00  0.00    -0.035 A 
HETATM   18  C   UNK N   1      23.893  18.803   4.121  0.00  0.00     0.179 C 
HETATM   19  C   UNK N   1      25.888  19.814   4.665  0.00  0.00    -0.037 A 
HETATM   20  S   UNK N   1      24.044  20.011   2.699  0.00  0.00     0.152 S 
HETATM   21  O   UNK N   1      22.576  19.807   3.101  0.00  0.00    -0.227 OA
HETATM   22  O   UNK N   1      23.572  21.445   2.989  0.00  0.00    -0.227 OA
HETATM   23  C   UNK N   1      25.111  20.844   3.985  0.00  0.00     0.179 C 
HETATM   24  C   UNK N   1      27.179  19.940   5.160  0.00  0.00     0.011 A 
HETATM   25  C   UNK N   1      27.762  18.825   5.766  0.00  0.00     0.030 A 
ENDBRANCH  13  15
ENDBRANCH  12  13
ENDBRANCH  10  12
BRANCH   7  26
HETATM   26  C   UNK N   1      33.278  17.566   7.057  0.00  0.00     0.102 A 
HETATM   27  O   UNK N   1      34.440  18.156   7.146  0.00  0.00    -0.304 OA
HETATM   28  C   UNK N   1      34.789  18.169   8.414  0.00  0.00     0.233 A 
HETATM   29  N   UNK N   1      33.845  17.578   9.179  0.00  0.00    -0.354 N 
HETATM   30  C   UNK N   1      32.881  17.192   8.324  0.00  0.00     0.127 A 
ATOM     31  HN  UNK N   1      33.859  17.452  10.191  1.00  0.00     0.166 HD
ENDBRANCH   7  26
TORSDOF 4
ENDMDL
MODEL 5
REMARK VINA RESULT:      -7.5     11.817     14.467
REMARK  4 active torsions:
REMARK  status: ('A' for Active; 'I' for Inactive)
REMARK    1  A    between atoms: C_7  and  C_8 
REMARK    2  A    between atoms: C_16  and  C_17 
REMARK    3  A    between atoms: C_17  and  N_18 
REMARK    4  A    between atoms: N_18  and  C_19 
ROOT
HETATM    1  O   UNK N   1      28.316  19.811   4.463  0.00  0.00    -0.267 OA
HETATM    2  C   UNK N   1      27.125  19.664   4.258  0.00  0.00     0.258 A 
HETATM    3  N   UNK N   1      26.357  20.568   3.593  0.00  0.00    -0.322 N 
HETATM    4  C   UNK N   1      25.040  20.044   3.565  0.00  0.00     0.046 A 
HETATM    5  C   UNK N   1      23.887  20.604   3.009  0.00  0.00     0.031 A 
HETATM    6  C   UNK N   1      22.673  19.877   3.125  0.00  0.00     0.016 A 
HETATM    7  C   UNK N   1      22.648  18.620   3.789  0.00  0.00     0.000 A 
HETATM    8  C   UNK N   1      23.826  18.103   4.327  0.00  0.00     0.029 A 
HETATM    9  C   UNK N   1      24.990  18.832   4.197  0.00  0.00     0.009 A 
HETATM   10  C   UNK N   1      26.305  18.516   4.677  0.00  0.00     0.060 A 
HETATM   11  H   UNK N   1      26.657  21.421   3.206  0.00  0.00     0.169 HD
ENDROOT
BRANCH  10  12
HETATM   12  C   UNK N   1      26.532  17.393   5.350  0.00  0.00     0.106 C 
BRANCH  12  13
HETATM   13  N   UNK N   1      27.642  16.529   5.242  0.00  0.00    -0.365 N 
HETATM   14  H   UNK N   1      27.629  15.744   4.648  0.00  0.00     0.165 HD
BRANCH  13  15
HETATM   15  C   UNK N   1      28.782  16.846   6.030  0.00  0.00     0.032 A 
HETATM   16  C   UNK N   1      30.061  16.915   5.454  0.00  0.00     0.038 A 
HETATM   17  C   UNK N   1      31.142  17.248   6.281  0.00  0.00    -0.035 A 
HETATM   18  C   UNK N   1      32.550  17.353   5.905  0.00  0.00     0.179 C 
HETATM   19  C   UNK N   1      30.986  17.493   7.588  0.00  0.00    -0.037 A 
HETATM   20  S   UNK N   1      33.589  16.804   7.363  0.00  0.00     0.152 S 
HETATM   21  O   UNK N   1      34.429  17.589   6.345  0.00  0.00    -0.227 OA
HETATM   22  O   UNK N   1      34.186  17.932   8.219  0.00  0.00    -0.227 OA
HETATM   23  C   UNK N   1      32.261  17.791   8.227  0.00  0.00     0.179 C 
HETATM   24  C   UNK N   1      29.743  17.429   8.204  0.00  0.00     0.011 A 
HETATM   25  C   UNK N   1      28.635  17.107   7.419  0.00  0.00     0.030 A 
ENDBRANCH  13  15
ENDBRANCH  12  13
ENDBRANCH  10  12
BRANCH   7  26
HETATM   26  C   UNK N   1      21.416  17.833   3.943  0.00  0.00     0.102 A 
HETATM   27  O   UNK N   1      21.042  17.203   5.026  0.00  0.00    -0.304 OA
HETATM   28  C   UNK N   1      19.893  16.615   4.772  0.00  0.00     0.233 A 
HETATM   29  N   UNK N   1      19.498  16.858   3.503  0.00  0.00    -0.354 N 
HETATM   30  C   UNK N   1      20.460  17.632   2.970  0.00  0.00     0.127 A 
ATOM     31  HN  UNK N   1      18.649  16.525   3.046  1.00  0.00     0.166 HD
ENDBRANCH   7  26
TORSDOF 4
ENDMDL
MODEL 6
REMARK VINA RESULT:      -7.4     15.627     18.329
REMARK  4 active torsions:
REMARK  status: ('A' for Active; 'I' for Inactive)
REMARK    1  A    between atoms: C_7  and  C_8 
REMARK    2  A    between atoms: C_16  and  C_17 
REMARK    3  A    between atoms: C_17  and  N_18 
REMARK    4  A    between atoms: N_18  and  C_19 
ROOT
HETATM    1  O   UNK N   1      27.146  15.408   4.396  0.00  0.00    -0.267 OA
HETATM    2  C   UNK N   1      26.515  14.712   5.171  0.00  0.00     0.258 A 
HETATM    3  N   UNK N   1      25.851  13.583   4.802  0.00  0.00    -0.322 N 
HETATM    4  C   UNK N   1      25.244  13.065   5.973  0.00  0.00     0.046 A 
HETATM    5  C   UNK N   1      24.444  11.927   6.114  0.00  0.00     0.031 A 
HETATM    6  C   UNK N   1      23.941  11.626   7.407  0.00  0.00     0.016 A 
HETATM    7  C   UNK N   1      24.250  12.464   8.513  0.00  0.00     0.000 A 
HETATM    8  C   UNK N   1      25.053  13.588   8.321  0.00  0.00     0.029 A 
HETATM    9  C   UNK N   1      25.528  13.855   7.053  0.00  0.00     0.009 A 
HETATM   10  C   UNK N   1      26.348  14.947   6.614  0.00  0.00     0.060 A 
HETATM   11  H   UNK N   1      25.802  13.200   3.897  0.00  0.00     0.169 HD
ENDROOT
BRANCH  10  12
HETATM   12  C   UNK N   1      26.754  15.880   7.469  0.00  0.00     0.106 C 
BRANCH  12  13
HETATM   13  N   UNK N   1      27.268  17.159   7.172  0.00  0.00    -0.365 N 
HETATM   14  H   UNK N   1      26.696  17.872   6.805  0.00  0.00     0.165 HD
BRANCH  13  15
HETATM   15  C   UNK N   1      28.650  17.372   7.427  0.00  0.00     0.032 A 
HETATM   16  C   UNK N   1      29.612  17.143   6.430  0.00  0.00     0.038 A 
HETATM   17  C   UNK N   1      30.957  17.387   6.739  0.00  0.00    -0.035 A 
HETATM   18  C   UNK N   1      32.116  17.195   5.872  0.00  0.00     0.179 C 
HETATM   19  C   UNK N   1      31.339  17.822   7.945  0.00  0.00    -0.037 A 
HETATM   20  S   UNK N   1      33.564  16.668   6.936  0.00  0.00     0.152 S 
HETATM   21  O   UNK N   1      34.036  17.155   5.558  0.00  0.00    -0.227 OA
HETATM   22  O   UNK N   1      34.565  17.776   7.297  0.00  0.00    -0.227 OA
HETATM   23  C   UNK N   1      32.787  17.975   8.019  0.00  0.00     0.179 C 
HETATM   24  C   UNK N   1      30.427  18.056   8.966  0.00  0.00     0.011 A 
HETATM   25  C   UNK N   1      29.074  17.832   8.702  0.00  0.00     0.030 A 
ENDBRANCH  13  15
ENDBRANCH  12  13
ENDBRANCH  10  12
BRANCH   7  26
HETATM   26  C   UNK N   1      23.746  12.201   9.868  0.00  0.00     0.102 A 
HETATM   27  O   UNK N   1      24.470  12.134  10.954  0.00  0.00    -0.304 OA
HETATM   28  C   UNK N   1      23.664  11.879  11.961  0.00  0.00     0.233 A 
HETATM   29  N   UNK N   1      22.384  11.774  11.539  0.00  0.00    -0.354 N 
HETATM   30  C   UNK N   1      22.428  11.978  10.210  0.00  0.00     0.127 A 
ATOM     31  HN  UNK N   1      21.560  11.583  12.107  1.00  0.00     0.166 HD
ENDBRANCH   7  26
TORSDOF 4
ENDMDL
MODEL 7
REMARK VINA RESULT:      -7.1     13.129     15.773
REMARK  4 active torsions:
REMARK  status: ('A' for Active; 'I' for Inactive)
REMARK    1  A    between atoms: C_7  and  C_8 
REMARK    2  A    between atoms: C_16  and  C_17 
REMARK    3  A    between atoms: C_17  and  N_18 
REMARK    4  A    between atoms: N_18  and  C_19 
ROOT
HETATM    1  O   UNK N   1      19.961  19.666   3.116  0.00  0.00    -0.267 OA
HETATM    2  C   UNK N   1      21.168  19.625   3.269  0.00  0.00     0.258 A 
HETATM    3  N   UNK N   1      22.037  20.464   2.643  0.00  0.00    -0.322 N 
HETATM    4  C   UNK N   1      23.338  20.101   3.073  0.00  0.00     0.046 A 
HETATM    5  C   UNK N   1      24.567  20.654   2.704  0.00  0.00     0.031 A 
HETATM    6  C   UNK N   1      25.742  20.097   3.274  0.00  0.00     0.016 A 
HETATM    7  C   UNK N   1      25.655  19.012   4.187  0.00  0.00     0.000 A 
HETATM    8  C   UNK N   1      24.404  18.495   4.524  0.00  0.00     0.029 A 
HETATM    9  C   UNK N   1      23.280  19.057   3.955  0.00  0.00     0.009 A 
HETATM   10  C   UNK N   1      21.905  18.690   4.134  0.00  0.00     0.060 A 
HETATM   11  H   UNK N   1      21.807  21.184   2.012  0.00  0.00     0.169 HD
ENDROOT
BRANCH  10  12
HETATM   12  C   UNK N   1      21.568  17.683   4.933  0.00  0.00     0.106 C 
BRANCH  12  13
HETATM   13  N   UNK N   1      21.024  17.755   6.232  0.00  0.00    -0.365 N 
HETATM   14  H   UNK N   1      20.532  18.551   6.542  0.00  0.00     0.165 HD
BRANCH  13  15
HETATM   15  C   UNK N   1      21.217  16.626   7.075  0.00  0.00     0.032 A 
HETATM   16  C   UNK N   1      22.241  15.702   6.818  0.00  0.00     0.038 A 
HETATM   17  C   UNK N   1      22.391  14.619   7.694  0.00  0.00    -0.035 A 
HETATM   18  C   UNK N   1      23.364  13.532   7.607  0.00  0.00     0.179 C 
HETATM   19  C   UNK N   1      21.589  14.447   8.752  0.00  0.00    -0.037 A 
HETATM   20  S   UNK N   1      22.563  11.973   8.267  0.00  0.00     0.152 S 
HETATM   21  O   UNK N   1      24.090  11.829   8.202  0.00  0.00    -0.227 OA
HETATM   22  O   UNK N   1      22.926  11.597   9.712  0.00  0.00    -0.227 OA
HETATM   23  C   UNK N   1      21.935  13.238   9.488  0.00  0.00     0.179 C 
HETATM   24  C   UNK N   1      20.557  15.329   9.043  0.00  0.00     0.011 A 
HETATM   25  C   UNK N   1      20.373  16.428   8.200  0.00  0.00     0.030 A 
ENDBRANCH  13  15
ENDBRANCH  12  13
ENDBRANCH  10  12
BRANCH   7  26
HETATM   26  C   UNK N   1      26.842  18.395   4.796  0.00  0.00     0.102 A 
HETATM   27  O   UNK N   1      28.051  18.893   4.791  0.00  0.00    -0.304 OA
HETATM   28  C   UNK N   1      28.835  18.052   5.430  0.00  0.00     0.233 A 
HETATM   29  N   UNK N   1      28.138  16.979   5.865  0.00  0.00    -0.354 N 
HETATM   30  C   UNK N   1      26.871  17.190   5.467  0.00  0.00     0.127 A 
ATOM     31  HN  UNK N   1      28.497  16.180   6.386  1.00  0.00     0.166 HD
ENDBRANCH   7  26
TORSDOF 4
ENDMDL
MODEL 8
REMARK VINA RESULT:      -7.1      3.099      6.211
REMARK  4 active torsions:
REMARK  status: ('A' for Active; 'I' for Inactive)
REMARK    1  A    between atoms: C_7  and  C_8 
REMARK    2  A    between atoms: C_16  and  C_17 
REMARK    3  A    between atoms: C_17  and  N_18 
REMARK    4  A    between atoms: N_18  and  C_19 
ROOT
HETATM    1  O   UNK N   1      25.595  21.394 -10.443  0.00  0.00    -0.267 OA
HETATM    2  C   UNK N   1      26.566  21.359  -9.708  0.00  0.00     0.258 A 
HETATM    3  N   UNK N   1      27.759  20.808 -10.060  0.00  0.00    -0.322 N 
HETATM    4  C   UNK N   1      28.623  20.958  -8.947  0.00  0.00     0.046 A 
HETATM    5  C   UNK N   1      29.950  20.543  -8.808  0.00  0.00     0.031 A 
HETATM    6  C   UNK N   1      30.601  20.803  -7.573  0.00  0.00     0.016 A 
HETATM    7  C   UNK N   1      29.911  21.466  -6.522  0.00  0.00     0.000 A 
HETATM    8  C   UNK N   1      28.586  21.861  -6.710  0.00  0.00     0.029 A 
HETATM    9  C   UNK N   1      27.981  21.594  -7.921  0.00  0.00     0.009 A 
HETATM   10  C   UNK N   1      26.640  21.887  -8.337  0.00  0.00     0.060 A 
HETATM   11  H   UNK N   1      27.980  20.387 -10.922  0.00  0.00     0.169 HD
ENDROOT
BRANCH  10  12
HETATM   12  C   UNK N   1      25.789  22.492  -7.514  0.00  0.00     0.106 C 
BRANCH  12  13
HETATM   13  N   UNK N   1      25.378  23.841  -7.534  0.00  0.00    -0.365 N 
HETATM   14  H   UNK N   1      24.899  24.222  -8.305  0.00  0.00     0.165 HD
BRANCH  13  15
HETATM   15  C   UNK N   1      25.688  24.625  -6.389  0.00  0.00     0.032 A 
HETATM   16  C   UNK N   1      25.667  26.027  -6.448  0.00  0.00     0.038 A 
HETATM   17  C   UNK N   1      25.966  26.743  -5.281  0.00  0.00    -0.035 A 
HETATM   18  C   UNK N   1      26.027  28.194  -5.119  0.00  0.00     0.179 C 
HETATM   19  C   UNK N   1      26.270  26.130  -4.132  0.00  0.00    -0.037 A 
HETATM   20  S   UNK N   1      27.358  28.589  -3.863  0.00  0.00     0.152 S 
HETATM   21  O   UNK N   1      26.424  29.788  -4.079  0.00  0.00    -0.227 OA
HETATM   22  O   UNK N   1      26.863  28.889  -2.439  0.00  0.00    -0.227 OA
HETATM   23  C   UNK N   1      26.563  27.093  -3.078  0.00  0.00     0.179 C 
HETATM   24  C   UNK N   1      26.312  24.746  -4.026  0.00  0.00     0.011 A 
HETATM   25  C   UNK N   1      26.015  23.990  -5.162  0.00  0.00     0.030 A 
ENDBRANCH  13  15
ENDBRANCH  12  13
ENDBRANCH  10  12
BRANCH   7  26
HETATM   26  C   UNK N   1      30.536  21.750  -5.222  0.00  0.00     0.102 A 
HETATM   27  O   UNK N   1      30.268  21.144  -4.095  0.00  0.00    -0.304 OA
HETATM   28  C   UNK N   1      31.026  21.678  -3.162  0.00  0.00     0.233 A 
HETATM   29  N   UNK N   1      31.808  22.652  -3.675  0.00  0.00    -0.354 N 
HETATM   30  C   UNK N   1      31.504  22.704  -4.984  0.00  0.00     0.127 A 
ATOM     31  HN  UNK N   1      32.487  23.226  -3.176  1.00  0.00     0.166 HD
ENDBRANCH   7  26
TORSDOF 4
ENDMDL
MODEL 9
REMARK VINA RESULT:      -7.0     11.740     14.139
REMARK  4 active torsions:
REMARK  status: ('A' for Active; 'I' for Inactive)
REMARK    1  A    between atoms: C_7  and  C_8 
REMARK    2  A    between atoms: C_16  and  C_17 
REMARK    3  A    between atoms: C_17  and  N_18 
REMARK    4  A    between atoms: N_18  and  C_19 
ROOT
HETATM    1  O   UNK N   1      28.965  16.879   4.846  0.00  0.00    -0.267 OA
HETATM    2  C   UNK N   1      28.024  17.569   4.494  0.00  0.00     0.258 A 
HETATM    3  N   UNK N   1      28.158  18.818   3.974  0.00  0.00    -0.322 N 
HETATM    4  C   UNK N   1      26.850  19.288   3.697  0.00  0.00     0.046 A 
HETATM    5  C   UNK N   1      26.457  20.520   3.166  0.00  0.00     0.031 A 
HETATM    6  C   UNK N   1      25.068  20.755   2.994  0.00  0.00     0.016 A 
HETATM    7  C   UNK N   1      24.119  19.760   3.355  0.00  0.00     0.000 A 
HETATM    8  C   UNK N   1      24.562  18.546   3.880  0.00  0.00     0.029 A 
HETATM    9  C   UNK N   1      25.918  18.346   4.034  0.00  0.00     0.009 A 
HETATM   10  C   UNK N   1      26.602  17.200   4.561  0.00  0.00     0.060 A 
HETATM   11  H   UNK N   1      29.001  19.303   3.819  0.00  0.00     0.169 HD
ENDROOT
BRANCH  10  12
HETATM   12  C   UNK N   1      25.923  16.139   4.986  0.00  0.00     0.106 C 
BRANCH  12  13
HETATM   13  N   UNK N   1      25.785  14.889   4.348  0.00  0.00    -0.365 N 
HETATM   14  H   UNK N   1      26.417  14.152   4.514  0.00  0.00     0.165 HD
BRANCH  13  15
HETATM   15  C   UNK N   1      24.691  14.741   3.452  0.00  0.00     0.032 A 
HETATM   16  C   UNK N   1      23.369  14.735   3.923  0.00  0.00     0.038 A 
HETATM   17  C   UNK N   1      22.333  14.602   2.989  0.00  0.00    -0.035 A 
HETATM   18  C   UNK N   1      20.898  14.546   3.254  0.00  0.00     0.179 C 
HETATM   19  C   UNK N   1      22.573  14.480   1.678  0.00  0.00    -0.037 A 
HETATM   20  S   UNK N   1      20.111  13.410   1.990  0.00  0.00     0.152 S 
HETATM   21  O   UNK N   1      19.057  14.286   2.683  0.00  0.00    -0.227 OA
HETATM   22  O   UNK N   1      19.422  14.106   0.806  0.00  0.00    -0.227 OA
HETATM   23  C   UNK N   1      21.334  14.333   0.924  0.00  0.00     0.179 C 
HETATM   24  C   UNK N   1      23.863  14.472   1.164  0.00  0.00     0.011 A 
HETATM   25  C   UNK N   1      24.928  14.608   2.058  0.00  0.00     0.030 A 
ENDBRANCH  13  15
ENDBRANCH  12  13
ENDBRANCH  10  12
BRANCH   7  26
HETATM   26  C   UNK N   1      22.670  19.958   3.205  0.00  0.00     0.102 A 
HETATM   27  O   UNK N   1      22.093  21.000   2.665  0.00  0.00    -0.304 OA
HETATM   28  C   UNK N   1      20.793  20.811   2.718  0.00  0.00     0.233 A 
HETATM   29  N   UNK N   1      20.501  19.627   3.301  0.00  0.00    -0.354 N 
HETATM   30  C   UNK N   1      21.689  19.079   3.613  0.00  0.00     0.127 A 
ATOM     31  HN  UNK N   1      19.576  19.233   3.469  1.00  0.00     0.166 HD
ENDBRANCH   7  26
TORSDOF 4
ENDMDL
