MODEL 1
REMARK VINA RESULT:      -7.9      0.000      0.000
REMARK  6 active torsions:
REMARK  status: ('A' for Active; 'I' for Inactive)
REMARK    1  A    between atoms: C_10  and  C_11 
REMARK    2  A    between atoms: C_11  and  N_12 
REMARK    3  A    between atoms: N_12  and  C_13 
REMARK    4  A    between atoms: C_16  and  S_19 
REMARK    5  A    between atoms: S_19  and  N_22 
REMARK    6  A    between atoms: N_22  and  C_23 
ROOT
HETATM    1  C   UNK N   1      26.612  24.384  -5.041  0.00  0.00     0.032 A 
HETATM    2  C   UNK N   1      27.734  23.941  -5.763  0.00  0.00     0.031 A 
HETATM    3  C   UNK N   1      28.875  23.511  -5.112  0.00  0.00     0.027 A 
HETATM    4  C   UNK N   1      28.930  23.532  -3.724  0.00  0.00     0.080 A 
HETATM    5  C   UNK N   1      27.833  24.005  -2.987  0.00  0.00     0.027 A 
HETATM    6  C   UNK N   1      26.673  24.442  -3.646  0.00  0.00     0.031 A 
ENDROOT
BRANCH   1   7
HETATM    7  N   UNK N   1      25.434  24.754  -5.742  0.00  0.00    -0.365 N 
HETATM    8  H   UNK N   1      24.817  24.079  -6.107  0.00  0.00     0.165 HD
BRANCH   7   9
HETATM    9  C   UNK N   1      25.192  26.139  -5.889  0.00  0.00     0.106 C 
BRANCH   9  10
HETATM   10  C   UNK N   1      26.189  26.983  -6.116  0.00  0.00     0.060 A 
HETATM   11  C   UNK N   1      27.009  27.154  -7.322  0.00  0.00     0.258 A 
HETATM   12  O   UNK N   1      27.032  26.413  -8.287  0.00  0.00    -0.267 OA
HETATM   13  N   UNK N   1      27.754  28.278  -7.222  0.00  0.00    -0.322 N 
HETATM   14  C   UNK N   1      27.430  28.877  -5.986  0.00  0.00     0.046 A 
HETATM   15  H   UNK N   1      28.400  28.615  -7.885  0.00  0.00     0.169 HD
HETATM   16  C   UNK N   1      27.865  30.110  -5.513  0.00  0.00     0.030 A 
HETATM   17  C   UNK N   1      26.514  28.122  -5.285  0.00  0.00     0.008 A 
HETATM   18  C   UNK N   1      27.344  30.568  -4.289  0.00  0.00     0.002 A 
HETATM   19  C   UNK N   1      26.401  29.795  -3.575  0.00  0.00     0.001 A 
HETATM   20  C   UNK N   1      25.970  28.557  -4.079  0.00  0.00     0.015 A 
ENDBRANCH   9  10
ENDBRANCH   7   9
ENDBRANCH   1   7
BRANCH   4  21
HETATM   21  S   UNK N   1      30.293  22.684  -2.950  0.00  0.00     0.264 S 
HETATM   22  O   UNK N   1      31.554  23.407  -3.445  0.00  0.00    -0.200 OA
HETATM   23  O   UNK N   1      30.434  22.928  -1.440  0.00  0.00    -0.200 OA
BRANCH  21  24
HETATM   24  N   UNK N   1      30.725  21.014  -3.235  0.00  0.00    -0.260 N 
HETATM   25  H   UNK N   1      30.088  20.296  -3.016  0.00  0.00     0.181 HD
BRANCH  24  26
HETATM   26  C   UNK N   1      31.985  20.692  -3.778  0.00  0.00     0.158 A 
HETATM   27  S   UNK N   1      32.255  20.143  -5.298  0.00  0.00    -0.064 SA
HETATM   28  C   UNK N   1      33.887  19.876  -5.155  0.00  0.00     0.070 A 
HETATM   29  C   UNK N   1      34.205  20.249  -3.834  0.00  0.00     0.097 A 
HETATM   30  N   UNK N   1      33.141  20.685  -3.076  0.00  0.00    -0.345 N 
ATOM     31  HN  UNK N   1      33.216  20.969  -2.100  1.00  0.00     0.167 HD
ENDBRANCH  24  26
ENDBRANCH  21  24
ENDBRANCH   4  21
TORSDOF 6
ENDMDL
MODEL 2
REMARK VINA RESULT:      -7.9     13.251     16.103
REMARK  6 active torsions:
REMARK  status: ('A' for Active; 'I' for Inactive)
REMARK    1  A    between atoms: C_10  and  C_11 
REMARK    2  A    between atoms: C_11  and  N_12 
REMARK    3  A    between atoms: N_12  and  C_13 
REMARK    4  A    between atoms: C_16  and  S_19 
REMARK    5  A    between atoms: S_19  and  N_22 
REMARK    6  A    between atoms: N_22  and  C_23 
ROOT
HETATM    1  C   UNK N   1      31.643  16.575   6.754  0.00  0.00     0.032 A 
HETATM    2  C   UNK N   1      31.756  15.438   7.574  0.00  0.00     0.031 A 
HETATM    3  C   UNK N   1      32.792  15.315   8.480  0.00  0.00     0.027 A 
HETATM    4  C   UNK N   1      33.753  16.313   8.574  0.00  0.00     0.080 A 
HETATM    5  C   UNK N   1      33.679  17.437   7.738  0.00  0.00     0.027 A 
HETATM    6  C   UNK N   1      32.627  17.566   6.817  0.00  0.00     0.031 A 
ENDROOT
BRANCH   1   7
HETATM    7  N   UNK N   1      30.529  16.699   5.883  0.00  0.00    -0.365 N 
HETATM    8  H   UNK N   1      30.641  16.928   4.932  0.00  0.00     0.165 HD
BRANCH   7   9
HETATM    9  C   UNK N   1      29.253  16.478   6.450  0.00  0.00     0.106 C 
BRANCH   9  10
HETATM   10  C   UNK N   1      28.558  17.480   6.970  0.00  0.00     0.060 A 
HETATM   11  C   UNK N   1      28.390  17.866   8.377  0.00  0.00     0.258 A 
HETATM   12  O   UNK N   1      28.724  17.212   9.346  0.00  0.00    -0.267 OA
HETATM   13  N   UNK N   1      27.801  19.081   8.458  0.00  0.00    -0.322 N 
HETATM   14  C   UNK N   1      27.597  19.528   7.135  0.00  0.00     0.046 A 
HETATM   15  H   UNK N   1      27.560  19.562   9.283  0.00  0.00     0.169 HD
HETATM   16  C   UNK N   1      27.128  20.775   6.735  0.00  0.00     0.030 A 
HETATM   17  C   UNK N   1      28.017  18.591   6.216  0.00  0.00     0.008 A 
HETATM   18  C   UNK N   1      27.090  21.054   5.356  0.00  0.00     0.002 A 
HETATM   19  C   UNK N   1      27.526  20.093   4.416  0.00  0.00     0.001 A 
HETATM   20  C   UNK N   1      28.005  18.845   4.847  0.00  0.00     0.015 A 
ENDBRANCH   9  10
ENDBRANCH   7   9
ENDBRANCH   1   7
BRANCH   4  21
HETATM   21  S   UNK N   1      34.871  16.239   9.961  0.00  0.00     0.264 S 
HETATM   22  O   UNK N   1      36.021  15.329   9.506  0.00  0.00    -0.200 OA
HETATM   23  O   UNK N   1      35.657  17.532  10.227  0.00  0.00    -0.200 OA
BRANCH  21  24
HETATM   24  N   UNK N   1      34.488  15.549  11.521  0.00  0.00    -0.260 N 
HETATM   25  H   UNK N   1      33.987  16.077  12.183  0.00  0.00     0.181 HD
BRANCH  24  26
HETATM   26  C   UNK N   1      34.897  14.237  11.833  0.00  0.00     0.158 A 
HETATM   27  S   UNK N   1      35.997  13.829  12.977  0.00  0.00    -0.064 SA
HETATM   28  C   UNK N   1      36.042  12.198  12.674  0.00  0.00     0.070 A 
HETATM   29  C   UNK N   1      35.134  11.995  11.616  0.00  0.00     0.097 A 
HETATM   30  N   UNK N   1      34.517  13.135  11.148  0.00  0.00    -0.345 N 
ATOM     31  HN  UNK N   1      33.852  13.146  10.375  1.00  0.00     0.167 HD
ENDBRANCH  24  26
ENDBRANCH  21  24
ENDBRANCH   4  21
TORSDOF 6
ENDMDL
MODEL 3
REMARK VINA RESULT:      -7.8     13.438     16.287
REMARK  6 active torsions:
REMARK  status: ('A' for Active; 'I' for Inactive)
REMARK    1  A    between atoms: C_10  and  C_11 
REMARK    2  A    between atoms: C_11  and  N_12 
REMARK    3  A    between atoms: N_12  and  C_13 
REMARK    4  A    between atoms: C_16  and  S_19 
REMARK    5  A    between atoms: S_19  and  N_22 
REMARK    6  A    between atoms: N_22  and  C_23 
ROOT
HETATM    1  C   UNK N   1      31.977  16.750   7.073  0.00  0.00     0.032 A 
HETATM    2  C   UNK N   1      32.330  15.417   7.348  0.00  0.00     0.031 A 
HETATM    3  C   UNK N   1      33.300  15.118   8.286  0.00  0.00     0.027 A 
HETATM    4  C   UNK N   1      33.956  16.142   8.956  0.00  0.00     0.080 A 
HETATM    5  C   UNK N   1      33.644  17.480   8.669  0.00  0.00     0.027 A 
HETATM    6  C   UNK N   1      32.658  17.787   7.717  0.00  0.00     0.031 A 
ENDROOT
BRANCH   1   7
HETATM    7  N   UNK N   1      30.930  17.019   6.154  0.00  0.00    -0.365 N 
HETATM    8  H   UNK N   1      31.106  17.428   5.275  0.00  0.00     0.165 HD
BRANCH   7   9
HETATM    9  C   UNK N   1      29.622  16.671   6.562  0.00  0.00     0.106 C 
BRANCH   9  10
HETATM   10  C   UNK N   1      28.796  17.586   7.050  0.00  0.00     0.060 A 
HETATM   11  C   UNK N   1      28.496  17.919   8.448  0.00  0.00     0.258 A 
HETATM   12  O   UNK N   1      28.829  17.279   9.427  0.00  0.00    -0.267 OA
HETATM   13  N   UNK N   1      27.783  19.067   8.509  0.00  0.00    -0.322 N 
HETATM   14  C   UNK N   1      27.624  19.523   7.183  0.00  0.00     0.046 A 
HETATM   15  H   UNK N   1      27.441  19.503   9.324  0.00  0.00     0.169 HD
HETATM   16  C   UNK N   1      27.059  20.726   6.773  0.00  0.00     0.030 A 
HETATM   17  C   UNK N   1      28.196  18.654   6.279  0.00  0.00     0.008 A 
HETATM   18  C   UNK N   1      27.085  21.032   5.400  0.00  0.00     0.002 A 
HETATM   19  C   UNK N   1      27.677  20.142   4.476  0.00  0.00     0.001 A 
HETATM   20  C   UNK N   1      28.251  18.938   4.917  0.00  0.00     0.015 A 
ENDBRANCH   9  10
ENDBRANCH   7   9
ENDBRANCH   1   7
BRANCH   4  21
HETATM   21  S   UNK N   1      34.959  15.687  10.357  0.00  0.00     0.264 S 
HETATM   22  O   UNK N   1      35.256  17.004  11.089  0.00  0.00    -0.200 OA
HETATM   23  O   UNK N   1      34.213  14.937  11.472  0.00  0.00    -0.200 OA
BRANCH  21  24
HETATM   24  N   UNK N   1      36.558  14.986  10.259  0.00  0.00    -0.260 N 
HETATM   25  H   UNK N   1      37.240  15.396   9.680  0.00  0.00     0.181 HD
BRANCH  24  26
HETATM   26  C   UNK N   1      36.872  13.834  11.008  0.00  0.00     0.158 A 
HETATM   27  S   UNK N   1      37.069  12.326  10.397  0.00  0.00    -0.064 SA
HETATM   28  C   UNK N   1      37.276  11.526  11.836  0.00  0.00     0.070 A 
HETATM   29  C   UNK N   1      37.182  12.522  12.828  0.00  0.00     0.097 A 
HETATM   30  N   UNK N   1      36.943  13.794  12.357  0.00  0.00    -0.345 N 
ATOM     31  HN  UNK N   1      36.832  14.612  12.957  1.00  0.00     0.167 HD
ENDBRANCH  24  26
ENDBRANCH  21  24
ENDBRANCH   4  21
TORSDOF 6
ENDMDL
MODEL 4
REMARK VINA RESULT:      -7.6     23.553     27.778
REMARK  6 active torsions:
REMARK  status: ('A' for Active; 'I' for Inactive)
REMARK    1  A    between atoms: C_10  and  C_11 
REMARK    2  A    between atoms: C_11  and  N_12 
REMARK    3  A    between atoms: N_12  and  C_13 
REMARK    4  A    between atoms: C_16  and  S_19 
REMARK    5  A    between atoms: S_19  and  N_22 
REMARK    6  A    between atoms: N_22  and  C_23 
ROOT
HETATM    1  C   UNK N   1      35.315  11.944  19.109  0.00  0.00     0.032 A 
HETATM    2  C   UNK N   1      35.603  11.016  18.092  0.00  0.00     0.031 A 
HETATM    3  C   UNK N   1      35.799  11.429  16.788  0.00  0.00     0.027 A 
HETATM    4  C   UNK N   1      35.691  12.774  16.463  0.00  0.00     0.080 A 
HETATM    5  C   UNK N   1      35.368  13.711  17.457  0.00  0.00     0.027 A 
HETATM    6  C   UNK N   1      35.169  13.295  18.783  0.00  0.00     0.031 A 
ENDROOT
BRANCH   1   7
HETATM    7  N   UNK N   1      35.188  11.492  20.449  0.00  0.00    -0.365 N 
HETATM    8  H   UNK N   1      35.228  12.116  21.210  0.00  0.00     0.165 HD
BRANCH   7   9
HETATM    9  C   UNK N   1      35.000  10.104  20.636  0.00  0.00     0.106 C 
BRANCH   9  10
HETATM   10  C   UNK N   1      33.827   9.623  21.025  0.00  0.00     0.060 A 
HETATM   11  C   UNK N   1      32.786  10.256  21.844  0.00  0.00     0.258 A 
HETATM   12  O   UNK N   1      32.895  11.292  22.471  0.00  0.00    -0.267 OA
HETATM   13  N   UNK N   1      31.653   9.517  21.806  0.00  0.00    -0.322 N 
HETATM   14  C   UNK N   1      31.906   8.419  20.957  0.00  0.00     0.046 A 
HETATM   15  H   UNK N   1      30.811   9.709  22.281  0.00  0.00     0.169 HD
HETATM   16  C   UNK N   1      30.992   7.461  20.531  0.00  0.00     0.030 A 
HETATM   17  C   UNK N   1      33.201   8.434  20.487  0.00  0.00     0.008 A 
HETATM   18  C   UNK N   1      31.430   6.499  19.602  0.00  0.00     0.002 A 
HETATM   19  C   UNK N   1      32.757   6.520  19.118  0.00  0.00     0.001 A 
HETATM   20  C   UNK N   1      33.658   7.504  19.556  0.00  0.00     0.015 A 
ENDBRANCH   9  10
ENDBRANCH   7   9
ENDBRANCH   1   7
BRANCH   4  21
HETATM   21  S   UNK N   1      36.254  13.270  14.846  0.00  0.00     0.264 S 
HETATM   22  O   UNK N   1      34.984  13.375  13.989  0.00  0.00    -0.200 OA
HETATM   23  O   UNK N   1      36.749  14.721  14.750  0.00  0.00    -0.200 OA
BRANCH  21  24
HETATM   24  N   UNK N   1      37.286  12.314  13.808  0.00  0.00    -0.260 N 
HETATM   25  H   UNK N   1      37.853  11.608  14.194  0.00  0.00     0.181 HD
BRANCH  24  26
HETATM   26  C   UNK N   1      37.308  12.552  12.419  0.00  0.00     0.158 A 
HETATM   27  S   UNK N   1      37.611  11.428  11.266  0.00  0.00    -0.064 SA
HETATM   28  C   UNK N   1      37.596  12.444   9.953  0.00  0.00     0.070 A 
HETATM   29  C   UNK N   1      37.336  13.724  10.482  0.00  0.00     0.097 A 
HETATM   30  N   UNK N   1      37.193  13.773  11.851  0.00  0.00    -0.345 N 
ATOM     31  HN  UNK N   1      37.021  14.631  12.375  1.00  0.00     0.167 HD
ENDBRANCH  24  26
ENDBRANCH  21  24
ENDBRANCH   4  21
TORSDOF 6
ENDMDL
MODEL 5
REMARK VINA RESULT:      -7.5     16.580     21.471
REMARK  6 active torsions:
REMARK  status: ('A' for Active; 'I' for Inactive)
REMARK    1  A    between atoms: C_10  and  C_11 
REMARK    2  A    between atoms: C_11  and  N_12 
REMARK    3  A    between atoms: N_12  and  C_13 
REMARK    4  A    between atoms: C_16  and  S_19 
REMARK    5  A    between atoms: S_19  and  N_22 
REMARK    6  A    between atoms: N_22  and  C_23 
ROOT
HETATM    1  C   UNK N   1      35.884  15.186  10.787  0.00  0.00     0.032 A 
HETATM    2  C   UNK N   1      35.561  16.551  10.875  0.00  0.00     0.031 A 
HETATM    3  C   UNK N   1      34.939  17.204   9.827  0.00  0.00     0.027 A 
HETATM    4  C   UNK N   1      34.645  16.515   8.658  0.00  0.00     0.080 A 
HETATM    5  C   UNK N   1      34.993  15.160   8.537  0.00  0.00     0.027 A 
HETATM    6  C   UNK N   1      35.623  14.494   9.600  0.00  0.00     0.031 A 
ENDROOT
BRANCH   1   7
HETATM    7  N   UNK N   1      36.460  14.532  11.907  0.00  0.00    -0.365 N 
HETATM    8  H   UNK N   1      37.416  14.627  12.125  0.00  0.00     0.165 HD
BRANCH   7   9
HETATM    9  C   UNK N   1      35.594  13.737  12.693  0.00  0.00     0.106 C 
BRANCH   9  10
HETATM   10  C   UNK N   1      35.914  13.411  13.937  0.00  0.00     0.060 A 
HETATM   11  C   UNK N   1      36.536  14.230  14.985  0.00  0.00     0.258 A 
HETATM   12  O   UNK N   1      37.041  15.326  14.836  0.00  0.00    -0.267 OA
HETATM   13  N   UNK N   1      36.470  13.590  16.175  0.00  0.00    -0.322 N 
HETATM   14  C   UNK N   1      35.793  12.373  15.951  0.00  0.00     0.046 A 
HETATM   15  H   UNK N   1      36.827  13.912  17.035  0.00  0.00     0.169 HD
HETATM   16  C   UNK N   1      35.393  11.447  16.909  0.00  0.00     0.030 A 
HETATM   17  C   UNK N   1      35.462  12.218  14.622  0.00  0.00     0.008 A 
HETATM   18  C   UNK N   1      34.639  10.339  16.480  0.00  0.00     0.002 A 
HETATM   19  C   UNK N   1      34.297  10.185  15.118  0.00  0.00     0.001 A 
HETATM   20  C   UNK N   1      34.704  11.140  14.171  0.00  0.00     0.015 A 
ENDBRANCH   9  10
ENDBRANCH   7   9
ENDBRANCH   1   7
BRANCH   4  21
HETATM   21  S   UNK N   1      33.578  17.324   7.482  0.00  0.00     0.264 S 
HETATM   22  O   UNK N   1      33.367  18.741   8.035  0.00  0.00    -0.200 OA
HETATM   23  O   UNK N   1      34.239  17.669   6.138  0.00  0.00    -0.200 OA
BRANCH  21  24
HETATM   24  N   UNK N   1      31.932  16.849   7.129  0.00  0.00    -0.260 N 
HETATM   25  H   UNK N   1      31.750  16.213   6.401  0.00  0.00     0.181 HD
BRANCH  24  26
HETATM   26  C   UNK N   1      30.867  17.376   7.885  0.00  0.00     0.158 A 
HETATM   27  S   UNK N   1      29.360  17.685   7.320  0.00  0.00    -0.064 SA
HETATM   28  C   UNK N   1      28.743  18.382   8.694  0.00  0.00     0.070 A 
HETATM   29  C   UNK N   1      29.799  18.355   9.626  0.00  0.00     0.097 A 
HETATM   30  N   UNK N   1      30.975  17.809   9.161  0.00  0.00    -0.345 N 
ATOM     31  HN  UNK N   1      31.828  17.740   9.715  1.00  0.00     0.167 HD
ENDBRANCH  24  26
ENDBRANCH  21  24
ENDBRANCH   4  21
TORSDOF 6
ENDMDL
MODEL 6
REMARK VINA RESULT:      -7.5     17.126     21.955
REMARK  6 active torsions:
REMARK  status: ('A' for Active; 'I' for Inactive)
REMARK    1  A    between atoms: C_10  and  C_11 
REMARK    2  A    between atoms: C_11  and  N_12 
REMARK    3  A    between atoms: N_12  and  C_13 
REMARK    4  A    between atoms: C_16  and  S_19 
REMARK    5  A    between atoms: S_19  and  N_22 
REMARK    6  A    between atoms: N_22  and  C_23 
ROOT
HETATM    1  C   UNK N   1      35.653  15.193  11.538  0.00  0.00     0.032 A 
HETATM    2  C   UNK N   1      34.539  14.432  11.140  0.00  0.00     0.031 A 
HETATM    3  C   UNK N   1      33.713  14.863  10.119  0.00  0.00     0.027 A 
HETATM    4  C   UNK N   1      33.965  16.072   9.486  0.00  0.00     0.080 A 
HETATM    5  C   UNK N   1      35.050  16.863   9.895  0.00  0.00     0.027 A 
HETATM    6  C   UNK N   1      35.892  16.429  10.930  0.00  0.00     0.031 A 
ENDROOT
BRANCH   1   7
HETATM    7  N   UNK N   1      36.518  14.688  12.543  0.00  0.00    -0.365 N 
HETATM    8  H   UNK N   1      37.497  14.695  12.433  0.00  0.00     0.165 HD
BRANCH   7   9
HETATM    9  C   UNK N   1      35.906  14.174  13.709  0.00  0.00     0.106 C 
BRANCH   9  10
HETATM   10  C   UNK N   1      36.158  12.939  14.121  0.00  0.00     0.060 A 
HETATM   11  C   UNK N   1      37.004  11.907  13.508  0.00  0.00     0.258 A 
HETATM   12  O   UNK N   1      37.494  11.945  12.396  0.00  0.00    -0.267 OA
HETATM   13  N   UNK N   1      37.176  10.877  14.369  0.00  0.00    -0.322 N 
HETATM   14  C   UNK N   1      36.486  11.212  15.554  0.00  0.00     0.046 A 
HETATM   15  H   UNK N   1      37.686  10.051  14.201  0.00  0.00     0.169 HD
HETATM   16  C   UNK N   1      36.485  10.504  16.751  0.00  0.00     0.030 A 
HETATM   17  C   UNK N   1      35.846  12.427  15.438  0.00  0.00     0.008 A 
HETATM   18  C   UNK N   1      35.805  11.065  17.848  0.00  0.00     0.002 A 
HETATM   19  C   UNK N   1      35.155  12.313  17.728  0.00  0.00     0.001 A 
HETATM   20  C   UNK N   1      35.179  13.013  16.511  0.00  0.00     0.015 A 
ENDBRANCH   9  10
ENDBRANCH   7   9
ENDBRANCH   1   7
BRANCH   4  21
HETATM   21  S   UNK N   1      33.057  16.414   7.991  0.00  0.00     0.264 S 
HETATM   22  O   UNK N   1      33.147  17.936   7.801  0.00  0.00    -0.200 OA
HETATM   23  O   UNK N   1      33.745  15.954   6.696  0.00  0.00    -0.200 OA
BRANCH  21  24
HETATM   24  N   UNK N   1      31.343  16.146   7.776  0.00  0.00    -0.260 N 
HETATM   25  H   UNK N   1      31.028  15.374   7.253  0.00  0.00     0.181 HD
BRANCH  24  26
HETATM   26  C   UNK N   1      30.411  17.034   8.348  0.00  0.00     0.158 A 
HETATM   27  S   UNK N   1      28.962  17.441   7.700  0.00  0.00    -0.064 SA
HETATM   28  C   UNK N   1      28.522  18.576   8.829  0.00  0.00     0.070 A 
HETATM   29  C   UNK N   1      29.588  18.612   9.749  0.00  0.00     0.097 A 
HETATM   30  N   UNK N   1      30.636  17.764   9.463  0.00  0.00    -0.345 N 
ATOM     31  HN  UNK N   1      31.483  17.696  10.028  1.00  0.00     0.167 HD
ENDBRANCH  24  26
ENDBRANCH  21  24
ENDBRANCH   4  21
TORSDOF 6
ENDMDL
MODEL 7
REMARK VINA RESULT:      -7.5     11.189     14.298
REMARK  6 active torsions:
REMARK  status: ('A' for Active; 'I' for Inactive)
REMARK    1  A    between atoms: C_10  and  C_11 
REMARK    2  A    between atoms: C_11  and  N_12 
REMARK    3  A    between atoms: N_12  and  C_13 
REMARK    4  A    between atoms: C_16  and  S_19 
REMARK    5  A    between atoms: S_19  and  N_22 
REMARK    6  A    between atoms: N_22  and  C_23 
ROOT
HETATM    1  C   UNK N   1      25.735  19.006   3.630  0.00  0.00     0.032 A 
HETATM    2  C   UNK N   1      25.111  20.153   3.106  0.00  0.00     0.031 A 
HETATM    3  C   UNK N   1      23.734  20.254   3.057  0.00  0.00     0.027 A 
HETATM    4  C   UNK N   1      22.946  19.204   3.509  0.00  0.00     0.080 A 
HETATM    5  C   UNK N   1      23.549  18.036   4.001  0.00  0.00     0.027 A 
HETATM    6  C   UNK N   1      24.948  17.931   4.054  0.00  0.00     0.031 A 
ENDROOT
BRANCH   1   7
HETATM    7  N   UNK N   1      27.150  18.965   3.728  0.00  0.00    -0.365 N 
HETATM    8  H   UNK N   1      27.678  18.262   3.285  0.00  0.00     0.165 HD
BRANCH   7   9
HETATM    9  C   UNK N   1      27.763  19.984   4.493  0.00  0.00     0.106 C 
BRANCH   9  10
HETATM   10  C   UNK N   1      27.714  19.962   5.818  0.00  0.00     0.060 A 
HETATM   11  C   UNK N   1      26.837  20.707   6.729  0.00  0.00     0.258 A 
HETATM   12  O   UNK N   1      26.102  21.628   6.428  0.00  0.00    -0.267 OA
HETATM   13  N   UNK N   1      26.950  20.218   7.986  0.00  0.00    -0.322 N 
HETATM   14  C   UNK N   1      27.865  19.145   7.928  0.00  0.00     0.046 A 
HETATM   15  H   UNK N   1      26.484  20.548   8.788  0.00  0.00     0.169 HD
HETATM   16  C   UNK N   1      28.198  18.271   8.958  0.00  0.00     0.030 A 
HETATM   17  C   UNK N   1      28.360  18.973   6.653  0.00  0.00     0.008 A 
HETATM   18  C   UNK N   1      29.064  17.203   8.662  0.00  0.00     0.002 A 
HETATM   19  C   UNK N   1      29.567  17.026   7.354  0.00  0.00     0.001 A 
HETATM   20  C   UNK N   1      29.206  17.916   6.328  0.00  0.00     0.015 A 
ENDBRANCH   9  10
ENDBRANCH   7   9
ENDBRANCH   1   7
BRANCH   4  21
HETATM   21  S   UNK N   1      21.202  19.520   3.704  0.00  0.00     0.264 S 
HETATM   22  O   UNK N   1      20.942  19.442   5.215  0.00  0.00    -0.200 OA
HETATM   23  O   UNK N   1      20.775  20.973   3.444  0.00  0.00    -0.200 OA
BRANCH  21  24
HETATM   24  N   UNK N   1      19.924  18.499   3.087  0.00  0.00    -0.260 N 
HETATM   25  H   UNK N   1      19.191  18.892   2.561  0.00  0.00     0.181 HD
BRANCH  24  26
HETATM   26  C   UNK N   1      19.940  17.113   3.342  0.00  0.00     0.158 A 
HETATM   27  S   UNK N   1      20.792  15.999   2.494  0.00  0.00    -0.064 SA
HETATM   28  C   UNK N   1      20.222  14.645   3.266  0.00  0.00     0.070 A 
HETATM   29  C   UNK N   1      19.319  15.127   4.234  0.00  0.00     0.097 A 
HETATM   30  N   UNK N   1      19.160  16.495   4.256  0.00  0.00    -0.345 N 
ATOM     31  HN  UNK N   1      18.527  16.984   4.889  1.00  0.00     0.167 HD
ENDBRANCH  24  26
ENDBRANCH  21  24
ENDBRANCH   4  21
TORSDOF 6
ENDMDL
MODEL 8
REMARK VINA RESULT:      -7.5      1.609      2.298
REMARK  6 active torsions:
REMARK  status: ('A' for Active; 'I' for Inactive)
REMARK    1  A    between atoms: C_10  and  C_11 
REMARK    2  A    between atoms: C_11  and  N_12 
REMARK    3  A    between atoms: N_12  and  C_13 
REMARK    4  A    between atoms: C_16  and  S_19 
REMARK    5  A    between atoms: S_19  and  N_22 
REMARK    6  A    between atoms: N_22  and  C_23 
ROOT
HETATM    1  C   UNK N   1      26.665  24.320  -4.991  0.00  0.00     0.032 A 
HETATM    2  C   UNK N   1      27.833  24.024  -5.715  0.00  0.00     0.031 A 
HETATM    3  C   UNK N   1      28.993  23.642  -5.069  0.00  0.00     0.027 A 
HETATM    4  C   UNK N   1      29.022  23.568  -3.683  0.00  0.00     0.080 A 
HETATM    5  C   UNK N   1      27.877  23.895  -2.940  0.00  0.00     0.027 A 
HETATM    6  C   UNK N   1      26.696  24.282  -3.594  0.00  0.00     0.031 A 
ENDROOT
BRANCH   1   7
HETATM    7  N   UNK N   1      25.473  24.643  -5.691  0.00  0.00    -0.365 N 
HETATM    8  H   UNK N   1      25.067  24.018  -6.334  0.00  0.00     0.165 HD
BRANCH   7   9
HETATM    9  C   UNK N   1      24.899  25.905  -5.418  0.00  0.00     0.106 C 
BRANCH   9  10
HETATM   10  C   UNK N   1      25.641  27.004  -5.420  0.00  0.00     0.060 A 
HETATM   11  C   UNK N   1      25.951  27.921  -4.316  0.00  0.00     0.258 A 
HETATM   12  O   UNK N   1      25.425  27.930  -3.220  0.00  0.00    -0.267 OA
HETATM   13  N   UNK N   1      26.930  28.778  -4.685  0.00  0.00    -0.322 N 
HETATM   14  C   UNK N   1      27.300  28.436  -6.003  0.00  0.00     0.046 A 
HETATM   15  H   UNK N   1      27.312  29.503  -4.139  0.00  0.00     0.169 HD
HETATM   16  C   UNK N   1      28.348  28.971  -6.745  0.00  0.00     0.030 A 
HETATM   17  C   UNK N   1      26.538  27.394  -6.486  0.00  0.00     0.008 A 
HETATM   18  C   UNK N   1      28.609  28.418  -8.012  0.00  0.00     0.002 A 
HETATM   19  C   UNK N   1      27.829  27.347  -8.503  0.00  0.00     0.001 A 
HETATM   20  C   UNK N   1      26.783  26.817  -7.730  0.00  0.00     0.015 A 
ENDBRANCH   9  10
ENDBRANCH   7   9
ENDBRANCH   1   7
BRANCH   4  21
HETATM   21  S   UNK N   1      30.437  22.780  -2.939  0.00  0.00     0.264 S 
HETATM   22  O   UNK N   1      31.647  23.612  -3.387  0.00  0.00    -0.200 OA
HETATM   23  O   UNK N   1      30.552  22.959  -1.417  0.00  0.00    -0.200 OA
BRANCH  21  24
HETATM   24  N   UNK N   1      30.987  21.160  -3.300  0.00  0.00    -0.260 N 
HETATM   25  H   UNK N   1      30.442  20.385  -3.034  0.00  0.00     0.181 HD
BRANCH  24  26
HETATM   26  C   UNK N   1      32.210  20.962  -3.972  0.00  0.00     0.158 A 
HETATM   27  S   UNK N   1      33.648  20.641  -3.255  0.00  0.00    -0.064 SA
HETATM   28  C   UNK N   1      34.591  20.672  -4.621  0.00  0.00     0.070 A 
HETATM   29  C   UNK N   1      33.700  20.949  -5.677  0.00  0.00     0.097 A 
HETATM   30  N   UNK N   1      32.386  21.123  -5.302  0.00  0.00    -0.345 N 
ATOM     31  HN  UNK N   1      31.633  21.347  -5.953  1.00  0.00     0.167 HD
ENDBRANCH  24  26
ENDBRANCH  21  24
ENDBRANCH   4  21
TORSDOF 6
ENDMDL
MODEL 9
REMARK VINA RESULT:      -7.5     15.930     20.898
REMARK  6 active torsions:
REMARK  status: ('A' for Active; 'I' for Inactive)
REMARK    1  A    between atoms: C_10  and  C_11 
REMARK    2  A    between atoms: C_11  and  N_12 
REMARK    3  A    between atoms: N_12  and  C_13 
REMARK    4  A    between atoms: C_16  and  S_19 
REMARK    5  A    between atoms: S_19  and  N_22 
REMARK    6  A    between atoms: N_22  and  C_23 
ROOT
HETATM    1  C   UNK N   1      35.997  14.962  10.760  0.00  0.00     0.032 A 
HETATM    2  C   UNK N   1      36.017  14.300   9.520  0.00  0.00     0.031 A 
HETATM    3  C   UNK N   1      35.374  14.833   8.419  0.00  0.00     0.027 A 
HETATM    4  C   UNK N   1      34.677  16.028   8.536  0.00  0.00     0.080 A 
HETATM    5  C   UNK N   1      34.613  16.685   9.774  0.00  0.00     0.027 A 
HETATM    6  C   UNK N   1      35.267  16.146  10.894  0.00  0.00     0.031 A 
ENDROOT
BRANCH   1   7
HETATM    7  N   UNK N   1      36.725  14.420  11.852  0.00  0.00    -0.365 N 
HETATM    8  H   UNK N   1      37.486  13.810  11.713  0.00  0.00     0.165 HD
BRANCH   7   9
HETATM    9  C   UNK N   1      36.304  14.799  13.146  0.00  0.00     0.106 C 
BRANCH   9  10
HETATM   10  C   UNK N   1      36.303  13.926  14.144  0.00  0.00     0.060 A 
HETATM   11  C   UNK N   1      36.818  14.072  15.511  0.00  0.00     0.258 A 
HETATM   12  O   UNK N   1      37.511  14.982  15.925  0.00  0.00    -0.267 OA
HETATM   13  N   UNK N   1      36.407  13.035  16.276  0.00  0.00    -0.322 N 
HETATM   14  C   UNK N   1      35.605  12.212  15.456  0.00  0.00     0.046 A 
HETATM   15  H   UNK N   1      36.625  12.882  17.225  0.00  0.00     0.169 HD
HETATM   16  C   UNK N   1      34.874  11.096  15.848  0.00  0.00     0.030 A 
HETATM   17  C   UNK N   1      35.536  12.699  14.168  0.00  0.00     0.008 A 
HETATM   18  C   UNK N   1      34.058  10.471  14.887  0.00  0.00     0.002 A 
HETATM   19  C   UNK N   1      33.985  10.975  13.569  0.00  0.00     0.001 A 
HETATM   20  C   UNK N   1      34.726  12.110  13.201  0.00  0.00     0.015 A 
ENDBRANCH   9  10
ENDBRANCH   7   9
ENDBRANCH   1   7
BRANCH   4  21
HETATM   21  S   UNK N   1      34.139  16.808   7.025  0.00  0.00     0.264 S 
HETATM   22  O   UNK N   1      34.680  18.244   7.096  0.00  0.00    -0.200 OA
HETATM   23  O   UNK N   1      34.858  16.325   5.756  0.00  0.00    -0.200 OA
BRANCH  21  24
HETATM   24  N   UNK N   1      32.472  17.095   6.583  0.00  0.00    -0.260 N 
HETATM   25  H   UNK N   1      31.827  17.393   7.265  0.00  0.00     0.181 HD
BRANCH  24  26
HETATM   26  C   UNK N   1      32.049  16.900   5.253  0.00  0.00     0.158 A 
HETATM   27  S   UNK N   1      30.900  15.839   4.766  0.00  0.00    -0.064 SA
HETATM   28  C   UNK N   1      31.051  16.080   3.131  0.00  0.00     0.070 A 
HETATM   29  C   UNK N   1      32.063  17.051   2.994  0.00  0.00     0.097 A 
HETATM   30  N   UNK N   1      32.619  17.486   4.177  0.00  0.00    -0.345 N 
ATOM     31  HN  UNK N   1      33.373  18.171   4.233  1.00  0.00     0.167 HD
ENDBRANCH  24  26
ENDBRANCH  21  24
ENDBRANCH   4  21
TORSDOF 6
ENDMDL
