MODEL 1
REMARK VINA RESULT:      -7.7      0.000      0.000
REMARK  4 active torsions:
REMARK  status: ('A' for Active; 'I' for Inactive)
REMARK    1  A    between atoms: C_11  and  N_12 
REMARK    2  A    between atoms: N_12  and  C_13 
REMARK    3  A    between atoms: C_16  and  S_19 
REMARK    4  A    between atoms: S_19  and  N_22 
REMARK       I    between atoms: N_22  and  C_23 
REMARK       I    between atoms: C_23  and  N_26 
ROOT
HETATM    1  C   UNK N   1      36.216  14.726  11.339  0.00  0.00     0.032 A 
HETATM    2  C   UNK N   1      35.761  16.040  11.447  0.00  0.00     0.031 A 
HETATM    3  C   UNK N   1      35.131  16.656  10.365  0.00  0.00     0.027 A 
HETATM    4  C   UNK N   1      34.940  15.966   9.158  0.00  0.00     0.080 A 
HETATM    5  C   UNK N   1      35.341  14.600   9.087  0.00  0.00     0.027 A 
HETATM    6  C   UNK N   1      35.971  13.997  10.167  0.00  0.00     0.031 A 
ENDROOT
BRANCH   1   7
HETATM    7  N   UNK N   1      36.932  14.148  12.410  0.00  0.00    -0.365 N 
HETATM    8  H   UNK N   1      37.854  13.835  12.270  0.00  0.00     0.165 HD
BRANCH   7   9
HETATM    9  C   UNK N   1      36.329  14.015  13.680  0.00  0.00     0.106 C 
HETATM   10  C   UNK N   1      36.415  12.856  14.323  0.00  0.00     0.060 A 
HETATM   11  C   UNK N   1      37.076  11.623  13.872  0.00  0.00     0.258 A 
HETATM   12  C   UNK N   1      35.979  12.563  15.674  0.00  0.00     0.008 A 
HETATM   13  N   UNK N   1      37.046  10.692  14.849  0.00  0.00    -0.322 N 
HETATM   14  O   UNK N   1      37.596  11.443  12.786  0.00  0.00    -0.267 OA
HETATM   15  C   UNK N   1      36.384  11.273  15.950  0.00  0.00     0.046 A 
HETATM   16  H   UNK N   1      37.416   9.781  14.801  0.00  0.00     0.169 HD
HETATM   17  C   UNK N   1      36.163  10.691  17.191  0.00  0.00     0.030 A 
HETATM   18  C   UNK N   1      35.505  11.458  18.170  0.00  0.00     0.002 A 
HETATM   19  C   UNK N   1      35.090  12.780  17.888  0.00  0.00     0.001 A 
HETATM   20  C   UNK N   1      35.331  13.348  16.624  0.00  0.00     0.015 A 
ENDBRANCH   7   9
ENDBRANCH   1   7
BRANCH   4  21
HETATM   21  S   UNK N   1      34.273  16.930   7.735  0.00  0.00     0.276 S 
HETATM   22  O   UNK N   1      33.491  15.623   7.977  0.00  0.00    -0.200 OA
HETATM   23  O   UNK N   1      33.820  17.849   8.879  0.00  0.00    -0.200 OA
BRANCH  21  24
HETATM   24  N   UNK N   1      32.628  17.218   7.104  0.00  0.00    -0.113 N 
HETATM   25  C   UNK N   1      31.381  17.181   7.817  0.00  0.00     0.679 C 
HETATM   26  N   UNK N   1      30.294  17.435   7.192  0.00  0.00    -0.234 N 
HETATM   27  N   UNK N   1      31.325  16.822   9.185  0.00  0.00    -0.234 N 
HETATM   28  H   UNK N   1      29.414  17.314   7.617  0.00  0.00     0.174 HD
ATOM     29  HN  UNK N   1      30.339  17.771   6.229  1.00  0.00     0.174 HD
HETATM   30  H   UNK N   1      32.131  16.494   9.644  0.00  0.00     0.174 HD
HETATM   31  H   UNK N   1      30.476  16.901   9.679  0.00  0.00     0.174 HD
HETATM   32  H   UNK N   1      32.568  17.430   6.145  0.00  0.00     0.197 HD
ENDBRANCH  21  24
ENDBRANCH   4  21
TORSDOF 4
ENDMDL
MODEL 2
REMARK VINA RESULT:      -7.7      3.480      9.042
REMARK  4 active torsions:
REMARK  status: ('A' for Active; 'I' for Inactive)
REMARK    1  A    between atoms: C_11  and  N_12 
REMARK    2  A    between atoms: N_12  and  C_13 
REMARK    3  A    between atoms: C_16  and  S_19 
REMARK    4  A    between atoms: S_19  and  N_22 
REMARK       I    between atoms: N_22  and  C_23 
REMARK       I    between atoms: C_23  and  N_26 
ROOT
HETATM    1  C   UNK N   1      35.568  13.354  12.501  0.00  0.00     0.032 A 
HETATM    2  C   UNK N   1      36.172  14.108  13.506  0.00  0.00     0.031 A 
HETATM    3  C   UNK N   1      35.945  13.800  14.848  0.00  0.00     0.027 A 
HETATM    4  C   UNK N   1      35.111  12.730  15.207  0.00  0.00     0.080 A 
HETATM    5  C   UNK N   1      34.561  11.920  14.171  0.00  0.00     0.027 A 
HETATM    6  C   UNK N   1      34.790  12.237  12.839  0.00  0.00     0.031 A 
ENDROOT
BRANCH   1   7
HETATM    7  N   UNK N   1      35.735  13.733  11.152  0.00  0.00    -0.365 N 
HETATM    8  H   UNK N   1      36.636  13.759  10.758  0.00  0.00     0.165 HD
BRANCH   7   9
HETATM    9  C   UNK N   1      34.614  14.077  10.364  0.00  0.00     0.106 C 
HETATM   10  C   UNK N   1      34.470  15.331   9.950  0.00  0.00     0.060 A 
HETATM   11  C   UNK N   1      35.354  16.474  10.217  0.00  0.00     0.258 A 
HETATM   12  C   UNK N   1      33.469  15.848   9.038  0.00  0.00     0.008 A 
HETATM   13  N   UNK N   1      34.934  17.560   9.533  0.00  0.00    -0.322 N 
HETATM   14  O   UNK N   1      36.338  16.469  10.933  0.00  0.00    -0.267 OA
HETATM   15  C   UNK N   1      33.788  17.171   8.809  0.00  0.00     0.046 A 
HETATM   16  H   UNK N   1      35.349  18.453   9.541  0.00  0.00     0.169 HD
HETATM   17  C   UNK N   1      33.049  17.957   7.934  0.00  0.00     0.030 A 
HETATM   18  C   UNK N   1      31.952  17.364   7.284  0.00  0.00     0.002 A 
HETATM   19  C   UNK N   1      31.624  16.009   7.519  0.00  0.00     0.001 A 
HETATM   20  C   UNK N   1      32.392  15.233   8.405  0.00  0.00     0.015 A 
ENDBRANCH   7   9
ENDBRANCH   1   7
BRANCH   4  21
HETATM   21  S   UNK N   1      34.725  12.530  16.999  0.00  0.00     0.276 S 
HETATM   22  O   UNK N   1      35.430  11.292  16.409  0.00  0.00    -0.200 OA
HETATM   23  O   UNK N   1      35.845  13.574  17.112  0.00  0.00    -0.200 OA
BRANCH  21  24
HETATM   24  N   UNK N   1      35.572  11.750  18.363  0.00  0.00    -0.113 N 
HETATM   25  C   UNK N   1      35.567  12.128  19.750  0.00  0.00     0.679 C 
HETATM   26  N   UNK N   1      36.228  11.429  20.593  0.00  0.00    -0.234 N 
HETATM   27  N   UNK N   1      34.884  13.285  20.194  0.00  0.00    -0.234 N 
HETATM   28  H   UNK N   1      36.337  11.716  21.528  0.00  0.00     0.174 HD
ATOM     29  HN  UNK N   1      36.654  10.552  20.289  1.00  0.00     0.174 HD
HETATM   30  H   UNK N   1      34.486  13.906  19.543  0.00  0.00     0.174 HD
HETATM   31  H   UNK N   1      34.809  13.470  21.159  0.00  0.00     0.174 HD
HETATM   32  H   UNK N   1      36.113  10.959  18.136  0.00  0.00     0.197 HD
ENDBRANCH  21  24
ENDBRANCH   4  21
TORSDOF 4
ENDMDL
MODEL 3
REMARK VINA RESULT:      -7.7      2.505      3.670
REMARK  4 active torsions:
REMARK  status: ('A' for Active; 'I' for Inactive)
REMARK    1  A    between atoms: C_11  and  N_12 
REMARK    2  A    between atoms: N_12  and  C_13 
REMARK    3  A    between atoms: C_16  and  S_19 
REMARK    4  A    between atoms: S_19  and  N_22 
REMARK       I    between atoms: N_22  and  C_23 
REMARK       I    between atoms: C_23  and  N_26 
ROOT
HETATM    1  C   UNK N   1      34.423  16.480   9.531  0.00  0.00     0.032 A 
HETATM    2  C   UNK N   1      33.497  15.438   9.584  0.00  0.00     0.031 A 
HETATM    3  C   UNK N   1      32.269  15.557   8.934  0.00  0.00     0.027 A 
HETATM    4  C   UNK N   1      31.946  16.719   8.216  0.00  0.00     0.080 A 
HETATM    5  C   UNK N   1      32.931  17.744   8.105  0.00  0.00     0.027 A 
HETATM    6  C   UNK N   1      34.149  17.618   8.760  0.00  0.00     0.031 A 
ENDROOT
BRANCH   1   7
HETATM    7  N   UNK N   1      35.623  16.381  10.268  0.00  0.00    -0.365 N 
HETATM    8  H   UNK N   1      36.448  16.786   9.917  0.00  0.00     0.165 HD
BRANCH   7   9
HETATM    9  C   UNK N   1      35.645  15.702  11.506  0.00  0.00     0.106 C 
HETATM   10  C   UNK N   1      36.226  14.510  11.584  0.00  0.00     0.060 A 
HETATM   11  C   UNK N   1      36.876  13.753  10.505  0.00  0.00     0.258 A 
HETATM   12  C   UNK N   1      36.462  13.721  12.777  0.00  0.00     0.008 A 
HETATM   13  N   UNK N   1      37.447  12.633  10.997  0.00  0.00    -0.322 N 
HETATM   14  O   UNK N   1      36.922  14.072   9.331  0.00  0.00    -0.267 OA
HETATM   15  C   UNK N   1      37.199  12.622  12.386  0.00  0.00     0.046 A 
HETATM   16  H   UNK N   1      37.941  11.953  10.484  0.00  0.00     0.169 HD
HETATM   17  C   UNK N   1      37.639  11.677  13.303  0.00  0.00     0.030 A 
HETATM   18  C   UNK N   1      37.307  11.869  14.656  0.00  0.00     0.002 A 
HETATM   19  C   UNK N   1      36.551  12.994  15.058  0.00  0.00     0.001 A 
HETATM   20  C   UNK N   1      36.123  13.940  14.109  0.00  0.00     0.015 A 
ENDBRANCH   7   9
ENDBRANCH   1   7
BRANCH   4  21
HETATM   21  S   UNK N   1      30.228  16.852   7.559  0.00  0.00     0.276 S 
HETATM   22  O   UNK N   1      30.564  17.979   8.557  0.00  0.00    -0.200 OA
HETATM   23  O   UNK N   1      31.000  17.241   6.290  0.00  0.00    -0.200 OA
BRANCH  21  24
HETATM   24  N   UNK N   1      29.181  18.229   7.117  0.00  0.00    -0.113 N 
HETATM   25  C   UNK N   1      28.104  18.808   7.871  0.00  0.00     0.679 C 
HETATM   26  N   UNK N   1      27.473  19.813   7.393  0.00  0.00    -0.234 N 
HETATM   27  N   UNK N   1      27.695  18.259   9.110  0.00  0.00    -0.234 N 
HETATM   28  H   UNK N   1      26.664  20.168   7.826  0.00  0.00     0.174 HD
ATOM     29  HN  UNK N   1      27.817  20.258   6.541  1.00  0.00     0.174 HD
HETATM   30  H   UNK N   1      28.078  17.410   9.426  0.00  0.00     0.174 HD
HETATM   31  H   UNK N   1      27.024  18.730   9.657  0.00  0.00     0.174 HD
HETATM   32  H   UNK N   1      29.366  18.645   6.244  0.00  0.00     0.197 HD
ENDBRANCH  21  24
ENDBRANCH   4  21
TORSDOF 4
ENDMDL
MODEL 4
REMARK VINA RESULT:      -7.6      3.621     10.617
REMARK  4 active torsions:
REMARK  status: ('A' for Active; 'I' for Inactive)
REMARK    1  A    between atoms: C_11  and  N_12 
REMARK    2  A    between atoms: N_12  and  C_13 
REMARK    3  A    between atoms: C_16  and  S_19 
REMARK    4  A    between atoms: S_19  and  N_22 
REMARK       I    between atoms: N_22  and  C_23 
REMARK       I    between atoms: C_23  and  N_26 
ROOT
HETATM    1  C   UNK N   1      31.902  16.166   7.905  0.00  0.00     0.032 A 
HETATM    2  C   UNK N   1      32.725  17.289   7.978  0.00  0.00     0.031 A 
HETATM    3  C   UNK N   1      33.817  17.304   8.846  0.00  0.00     0.027 A 
HETATM    4  C   UNK N   1      34.108  16.193   9.652  0.00  0.00     0.080 A 
HETATM    5  C   UNK N   1      33.305  15.023   9.511  0.00  0.00     0.027 A 
HETATM    6  C   UNK N   1      32.217  15.020   8.648  0.00  0.00     0.031 A 
ENDROOT
BRANCH   1   7
HETATM    7  N   UNK N   1      30.750  16.200   7.090  0.00  0.00    -0.365 N 
HETATM    8  H   UNK N   1      30.530  15.430   6.518  0.00  0.00     0.165 HD
BRANCH   7   9
HETATM    9  C   UNK N   1      29.911  17.337   7.089  0.00  0.00     0.106 C 
HETATM   10  C   UNK N   1      29.356  17.735   5.951  0.00  0.00     0.060 A 
HETATM   11  C   UNK N   1      29.505  17.135   4.618  0.00  0.00     0.258 A 
HETATM   12  C   UNK N   1      28.376  18.789   5.769  0.00  0.00     0.008 A 
HETATM   13  N   UNK N   1      28.698  17.756   3.731  0.00  0.00    -0.322 N 
HETATM   14  O   UNK N   1      30.233  16.203   4.327  0.00  0.00    -0.267 OA
HETATM   15  C   UNK N   1      28.004  18.758   4.441  0.00  0.00     0.046 A 
HETATM   16  H   UNK N   1      28.610  17.548   2.773  0.00  0.00     0.169 HD
HETATM   17  C   UNK N   1      27.035  19.616   3.937  0.00  0.00     0.030 A 
HETATM   18  C   UNK N   1      26.439  20.529   4.825  0.00  0.00     0.002 A 
HETATM   19  C   UNK N   1      26.820  20.562   6.186  0.00  0.00     0.001 A 
HETATM   20  C   UNK N   1      27.800  19.677   6.672  0.00  0.00     0.015 A 
ENDBRANCH   7   9
ENDBRANCH   1   7
BRANCH   4  21
HETATM   21  S   UNK N   1      35.453  16.387  10.899  0.00  0.00     0.276 S 
HETATM   22  O   UNK N   1      34.454  15.276  11.282  0.00  0.00    -0.200 OA
HETATM   23  O   UNK N   1      36.273  15.769   9.757  0.00  0.00    -0.200 OA
BRANCH  21  24
HETATM   24  N   UNK N   1      36.361  15.239  11.921  0.00  0.00    -0.113 N 
HETATM   25  C   UNK N   1      36.659  13.858  11.662  0.00  0.00     0.679 C 
HETATM   26  N   UNK N   1      37.345  13.194  12.513  0.00  0.00    -0.234 N 
HETATM   27  N   UNK N   1      36.166  13.202  10.508  0.00  0.00    -0.234 N 
HETATM   28  H   UNK N   1      37.477  12.222  12.425  0.00  0.00     0.174 HD
ATOM     29  HN  UNK N   1      37.767  13.683  13.304  1.00  0.00     0.174 HD
HETATM   30  H   UNK N   1      35.527  13.658   9.914  0.00  0.00     0.174 HD
HETATM   31  H   UNK N   1      36.465  12.287  10.299  0.00  0.00     0.174 HD
HETATM   32  H   UNK N   1      36.703  15.600  12.771  0.00  0.00     0.197 HD
ENDBRANCH  21  24
ENDBRANCH   4  21
TORSDOF 4
ENDMDL
MODEL 5
REMARK VINA RESULT:      -7.5      2.678      9.253
REMARK  4 active torsions:
REMARK  status: ('A' for Active; 'I' for Inactive)
REMARK    1  A    between atoms: C_11  and  N_12 
REMARK    2  A    between atoms: N_12  and  C_13 
REMARK    3  A    between atoms: C_16  and  S_19 
REMARK    4  A    between atoms: S_19  and  N_22 
REMARK       I    between atoms: N_22  and  C_23 
REMARK       I    between atoms: C_23  and  N_26 
ROOT
HETATM    1  C   UNK N   1      34.475  16.390   9.840  0.00  0.00     0.032 A 
HETATM    2  C   UNK N   1      35.339  16.622  10.910  0.00  0.00     0.031 A 
HETATM    3  C   UNK N   1      35.812  15.554  11.674  0.00  0.00     0.027 A 
HETATM    4  C   UNK N   1      35.432  14.236  11.378  0.00  0.00     0.080 A 
HETATM    5  C   UNK N   1      34.611  14.007  10.236  0.00  0.00     0.027 A 
HETATM    6  C   UNK N   1      34.141  15.076   9.485  0.00  0.00     0.031 A 
ENDROOT
BRANCH   1   7
HETATM    7  N   UNK N   1      33.934  17.487   9.134  0.00  0.00    -0.365 N 
HETATM    8  H   UNK N   1      34.477  18.295   8.993  0.00  0.00     0.165 HD
BRANCH   7   9
HETATM    9  C   UNK N   1      32.615  17.429   8.631  0.00  0.00     0.106 C 
HETATM   10  C   UNK N   1      32.419  17.442   7.318  0.00  0.00     0.060 A 
HETATM   11  C   UNK N   1      33.432  17.522   6.257  0.00  0.00     0.258 A 
HETATM   12  C   UNK N   1      31.164  17.263   6.613  0.00  0.00     0.008 A 
HETATM   13  N   UNK N   1      32.851  17.397   5.044  0.00  0.00    -0.322 N 
HETATM   14  O   UNK N   1      34.630  17.664   6.417  0.00  0.00    -0.267 OA
HETATM   15  C   UNK N   1      31.468  17.231   5.267  0.00  0.00     0.046 A 
HETATM   16  H   UNK N   1      33.306  17.419   4.172  0.00  0.00     0.169 HD
HETATM   17  C   UNK N   1      30.488  17.024   4.305  0.00  0.00     0.030 A 
HETATM   18  C   UNK N   1      29.163  16.849   4.743  0.00  0.00     0.002 A 
HETATM   19  C   UNK N   1      28.851  16.883   6.121  0.00  0.00     0.001 A 
HETATM   20  C   UNK N   1      29.863  17.089   7.075  0.00  0.00     0.015 A 
ENDBRANCH   7   9
ENDBRANCH   1   7
BRANCH   4  21
HETATM   21  S   UNK N   1      35.957  12.924  12.562  0.00  0.00     0.276 S 
HETATM   22  O   UNK N   1      34.552  13.475  12.881  0.00  0.00    -0.200 OA
HETATM   23  O   UNK N   1      35.738  12.050  11.319  0.00  0.00    -0.200 OA
BRANCH  21  24
HETATM   24  N   UNK N   1      35.094  11.610  13.407  0.00  0.00    -0.113 N 
HETATM   25  C   UNK N   1      34.532  11.618  14.730  0.00  0.00     0.679 C 
HETATM   26  N   UNK N   1      33.928  10.575  15.161  0.00  0.00    -0.234 N 
HETATM   27  N   UNK N   1      34.676  12.738  15.583  0.00  0.00    -0.234 N 
HETATM   28  H   UNK N   1      33.627  10.504  16.095  0.00  0.00     0.174 HD
ATOM     29  HN  UNK N   1      33.755   9.799  14.521  1.00  0.00     0.174 HD
HETATM   30  H   UNK N   1      35.251  13.491  15.319  0.00  0.00     0.174 HD
HETATM   31  H   UNK N   1      34.198  12.762  16.445  0.00  0.00     0.174 HD
HETATM   32  H   UNK N   1      34.988  10.771  12.902  0.00  0.00     0.197 HD
ENDBRANCH  21  24
ENDBRANCH   4  21
TORSDOF 4
ENDMDL
MODEL 6
REMARK VINA RESULT:      -7.5      2.449      3.316
REMARK  4 active torsions:
REMARK  status: ('A' for Active; 'I' for Inactive)
REMARK    1  A    between atoms: C_11  and  N_12 
REMARK    2  A    between atoms: N_12  and  C_13 
REMARK    3  A    between atoms: C_16  and  S_19 
REMARK    4  A    between atoms: S_19  and  N_22 
REMARK       I    between atoms: N_22  and  C_23 
REMARK       I    between atoms: C_23  and  N_26 
ROOT
HETATM    1  C   UNK N   1      34.432  15.078   9.496  0.00  0.00     0.032 A 
HETATM    2  C   UNK N   1      33.121  14.619   9.374  0.00  0.00     0.031 A 
HETATM    3  C   UNK N   1      32.102  15.497   9.003  0.00  0.00     0.027 A 
HETATM    4  C   UNK N   1      32.378  16.848   8.743  0.00  0.00     0.080 A 
HETATM    5  C   UNK N   1      33.733  17.286   8.797  0.00  0.00     0.027 A 
HETATM    6  C   UNK N   1      34.740  16.406   9.172  0.00  0.00     0.031 A 
ENDROOT
BRANCH   1   7
HETATM    7  N   UNK N   1      35.435  14.199   9.960  0.00  0.00    -0.365 N 
HETATM    8  H   UNK N   1      36.374  14.351   9.707  0.00  0.00     0.165 HD
BRANCH   7   9
HETATM    9  C   UNK N   1      35.097  13.103  10.783  0.00  0.00     0.106 C 
HETATM   10  C   UNK N   1      35.310  13.182  12.092  0.00  0.00     0.060 A 
HETATM   11  C   UNK N   1      35.886  14.305  12.844  0.00  0.00     0.258 A 
HETATM   12  C   UNK N   1      34.916  12.225  13.108  0.00  0.00     0.008 A 
HETATM   13  N   UNK N   1      35.839  14.054  14.170  0.00  0.00    -0.322 N 
HETATM   14  O   UNK N   1      36.336  15.332  12.369  0.00  0.00    -0.267 OA
HETATM   15  C   UNK N   1      35.238  12.787  14.327  0.00  0.00     0.046 A 
HETATM   16  H   UNK N   1      36.162  14.643  14.890  0.00  0.00     0.169 HD
HETATM   17  C   UNK N   1      34.948  12.145  15.523  0.00  0.00     0.030 A 
HETATM   18  C   UNK N   1      34.314  10.891  15.460  0.00  0.00     0.002 A 
HETATM   19  C   UNK N   1      33.984  10.314  14.212  0.00  0.00     0.001 A 
HETATM   20  C   UNK N   1      34.284  10.989  13.015  0.00  0.00     0.015 A 
ENDBRANCH   7   9
ENDBRANCH   1   7
BRANCH   4  21
HETATM   21  S   UNK N   1      30.936  17.959   8.450  0.00  0.00     0.276 S 
HETATM   22  O   UNK N   1      31.415  17.266   7.159  0.00  0.00    -0.200 OA
HETATM   23  O   UNK N   1      30.223  16.843   9.226  0.00  0.00    -0.200 OA
BRANCH  21  24
HETATM   24  N   UNK N   1      29.509  17.871   7.382  0.00  0.00    -0.113 N 
HETATM   25  C   UNK N   1      28.138  18.164   7.699  0.00  0.00     0.679 C 
HETATM   26  N   UNK N   1      27.247  18.059   6.786  0.00  0.00    -0.234 N 
HETATM   27  N   UNK N   1      27.746  18.520   9.011  0.00  0.00    -0.234 N 
HETATM   28  H   UNK N   1      26.288  18.145   6.990  0.00  0.00     0.174 HD
ATOM     29  HN  UNK N   1      27.538  17.881   5.824  1.00  0.00     0.174 HD
HETATM   30  H   UNK N   1      28.393  18.473   9.751  0.00  0.00     0.174 HD
HETATM   31  H   UNK N   1      26.822  18.814   9.184  0.00  0.00     0.174 HD
HETATM   32  H   UNK N   1      29.683  17.584   6.456  0.00  0.00     0.197 HD
ENDBRANCH  21  24
ENDBRANCH   4  21
TORSDOF 4
ENDMDL
MODEL 7
REMARK VINA RESULT:      -7.4      4.175      6.734
REMARK  4 active torsions:
REMARK  status: ('A' for Active; 'I' for Inactive)
REMARK    1  A    between atoms: C_11  and  N_12 
REMARK    2  A    between atoms: N_12  and  C_13 
REMARK    3  A    between atoms: C_16  and  S_19 
REMARK    4  A    between atoms: S_19  and  N_22 
REMARK       I    between atoms: N_22  and  C_23 
REMARK       I    between atoms: C_23  and  N_26 
ROOT
HETATM    1  C   UNK N   1      35.873  11.134  17.312  0.00  0.00     0.032 A 
HETATM    2  C   UNK N   1      36.668  10.624  16.287  0.00  0.00     0.031 A 
HETATM    3  C   UNK N   1      36.757  11.294  15.067  0.00  0.00     0.027 A 
HETATM    4  C   UNK N   1      36.054  12.490  14.852  0.00  0.00     0.080 A 
HETATM    5  C   UNK N   1      35.307  13.041  15.934  0.00  0.00     0.027 A 
HETATM    6  C   UNK N   1      35.221  12.364  17.143  0.00  0.00     0.031 A 
ENDROOT
BRANCH   1   7
HETATM    7  N   UNK N   1      35.722  10.398  18.507  0.00  0.00    -0.365 N 
HETATM    8  H   UNK N   1      36.515  10.161  19.040  0.00  0.00     0.165 HD
BRANCH   7   9
HETATM    9  C   UNK N   1      34.439   9.998  18.940  0.00  0.00     0.106 C 
HETATM   10  C   UNK N   1      34.138   8.705  18.976  0.00  0.00     0.060 A 
HETATM   11  C   UNK N   1      34.994   7.571  18.599  0.00  0.00     0.258 A 
HETATM   12  C   UNK N   1      32.934   8.094  19.505  0.00  0.00     0.008 A 
HETATM   13  N   UNK N   1      34.374   6.404  18.878  0.00  0.00    -0.322 N 
HETATM   14  O   UNK N   1      36.110   7.642  18.117  0.00  0.00    -0.267 OA
HETATM   15  C   UNK N   1      33.121   6.728  19.438  0.00  0.00     0.046 A 
HETATM   16  H   UNK N   1      34.730   5.500  18.720  0.00  0.00     0.169 HD
HETATM   17  C   UNK N   1      32.166   5.840  19.914  0.00  0.00     0.030 A 
HETATM   18  C   UNK N   1      30.988   6.373  20.467  0.00  0.00     0.002 A 
HETATM   19  C   UNK N   1      30.795   7.773  20.535  0.00  0.00     0.001 A 
HETATM   20  C   UNK N   1      31.782   8.651  20.051  0.00  0.00     0.015 A 
ENDBRANCH   7   9
ENDBRANCH   1   7
BRANCH   4  21
HETATM   21  S   UNK N   1      36.086  13.191  13.147  0.00  0.00     0.276 S 
HETATM   22  O   UNK N   1      34.651  12.975  13.666  0.00  0.00    -0.200 OA
HETATM   23  O   UNK N   1      36.577  14.423  13.920  0.00  0.00    -0.200 OA
BRANCH  21  24
HETATM   24  N   UNK N   1      35.068  14.374  12.281  0.00  0.00    -0.113 N 
HETATM   25  C   UNK N   1      35.477  15.394  11.356  0.00  0.00     0.679 C 
HETATM   26  N   UNK N   1      34.591  16.144  10.817  0.00  0.00    -0.234 N 
HETATM   27  N   UNK N   1      36.844  15.620  11.067  0.00  0.00    -0.234 N 
HETATM   28  H   UNK N   1      34.839  16.920  10.265  0.00  0.00     0.174 HD
ATOM     29  HN  UNK N   1      33.604  15.931  10.962  1.00  0.00     0.174 HD
HETATM   30  H   UNK N   1      37.542  15.146  11.573  0.00  0.00     0.174 HD
HETATM   31  H   UNK N   1      37.097  16.254  10.356  0.00  0.00     0.174 HD
HETATM   32  H   UNK N   1      34.101  14.319  12.460  0.00  0.00     0.197 HD
ENDBRANCH  21  24
ENDBRANCH   4  21
TORSDOF 4
ENDMDL
MODEL 8
REMARK VINA RESULT:      -7.3      1.942      2.437
REMARK  4 active torsions:
REMARK  status: ('A' for Active; 'I' for Inactive)
REMARK    1  A    between atoms: C_11  and  N_12 
REMARK    2  A    between atoms: N_12  and  C_13 
REMARK    3  A    between atoms: C_16  and  S_19 
REMARK    4  A    between atoms: S_19  and  N_22 
REMARK       I    between atoms: N_22  and  C_23 
REMARK       I    between atoms: C_23  and  N_26 
ROOT
HETATM    1  C   UNK N   1      35.776  15.631  10.337  0.00  0.00     0.032 A 
HETATM    2  C   UNK N   1      35.239  16.912  10.211  0.00  0.00     0.031 A 
HETATM    3  C   UNK N   1      34.472  17.244   9.093  0.00  0.00     0.027 A 
HETATM    4  C   UNK N   1      34.226  16.299   8.085  0.00  0.00     0.080 A 
HETATM    5  C   UNK N   1      34.716  14.972   8.265  0.00  0.00     0.027 A 
HETATM    6  C   UNK N   1      35.482  14.653   9.378  0.00  0.00     0.031 A 
ENDROOT
BRANCH   1   7
HETATM    7  N   UNK N   1      36.624  15.338  11.428  0.00  0.00    -0.365 N 
HETATM    8  H   UNK N   1      37.590  15.511  11.357  0.00  0.00     0.165 HD
BRANCH   7   9
HETATM    9  C   UNK N   1      36.092  14.795  12.618  0.00  0.00     0.106 C 
HETATM   10  C   UNK N   1      36.499  13.599  13.027  0.00  0.00     0.060 A 
HETATM   11  C   UNK N   1      37.471  12.708  12.377  0.00  0.00     0.258 A 
HETATM   12  C   UNK N   1      36.172  12.935  14.273  0.00  0.00     0.008 A 
HETATM   13  N   UNK N   1      37.707  11.628  13.152  0.00  0.00    -0.322 N 
HETATM   14  O   UNK N   1      38.011  12.897  11.302  0.00  0.00    -0.267 OA
HETATM   15  C   UNK N   1      36.919  11.775  14.312  0.00  0.00     0.046 A 
HETATM   16  H   UNK N   1      38.314  10.881  12.945  0.00  0.00     0.169 HD
HETATM   17  C   UNK N   1      36.877  10.919  15.405  0.00  0.00     0.030 A 
HETATM   18  C   UNK N   1      36.042  11.267  16.482  0.00  0.00     0.002 A 
HETATM   19  C   UNK N   1      35.276  12.454  16.443  0.00  0.00     0.001 A 
HETATM   20  C   UNK N   1      35.341  13.307  15.326  0.00  0.00     0.015 A 
ENDBRANCH   7   9
ENDBRANCH   1   7
BRANCH   4  21
HETATM   21  S   UNK N   1      33.367  16.894   6.566  0.00  0.00     0.276 S 
HETATM   22  O   UNK N   1      34.850  16.557   6.309  0.00  0.00    -0.200 OA
HETATM   23  O   UNK N   1      32.694  15.521   6.698  0.00  0.00    -0.200 OA
BRANCH  21  24
HETATM   24  N   UNK N   1      33.480  16.463   4.837  0.00  0.00    -0.113 N 
HETATM   25  C   UNK N   1      32.719  16.985   3.737  0.00  0.00     0.679 C 
HETATM   26  N   UNK N   1      32.957  16.562   2.553  0.00  0.00    -0.234 N 
HETATM   27  N   UNK N   1      31.678  17.922   3.941  0.00  0.00    -0.234 N 
HETATM   28  H   UNK N   1      32.386  16.814   1.791  0.00  0.00     0.174 HD
ATOM     29  HN  UNK N   1      33.757  15.949   2.394  1.00  0.00     0.174 HD
HETATM   30  H   UNK N   1      31.393  18.155   4.853  0.00  0.00     0.174 HD
HETATM   31  H   UNK N   1      31.237  18.342   3.166  0.00  0.00     0.174 HD
HETATM   32  H   UNK N   1      34.151  15.779   4.609  0.00  0.00     0.197 HD
ENDBRANCH  21  24
ENDBRANCH   4  21
TORSDOF 4
ENDMDL
MODEL 9
REMARK VINA RESULT:      -7.2      2.852      9.571
REMARK  4 active torsions:
REMARK  status: ('A' for Active; 'I' for Inactive)
REMARK    1  A    between atoms: C_11  and  N_12 
REMARK    2  A    between atoms: N_12  and  C_13 
REMARK    3  A    between atoms: C_16  and  S_19 
REMARK    4  A    between atoms: S_19  and  N_22 
REMARK       I    between atoms: N_22  and  C_23 
REMARK       I    between atoms: C_23  and  N_26 
ROOT
HETATM    1  C   UNK N   1      34.909  16.597   9.303  0.00  0.00     0.032 A 
HETATM    2  C   UNK N   1      35.303  16.935  10.597  0.00  0.00     0.031 A 
HETATM    3  C   UNK N   1      35.759  15.949  11.472  0.00  0.00     0.027 A 
HETATM    4  C   UNK N   1      35.831  14.607  11.066  0.00  0.00     0.080 A 
HETATM    5  C   UNK N   1      35.498  14.287   9.718  0.00  0.00     0.027 A 
HETATM    6  C   UNK N   1      35.041  15.275   8.856  0.00  0.00     0.031 A 
ENDROOT
BRANCH   1   7
HETATM    7  N   UNK N   1      34.366  17.591   8.460  0.00  0.00    -0.365 N 
HETATM    8  H   UNK N   1      34.160  18.482   8.823  0.00  0.00     0.165 HD
BRANCH   7   9
HETATM    9  C   UNK N   1      34.114  17.311   7.099  0.00  0.00     0.106 C 
HETATM   10  C   UNK N   1      32.860  17.180   6.682  0.00  0.00     0.060 A 
HETATM   11  C   UNK N   1      31.631  17.281   7.482  0.00  0.00     0.258 A 
HETATM   12  C   UNK N   1      32.396  17.022   5.318  0.00  0.00     0.008 A 
HETATM   13  N   UNK N   1      30.545  17.199   6.683  0.00  0.00    -0.322 N 
HETATM   14  O   UNK N   1      31.569  17.431   8.688  0.00  0.00    -0.267 OA
HETATM   15  C   UNK N   1      31.017  17.049   5.362  0.00  0.00     0.046 A 
HETATM   16  H   UNK N   1      29.604  17.236   6.969  0.00  0.00     0.169 HD
HETATM   17  C   UNK N   1      30.250  16.968   4.208  0.00  0.00     0.030 A 
HETATM   18  C   UNK N   1      30.923  16.853   2.978  0.00  0.00     0.002 A 
HETATM   19  C   UNK N   1      32.335  16.823   2.931  0.00  0.00     0.001 A 
HETATM   20  C   UNK N   1      33.089  16.913   4.115  0.00  0.00     0.015 A 
ENDBRANCH   7   9
ENDBRANCH   1   7
BRANCH   4  21
HETATM   21  S   UNK N   1      36.261  13.360  12.355  0.00  0.00     0.276 S 
HETATM   22  O   UNK N   1      35.873  14.723  12.963  0.00  0.00    -0.200 OA
HETATM   23  O   UNK N   1      34.922  12.770  11.889  0.00  0.00    -0.200 OA
BRANCH  21  24
HETATM   24  N   UNK N   1      35.632  13.009  13.988  0.00  0.00    -0.113 N 
HETATM   25  C   UNK N   1      36.127  13.476  15.254  0.00  0.00     0.679 C 
HETATM   26  N   UNK N   1      35.527  13.128  16.329  0.00  0.00    -0.234 N 
HETATM   27  N   UNK N   1      37.294  14.273  15.339  0.00  0.00    -0.234 N 
HETATM   28  H   UNK N   1      35.897  13.336  17.217  0.00  0.00     0.174 HD
ATOM     29  HN  UNK N   1      34.643  12.621  16.265  1.00  0.00     0.174 HD
HETATM   30  H   UNK N   1      37.842  14.436  14.538  0.00  0.00     0.174 HD
HETATM   31  H   UNK N   1      37.558  14.665  16.204  0.00  0.00     0.174 HD
HETATM   32  H   UNK N   1      34.844  12.420  14.027  0.00  0.00     0.197 HD
ENDBRANCH  21  24
ENDBRANCH   4  21
TORSDOF 4
ENDMDL
