REMARK  4 active torsions:
REMARK  status: ('A' for Active; 'I' for Inactive)
REMARK    1  A    between atoms: C_11  and  N_12 
REMARK    2  A    between atoms: N_12  and  C_13 
REMARK    3  A    between atoms: C_16  and  S_19 
REMARK    4  A    between atoms: S_19  and  N_22 
REMARK       I    between atoms: N_22  and  C_23 
REMARK       I    between atoms: C_23  and  N_26 
ROOT
HETATM    1  C   UNK N   1      -1.292  -0.415   0.648  0.00  0.00     0.032 A 
HETATM    2  C   UNK N   1      -2.672  -0.228   0.581  0.00  0.00     0.031 A 
HETATM    3  C   UNK N   1      -3.195   1.004   0.187  0.00  0.00     0.027 A 
HETATM    4  C   UNK N   1      -2.346   2.069  -0.151  0.00  0.00     0.080 A 
HETATM    5  C   UNK N   1      -0.939   1.841  -0.152  0.00  0.00     0.027 A 
HETATM    6  C   UNK N   1      -0.428   0.613   0.246  0.00  0.00     0.031 A 
ENDROOT
BRANCH   1   7
HETATM    7  N   UNK N   1      -0.779  -1.637   1.135  0.00  0.00    -0.365 N 
HETATM    8  H   UNK N   1      -1.396  -2.349   1.419  0.00  0.00     0.165 HD
BRANCH   7   9
HETATM    9  C   UNK N   1       0.616  -1.841   1.219  0.00  0.00     0.106 C 
HETATM   10  C   UNK N   1       1.186  -2.764   0.453  0.00  0.00     0.060 A 
HETATM   11  C   UNK N   1       0.535  -3.658  -0.515  0.00  0.00     0.258 A 
HETATM   12  C   UNK N   1       2.603  -3.032   0.302  0.00  0.00     0.008 A 
HETATM   13  N   UNK N   1       1.461  -4.381  -1.181  0.00  0.00    -0.322 N 
HETATM   14  O   UNK N   1      -0.662  -3.746  -0.719  0.00  0.00    -0.267 OA
HETATM   15  C   UNK N   1       2.722  -3.989  -0.685  0.00  0.00     0.046 A 
HETATM   16  H   UNK N   1       1.288  -5.053  -1.879  0.00  0.00     0.169 HD
HETATM   17  C   UNK N   1       3.963  -4.442  -1.113  0.00  0.00     0.030 A 
HETATM   18  C   UNK N   1       5.108  -3.897  -0.505  0.00  0.00     0.002 A 
HETATM   19  C   UNK N   1       4.987  -2.917   0.507  0.00  0.00     0.001 A 
HETATM   20  C   UNK N   1       3.718  -2.471   0.918  0.00  0.00     0.015 A 
ENDBRANCH   7   9
ENDBRANCH   1   7
BRANCH   4  21
HETATM   21  S   UNK N   1      -3.135   3.705  -0.470  0.00  0.00     0.276 S 
HETATM   22  O   UNK N   1      -2.442   3.646   0.906  0.00  0.00    -0.200 OA
HETATM   23  O   UNK N   1      -1.971   3.803  -1.466  0.00  0.00    -0.200 OA
BRANCH  21  24
HETATM   24  N   UNK N   1      -2.689   5.387  -0.072  0.00  0.00    -0.113 N 
HETATM   25  C   UNK N   1      -1.375   5.951   0.070  0.00  0.00     0.679 C 
HETATM   26  N   UNK N   1      -1.253   7.195   0.344  0.00  0.00    -0.234 N 
HETATM   27  N   UNK N   1      -0.214   5.149  -0.039  0.00  0.00    -0.234 N 
HETATM   28  H   UNK N   1      -0.378   7.593   0.555  0.00  0.00     0.174 HD
ATOM     29  HN  UNK N   1      -2.083   7.789   0.344  1.00  0.00     0.174 HD
HETATM   30  H   UNK N   1      -0.293   4.171  -0.114  0.00  0.00     0.174 HD
HETATM   31  H   UNK N   1       0.676   5.572  -0.039  0.00  0.00     0.174 HD
HETATM   32  H   UNK N   1      -3.440   6.008   0.068  0.00  0.00     0.197 HD
ENDBRANCH  21  24
ENDBRANCH   4  21
TORSDOF 4
