REMARK  2 active torsions:
REMARK  status: ('A' for Active; 'I' for Inactive)
REMARK    1  A    between atoms: C_3  and  C_5 
REMARK    2  A    between atoms: C_6  and  C_7 
ROOT
HETATM    1  C   UNK N   1      -0.358  -0.588   0.089  0.00  0.00    -0.048 C 
HETATM    2  C   UNK N   1      -0.259  -1.941   0.219  0.00  0.00    -0.077 C 
HETATM    3  C   UNK N   1       1.079  -2.612   0.291  0.00  0.00     0.044 C 
HETATM    4  C   UNK N   1      -1.471  -2.836   0.281  0.00  0.00     0.034 C 
HETATM    5  C   UNK N   1      -2.712  -2.184  -0.306  0.00  0.00     0.005 C 
HETATM    6  C   UNK N   1      -2.893  -0.836   0.354  0.00  0.00     0.014 C 
HETATM    7  C   UNK N   1      -1.730   0.104   0.025  0.00  0.00    -0.020 C 
HETATM    8  C   UNK N   1      -1.941   0.684  -1.364  0.00  0.00     0.020 C 
HETATM    9  C   UNK N   1      -1.817   1.231   1.040  0.00  0.00     0.020 C 
ENDROOT
BRANCH   1  10
HETATM   10  C   UNK N   1       0.903   0.209  -0.005  0.00  0.00     0.009 C 
HETATM   11  C   UNK N   1       0.936   1.541  -0.109  0.00  0.00     0.007 C 
BRANCH  11  12
HETATM   12  C   UNK N   1       2.181   2.353  -0.155  0.00  0.00    -0.066 C 
HETATM   13  C   UNK N   1       3.433   1.858  -0.108  0.00  0.00    -0.024 C 
HETATM   14  C   UNK N   1       3.782   0.407  -0.013  0.00  0.00     0.036 C 
HETATM   15  C   UNK N   1       2.028   3.831  -0.239  0.00  0.00     0.048 C 
ENDBRANCH  11  12
ENDBRANCH   1  10
TORSDOF 2
