MODEL 1
REMARK VINA RESULT:      -5.8      0.000      0.000
REMARK  2 active torsions:
REMARK  status: ('A' for Active; 'I' for Inactive)
REMARK    1  A    between atoms: C_3  and  C_5 
REMARK    2  A    between atoms: C_6  and  C_7 
ROOT
HETATM    1  C   UNK N   1      35.342  11.115  17.874  0.00  0.00    -0.048 C 
HETATM    2  C   UNK N   1      35.240  12.363  18.410  0.00  0.00    -0.077 C 
HETATM    3  C   UNK N   1      34.940  12.554  19.866  0.00  0.00     0.044 C 
HETATM    4  C   UNK N   1      35.403  13.613  17.582  0.00  0.00     0.034 C 
HETATM    5  C   UNK N   1      35.182  13.366  16.098  0.00  0.00     0.005 C 
HETATM    6  C   UNK N   1      36.065  12.213  15.676  0.00  0.00     0.014 C 
HETATM    7  C   UNK N   1      35.660  10.916  16.382  0.00  0.00    -0.020 C 
HETATM    8  C   UNK N   1      34.447  10.329  15.679  0.00  0.00     0.020 C 
HETATM    9  C   UNK N   1      36.833   9.969  16.199  0.00  0.00     0.020 C 
ENDROOT
BRANCH   1  10
HETATM   10  C   UNK N   1      35.123   9.939  18.770  0.00  0.00     0.009 C 
HETATM   11  C   UNK N   1      33.964   9.279  18.863  0.00  0.00     0.007 C 
BRANCH  11  12
HETATM   12  C   UNK N   1      33.743   8.079  19.712  0.00  0.00    -0.066 C 
HETATM   13  C   UNK N   1      32.564   7.718  20.255  0.00  0.00    -0.024 C 
HETATM   14  C   UNK N   1      31.276   8.459  20.086  0.00  0.00     0.036 C 
HETATM   15  C   UNK N   1      34.924   7.220  20.000  0.00  0.00     0.048 C 
ENDBRANCH  11  12
ENDBRANCH   1  10
TORSDOF 2
ENDMDL
MODEL 2
REMARK VINA RESULT:      -5.8      1.970      5.659
REMARK  2 active torsions:
REMARK  status: ('A' for Active; 'I' for Inactive)
REMARK    1  A    between atoms: C_3  and  C_5 
REMARK    2  A    between atoms: C_6  and  C_7 
ROOT
HETATM    1  C   UNK N   1      35.401  12.014  17.251  0.00  0.00    -0.048 C 
HETATM    2  C   UNK N   1      35.320  12.890  18.293  0.00  0.00    -0.077 C 
HETATM    3  C   UNK N   1      35.269  14.368  18.053  0.00  0.00     0.044 C 
HETATM    4  C   UNK N   1      35.294  12.434  19.730  0.00  0.00     0.034 C 
HETATM    5  C   UNK N   1      35.860  11.035  19.911  0.00  0.00     0.005 C 
HETATM    6  C   UNK N   1      35.152  10.111  18.947  0.00  0.00     0.014 C 
HETATM    7  C   UNK N   1      35.443  10.496  17.494  0.00  0.00    -0.020 C 
HETATM    8  C   UNK N   1      36.811   9.958  17.105  0.00  0.00     0.020 C 
HETATM    9  C   UNK N   1      34.388   9.784  16.664  0.00  0.00     0.020 C 
ENDROOT
BRANCH   1  10
HETATM   10  C   UNK N   1      35.463  12.566  15.864  0.00  0.00     0.009 C 
HETATM   11  C   UNK N   1      36.587  12.652  15.146  0.00  0.00     0.007 C 
BRANCH  11  12
HETATM   12  C   UNK N   1      36.658  13.153  13.748  0.00  0.00    -0.066 C 
HETATM   13  C   UNK N   1      37.061  12.432  12.684  0.00  0.00    -0.024 C 
HETATM   14  C   UNK N   1      37.494  11.001  12.727  0.00  0.00     0.036 C 
HETATM   15  C   UNK N   1      36.273  14.571  13.512  0.00  0.00     0.048 C 
ENDBRANCH  11  12
ENDBRANCH   1  10
TORSDOF 2
ENDMDL
MODEL 3
REMARK VINA RESULT:      -5.7     12.757     15.701
REMARK  2 active torsions:
REMARK  status: ('A' for Active; 'I' for Inactive)
REMARK    1  A    between atoms: C_3  and  C_5 
REMARK    2  A    between atoms: C_6  and  C_7 
ROOT
HETATM    1  C   UNK N   1      29.253  17.644   7.115  0.00  0.00    -0.048 C 
HETATM    2  C   UNK N   1      29.918  17.728   8.301  0.00  0.00    -0.077 C 
HETATM    3  C   UNK N   1      29.431  18.629   9.395  0.00  0.00     0.044 C 
HETATM    4  C   UNK N   1      31.177  16.946   8.576  0.00  0.00     0.034 C 
HETATM    5  C   UNK N   1      31.876  16.491   7.305  0.00  0.00     0.005 C 
HETATM    6  C   UNK N   1      30.864  15.770   6.444  0.00  0.00     0.014 C 
HETATM    7  C   UNK N   1      29.745  16.713   5.994  0.00  0.00    -0.020 C 
HETATM    8  C   UNK N   1      30.242  17.546   4.824  0.00  0.00     0.020 C 
HETATM    9  C   UNK N   1      28.624  15.811   5.506  0.00  0.00     0.020 C 
ENDROOT
BRANCH   1  10
HETATM   10  C   UNK N   1      28.036  18.491   6.923  0.00  0.00     0.009 C 
HETATM   11  C   UNK N   1      28.049  19.689   6.329  0.00  0.00     0.007 C 
BRANCH  11  12
HETATM   12  C   UNK N   1      26.842  20.523   6.087  0.00  0.00    -0.066 C 
HETATM   13  C   UNK N   1      26.181  20.611   4.917  0.00  0.00    -0.024 C 
HETATM   14  C   UNK N   1      26.543  19.874   3.667  0.00  0.00     0.036 C 
HETATM   15  C   UNK N   1      26.340  21.341   7.224  0.00  0.00     0.048 C 
ENDBRANCH  11  12
ENDBRANCH   1  10
TORSDOF 2
ENDMDL
MODEL 4
REMARK VINA RESULT:      -5.6     24.832     27.953
REMARK  2 active torsions:
REMARK  status: ('A' for Active; 'I' for Inactive)
REMARK    1  A    between atoms: C_3  and  C_5 
REMARK    2  A    between atoms: C_6  and  C_7 
ROOT
HETATM    1  C   UNK N   1      28.518  24.095  -4.498  0.00  0.00    -0.048 C 
HETATM    2  C   UNK N   1      28.186  23.405  -5.625  0.00  0.00    -0.077 C 
HETATM    3  C   UNK N   1      26.930  23.720  -6.380  0.00  0.00     0.044 C 
HETATM    4  C   UNK N   1      29.040  22.287  -6.167  0.00  0.00     0.034 C 
HETATM    5  C   UNK N   1      29.965  21.694  -5.117  0.00  0.00     0.005 C 
HETATM    6  C   UNK N   1      30.741  22.824  -4.480  0.00  0.00     0.014 C 
HETATM    7  C   UNK N   1      29.811  23.781  -3.728  0.00  0.00    -0.020 C 
HETATM    8  C   UNK N   1      29.463  23.174  -2.379  0.00  0.00     0.020 C 
HETATM    9  C   UNK N   1      30.626  25.043  -3.497  0.00  0.00     0.020 C 
ENDROOT
BRANCH   1  10
HETATM   10  C   UNK N   1      27.584  25.160  -4.018  0.00  0.00     0.009 C 
HETATM   11  C   UNK N   1      27.579  26.412  -4.485  0.00  0.00     0.007 C 
BRANCH  11  12
HETATM   12  C   UNK N   1      26.626  27.469  -4.054  0.00  0.00    -0.066 C 
HETATM   13  C   UNK N   1      25.418  27.696  -4.604  0.00  0.00    -0.024 C 
HETATM   14  C   UNK N   1      24.825  26.916  -5.734  0.00  0.00     0.036 C 
HETATM   15  C   UNK N   1      27.054  28.358  -2.940  0.00  0.00     0.048 C 
ENDBRANCH  11  12
ENDBRANCH   1  10
TORSDOF 2
ENDMDL
MODEL 5
REMARK VINA RESULT:      -5.6     12.579     15.078
REMARK  2 active torsions:
REMARK  status: ('A' for Active; 'I' for Inactive)
REMARK    1  A    between atoms: C_3  and  C_5 
REMARK    2  A    between atoms: C_6  and  C_7 
ROOT
HETATM    1  C   UNK N   1      31.531  17.081   6.445  0.00  0.00    -0.048 C 
HETATM    2  C   UNK N   1      31.587  17.565   7.718  0.00  0.00    -0.077 C 
HETATM    3  C   UNK N   1      30.336  17.935   8.457  0.00  0.00     0.044 C 
HETATM    4  C   UNK N   1      32.891  17.772   8.446  0.00  0.00     0.034 C 
HETATM    5  C   UNK N   1      34.078  17.881   7.503  0.00  0.00     0.005 C 
HETATM    6  C   UNK N   1      34.058  16.684   6.580  0.00  0.00     0.014 C 
HETATM    7  C   UNK N   1      32.812  16.691   5.689  0.00  0.00    -0.020 C 
HETATM    8  C   UNK N   1      33.035  17.658   4.537  0.00  0.00     0.020 C 
HETATM    9  C   UNK N   1      32.704  15.284   5.128  0.00  0.00     0.020 C 
ENDROOT
BRANCH   1  10
HETATM   10  C   UNK N   1      30.192  16.951   5.794  0.00  0.00     0.009 C 
HETATM   11  C   UNK N   1      29.729  17.796   4.869  0.00  0.00     0.007 C 
BRANCH  11  12
HETATM   12  C   UNK N   1      28.420  17.655   4.177  0.00  0.00    -0.066 C 
HETATM   13  C   UNK N   1      27.490  18.623   4.069  0.00  0.00    -0.024 C 
HETATM   14  C   UNK N   1      27.621  20.008   4.619  0.00  0.00     0.036 C 
HETATM   15  C   UNK N   1      28.108  16.331   3.573  0.00  0.00     0.048 C 
ENDBRANCH  11  12
ENDBRANCH   1  10
TORSDOF 2
ENDMDL
MODEL 6
REMARK VINA RESULT:      -5.5      1.699      4.543
REMARK  2 active torsions:
REMARK  status: ('A' for Active; 'I' for Inactive)
REMARK    1  A    between atoms: C_3  and  C_5 
REMARK    2  A    between atoms: C_6  and  C_7 
ROOT
HETATM    1  C   UNK N   1      35.569  11.051  17.349  0.00  0.00    -0.048 C 
HETATM    2  C   UNK N   1      35.401  12.400  17.259  0.00  0.00    -0.077 C 
HETATM    3  C   UNK N   1      35.546  13.108  15.946  0.00  0.00     0.044 C 
HETATM    4  C   UNK N   1      35.079  13.255  18.458  0.00  0.00     0.034 C 
HETATM    5  C   UNK N   1      35.456  12.589  19.771  0.00  0.00     0.005 C 
HETATM    6  C   UNK N   1      34.833  11.212  19.797  0.00  0.00     0.014 C 
HETATM    7  C   UNK N   1      35.410  10.321  18.693  0.00  0.00    -0.020 C 
HETATM    8  C   UNK N   1      36.760   9.788  19.144  0.00  0.00     0.020 C 
HETATM    9  C   UNK N   1      34.446   9.153  18.566  0.00  0.00     0.020 C 
ENDROOT
BRANCH   1  10
HETATM   10  C   UNK N   1      35.927  10.297  16.109  0.00  0.00     0.009 C 
HETATM   11  C   UNK N   1      35.038   9.652  15.347  0.00  0.00     0.007 C 
BRANCH  11  12
HETATM   12  C   UNK N   1      35.370   8.938  14.086  0.00  0.00    -0.066 C 
HETATM   13  C   UNK N   1      34.878   9.242  12.869  0.00  0.00    -0.024 C 
HETATM   14  C   UNK N   1      33.924  10.357  12.580  0.00  0.00     0.036 C 
HETATM   15  C   UNK N   1      36.304   7.783  14.181  0.00  0.00     0.048 C 
ENDBRANCH  11  12
ENDBRANCH   1  10
TORSDOF 2
ENDMDL
MODEL 7
REMARK VINA RESULT:      -5.5     11.848     14.828
REMARK  2 active torsions:
REMARK  status: ('A' for Active; 'I' for Inactive)
REMARK    1  A    between atoms: C_3  and  C_5 
REMARK    2  A    between atoms: C_6  and  C_7 
ROOT
HETATM    1  C   UNK N   1      31.337  17.159   6.595  0.00  0.00    -0.048 C 
HETATM    2  C   UNK N   1      32.228  17.295   5.572  0.00  0.00    -0.077 C 
HETATM    3  C   UNK N   1      31.790  17.154   4.146  0.00  0.00     0.044 C 
HETATM    4  C   UNK N   1      33.690  17.574   5.808  0.00  0.00     0.034 C 
HETATM    5  C   UNK N   1      34.142  17.191   7.208  0.00  0.00     0.005 C 
HETATM    6  C   UNK N   1      33.209  17.848   8.200  0.00  0.00     0.014 C 
HETATM    7  C   UNK N   1      31.782  17.313   8.059  0.00  0.00    -0.020 C 
HETATM    8  C   UNK N   1      31.686  15.969   8.762  0.00  0.00     0.020 C 
HETATM    9  C   UNK N   1      30.899  18.309   8.792  0.00  0.00     0.020 C 
ENDROOT
BRANCH   1  10
HETATM   10  C   UNK N   1      29.915  16.842   6.259  0.00  0.00     0.009 C 
HETATM   11  C   UNK N   1      28.971  17.768   6.066  0.00  0.00     0.007 C 
BRANCH  11  12
HETATM   12  C   UNK N   1      27.565  17.473   5.684  0.00  0.00    -0.066 C 
HETATM   13  C   UNK N   1      26.836  18.178   4.798  0.00  0.00    -0.024 C 
HETATM   14  C   UNK N   1      27.322  19.372   4.040  0.00  0.00     0.036 C 
HETATM   15  C   UNK N   1      26.906  16.317   6.352  0.00  0.00     0.048 C 
ENDBRANCH  11  12
ENDBRANCH   1  10
TORSDOF 2
ENDMDL
MODEL 8
REMARK VINA RESULT:      -5.5     25.053     28.061
REMARK  2 active torsions:
REMARK  status: ('A' for Active; 'I' for Inactive)
REMARK    1  A    between atoms: C_3  and  C_5 
REMARK    2  A    between atoms: C_6  and  C_7 
ROOT
HETATM    1  C   UNK N   1      26.991  24.925  -5.038  0.00  0.00    -0.048 C 
HETATM    2  C   UNK N   1      26.405  24.465  -6.179  0.00  0.00    -0.077 C 
HETATM    3  C   UNK N   1      26.458  23.011  -6.539  0.00  0.00     0.044 C 
HETATM    4  C   UNK N   1      25.692  25.377  -7.144  0.00  0.00     0.034 C 
HETATM    5  C   UNK N   1      26.117  26.829  -7.001  0.00  0.00     0.005 C 
HETATM    6  C   UNK N   1      25.976  27.220  -5.547  0.00  0.00     0.014 C 
HETATM    7  C   UNK N   1      26.930  26.415  -4.661  0.00  0.00    -0.020 C 
HETATM    8  C   UNK N   1      28.321  27.020  -4.755  0.00  0.00     0.020 C 
HETATM    9  C   UNK N   1      26.417  26.595  -3.242  0.00  0.00     0.020 C 
ENDROOT
BRANCH   1  10
HETATM   10  C   UNK N   1      27.710  23.947  -4.166  0.00  0.00     0.009 C 
HETATM   11  C   UNK N   1      29.003  23.636  -4.304  0.00  0.00     0.007 C 
BRANCH  11  12
HETATM   12  C   UNK N   1      29.745  22.702  -3.416  0.00  0.00    -0.066 C 
HETATM   13  C   UNK N   1      30.345  21.564  -3.814  0.00  0.00    -0.024 C 
HETATM   14  C   UNK N   1      30.375  21.053  -5.219  0.00  0.00     0.036 C 
HETATM   15  C   UNK N   1      29.811  23.045  -1.969  0.00  0.00     0.048 C 
ENDBRANCH  11  12
ENDBRANCH   1  10
TORSDOF 2
ENDMDL
MODEL 9
REMARK VINA RESULT:      -5.5     28.695     31.490
REMARK  2 active torsions:
REMARK  status: ('A' for Active; 'I' for Inactive)
REMARK    1  A    between atoms: C_3  and  C_5 
REMARK    2  A    between atoms: C_6  and  C_7 
ROOT
HETATM    1  C   UNK N   1      26.851  27.548  -6.271  0.00  0.00    -0.048 C 
HETATM    2  C   UNK N   1      27.674  28.624  -6.419  0.00  0.00    -0.077 C 
HETATM    3  C   UNK N   1      28.571  28.749  -7.613  0.00  0.00     0.044 C 
HETATM    4  C   UNK N   1      27.746  29.732  -5.398  0.00  0.00     0.034 C 
HETATM    5  C   UNK N   1      27.239  29.303  -4.031  0.00  0.00     0.005 C 
HETATM    6  C   UNK N   1      25.865  28.698  -4.206  0.00  0.00     0.014 C 
HETATM    7  C   UNK N   1      25.922  27.423  -5.051  0.00  0.00    -0.020 C 
HETATM    8  C   UNK N   1      26.388  26.271  -4.176  0.00  0.00     0.020 C 
HETATM    9  C   UNK N   1      24.491  27.156  -5.484  0.00  0.00     0.020 C 
ENDROOT
BRANCH   1  10
HETATM   10  C   UNK N   1      26.883  26.482  -7.318  0.00  0.00     0.009 C 
HETATM   11  C   UNK N   1      25.954  26.345  -8.269  0.00  0.00     0.007 C 
BRANCH  11  12
HETATM   12  C   UNK N   1      25.995  25.321  -9.346  0.00  0.00    -0.066 C 
HETATM   13  C   UNK N   1      26.534  25.500 -10.568  0.00  0.00    -0.024 C 
HETATM   14  C   UNK N   1      27.192  26.756 -11.042  0.00  0.00     0.036 C 
HETATM   15  C   UNK N   1      25.372  24.000  -9.056  0.00  0.00     0.048 C 
ENDBRANCH  11  12
ENDBRANCH   1  10
TORSDOF 2
ENDMDL
