REMARK  2 active torsions:
REMARK  status: ('A' for Active; 'I' for Inactive)
REMARK    1  A    between atoms: C_9  and  N_2 
REMARK    2  A    between atoms: C_13  and  C_4 
ROOT
HETATM    1  C   UNK N   1       0.410   2.009  -0.306  0.00  0.00     0.042 C 
HETATM    2  C   UNK N   1      -1.125   0.599  -1.548  0.00  0.00     0.012 C 
HETATM    3  C   UNK N   1       1.308  -1.543  -0.039  0.00  0.00     0.055 A 
HETATM    4  C   UNK N   1       2.718  -1.540  -0.058  0.00  0.00     0.017 A 
HETATM    5  C   UNK N   1       1.370   0.868  -0.247  0.00  0.00    -0.044 A 
HETATM    6  C   UNK N   1      -0.294   1.898  -1.672  0.00  0.00     0.012 C 
HETATM    7  C   UNK N   1      -0.803   0.101  -0.126  0.00  0.00     0.043 C 
HETATM    8  C   UNK N   1      -0.668   1.438   0.628  0.00  0.00     0.091 C 
HETATM    9  C   UNK N   1       0.651  -0.295  -0.141  0.00  0.00    -0.030 A 
HETATM   10  C   UNK N   1       3.439  -0.335  -0.145  0.00  0.00     0.001 A 
HETATM   11  C   UNK N   1       2.761   0.888  -0.230  0.00  0.00     0.008 A 
ENDROOT
BRANCH   3  12
HETATM   12  C   UNK N   1       0.603  -2.874   0.069  0.00  0.00     0.418 C 
HETATM   13  F   UNK N   1       0.904  -3.632  -1.048  0.00  0.00    -0.166 F 
HETATM   14  F   UNK N   1      -0.768  -2.760   0.154  0.00  0.00    -0.166 F 
HETATM   15  F   UNK N   1       1.052  -3.541   1.194  0.00  0.00    -0.166 F 
ENDBRANCH   3  12
BRANCH   8  16
HETATM   16  N   UNK N   1      -1.899   2.225   0.628  0.00  0.00    -0.425 N 
HETATM   17  H   UNK N   1      -1.853   3.244   0.628  0.00  0.00     0.150 HD
HETATM   18  H   UNK N   1      -2.804   1.755   0.628  0.00  0.00     0.150 HD
ENDBRANCH   8  16
TORSDOF 2
