MODEL 1
REMARK VINA RESULT:      -6.0      0.000      0.000
REMARK  2 active torsions:
REMARK  status: ('A' for Active; 'I' for Inactive)
REMARK    1  A    between atoms: C_9  and  N_2 
REMARK    2  A    between atoms: C_13  and  C_4 
ROOT
HETATM    1  C   UNK N   1      32.748  16.530   6.398  0.00  0.00     0.042 C 
HETATM    2  C   UNK N   1      33.262  17.973   8.280  0.00  0.00     0.012 C 
HETATM    3  C   UNK N   1      29.702  17.726   8.066  0.00  0.00     0.055 A 
HETATM    4  C   UNK N   1      28.797  17.943   7.006  0.00  0.00     0.017 A 
HETATM    5  C   UNK N   1      31.344  17.034   6.428  0.00  0.00    -0.044 A 
HETATM    6  C   UNK N   1      33.635  17.725   6.799  0.00  0.00     0.012 C 
HETATM    7  C   UNK N   1      32.197  16.897   8.567  0.00  0.00     0.043 C 
HETATM    8  C   UNK N   1      32.722  15.730   7.710  0.00  0.00     0.091 C 
HETATM    9  C   UNK N   1      30.996  17.264   7.734  0.00  0.00    -0.030 A 
HETATM   10  C   UNK N   1      29.164  17.680   5.674  0.00  0.00     0.001 A 
HETATM   11  C   UNK N   1      30.450  17.209   5.377  0.00  0.00     0.008 A 
ENDROOT
BRANCH   3  12
HETATM   12  C   UNK N   1      29.232  18.018   9.471  0.00  0.00     0.418 C 
HETATM   13  F   UNK N   1      29.967  19.074   9.977  0.00  0.00    -0.166 F 
HETATM   14  F   UNK N   1      29.372  16.947  10.327  0.00  0.00    -0.166 F 
HETATM   15  F   UNK N   1      27.897  18.378   9.443  0.00  0.00    -0.166 F 
ENDBRANCH   3  12
BRANCH   8  16
HETATM   16  N   UNK N   1      34.045  15.263   8.121  0.00  0.00    -0.425 N 
HETATM   17  H   UNK N   1      34.130  14.493   8.784  0.00  0.00     0.150 HD
HETATM   18  H   UNK N   1      34.881  15.709   7.745  0.00  0.00     0.150 HD
ENDBRANCH   8  16
TORSDOF 2
ENDMDL
MODEL 2
REMARK VINA RESULT:      -6.0     10.755     12.338
REMARK  2 active torsions:
REMARK  status: ('A' for Active; 'I' for Inactive)
REMARK    1  A    between atoms: C_9  and  N_2 
REMARK    2  A    between atoms: C_13  and  C_4 
ROOT
HETATM    1  C   UNK N   1      35.307  13.313  15.456  0.00  0.00     0.042 C 
HETATM    2  C   UNK N   1      36.760  11.407  15.076  0.00  0.00     0.012 C 
HETATM    3  C   UNK N   1      35.345  11.038  18.339  0.00  0.00     0.055 A 
HETATM    4  C   UNK N   1      35.290  11.899  19.454  0.00  0.00     0.017 A 
HETATM    5  C   UNK N   1      35.311  12.994  16.913  0.00  0.00    -0.044 A 
HETATM    6  C   UNK N   1      36.712  12.948  14.940  0.00  0.00     0.012 C 
HETATM    7  C   UNK N   1      35.379  11.056  15.662  0.00  0.00     0.043 C 
HETATM    8  C   UNK N   1      34.491  12.106  14.968  0.00  0.00     0.091 C 
HETATM    9  C   UNK N   1      35.358  11.630  17.055  0.00  0.00    -0.030 A 
HETATM   10  C   UNK N   1      35.221  13.295  19.288  0.00  0.00     0.001 A 
HETATM   11  C   UNK N   1      35.220  13.853  18.003  0.00  0.00     0.008 A 
ENDROOT
BRANCH   3  12
HETATM   12  C   UNK N   1      35.405   9.551  18.595  0.00  0.00     0.418 C 
HETATM   13  F   UNK N   1      34.301   8.952  18.016  0.00  0.00    -0.166 F 
HETATM   14  F   UNK N   1      35.417   9.227  19.934  0.00  0.00    -0.166 F 
HETATM   15  F   UNK N   1      36.548   9.031  18.015  0.00  0.00    -0.166 F 
ENDBRANCH   3  12
BRANCH   8  16
HETATM   16  N   UNK N   1      34.478  11.977  13.513  0.00  0.00    -0.425 N 
HETATM   17  H   UNK N   1      33.730  12.408  12.969  0.00  0.00     0.150 HD
HETATM   18  H   UNK N   1      35.216  11.454  13.041  0.00  0.00     0.150 HD
ENDBRANCH   8  16
TORSDOF 2
ENDMDL
MODEL 3
REMARK VINA RESULT:      -5.8     11.422     12.959
REMARK  2 active torsions:
REMARK  status: ('A' for Active; 'I' for Inactive)
REMARK    1  A    between atoms: C_9  and  N_2 
REMARK    2  A    between atoms: C_13  and  C_4 
ROOT
HETATM    1  C   UNK N   1      35.646  10.737  20.023  0.00  0.00     0.042 C 
HETATM    2  C   UNK N   1      34.189   9.210  18.826  0.00  0.00     0.012 C 
HETATM    3  C   UNK N   1      34.972  11.900  16.604  0.00  0.00     0.055 A 
HETATM    4  C   UNK N   1      34.869  13.301  16.736  0.00  0.00     0.017 A 
HETATM    5  C   UNK N   1      35.363  11.776  18.990  0.00  0.00    -0.044 A 
HETATM    6  C   UNK N   1      34.340   9.935  20.184  0.00  0.00     0.012 C 
HETATM    7  C   UNK N   1      35.422   9.679  18.029  0.00  0.00     0.043 C 
HETATM    8  C   UNK N   1      36.473   9.780  19.151  0.00  0.00     0.091 C 
HETATM    9  C   UNK N   1      35.221  11.151  17.778  0.00  0.00    -0.030 A 
HETATM   10  C   UNK N   1      35.039  13.926  17.984  0.00  0.00     0.001 A 
HETATM   11  C   UNK N   1      35.300  13.159  19.127  0.00  0.00     0.008 A 
ENDROOT
BRANCH   3  12
HETATM   12  C   UNK N   1      34.790  11.302  15.230  0.00  0.00     0.418 C 
HETATM   13  F   UNK N   1      34.503  12.316  14.334  0.00  0.00    -0.166 F 
HETATM   14  F   UNK N   1      33.771  10.374  15.170  0.00  0.00    -0.166 F 
HETATM   15  F   UNK N   1      35.963  10.681  14.841  0.00  0.00    -0.166 F 
ENDBRANCH   3  12
BRANCH   8  16
HETATM   16  N   UNK N   1      36.742   8.500  19.803  0.00  0.00    -0.425 N 
HETATM   17  H   UNK N   1      36.786   8.446  20.821  0.00  0.00     0.150 HD
HETATM   18  H   UNK N   1      36.886   7.662  19.241  0.00  0.00     0.150 HD
ENDBRANCH   8  16
TORSDOF 2
ENDMDL
MODEL 4
REMARK VINA RESULT:      -5.8     11.043     12.556
REMARK  2 active torsions:
REMARK  status: ('A' for Active; 'I' for Inactive)
REMARK    1  A    between atoms: C_9  and  N_2 
REMARK    2  A    between atoms: C_13  and  C_4 
ROOT
HETATM    1  C   UNK N   1      36.545   9.066  16.818  0.00  0.00     0.042 C 
HETATM    2  C   UNK N   1      34.913  10.070  15.330  0.00  0.00     0.012 C 
HETATM    3  C   UNK N   1      35.457  12.363  18.019  0.00  0.00     0.055 A 
HETATM    4  C   UNK N   1      35.402  12.214  19.420  0.00  0.00     0.017 A 
HETATM    5  C   UNK N   1      36.153  10.049  17.870  0.00  0.00    -0.044 A 
HETATM    6  C   UNK N   1      35.255   8.740  16.043  0.00  0.00     0.012 C 
HETATM    7  C   UNK N   1      36.042  11.018  15.779  0.00  0.00     0.043 C 
HETATM    8  C   UNK N   1      37.232  10.043  15.851  0.00  0.00     0.091 C 
HETATM    9  C   UNK N   1      35.841  11.236  17.257  0.00  0.00    -0.030 A 
HETATM   10  C   UNK N   1      35.746  10.996  20.033  0.00  0.00     0.001 A 
HETATM   11  C   UNK N   1      36.137   9.899  19.253  0.00  0.00     0.008 A 
ENDROOT
BRANCH   3  12
HETATM   12  C   UNK N   1      35.085  13.705  17.433  0.00  0.00     0.418 C 
HETATM   13  F   UNK N   1      36.135  14.160  16.657  0.00  0.00    -0.166 F 
HETATM   14  F   UNK N   1      34.811  14.660  18.388  0.00  0.00    -0.166 F 
HETATM   15  F   UNK N   1      33.968  13.561  16.632  0.00  0.00    -0.166 F 
ENDBRANCH   3  12
BRANCH   8  16
HETATM   16  N   UNK N   1      37.556   9.436  14.562  0.00  0.00    -0.425 N 
HETATM   17  H   UNK N   1      38.388   8.853  14.467  0.00  0.00     0.150 HD
HETATM   18  H   UNK N   1      36.951   9.595  13.757  0.00  0.00     0.150 HD
ENDBRANCH   8  16
TORSDOF 2
ENDMDL
MODEL 5
REMARK VINA RESULT:      -5.7      7.754      9.289
REMARK  2 active torsions:
REMARK  status: ('A' for Active; 'I' for Inactive)
REMARK    1  A    between atoms: C_9  and  N_2 
REMARK    2  A    between atoms: C_13  and  C_4 
ROOT
HETATM    1  C   UNK N   1      35.743  12.338  11.508  0.00  0.00     0.042 C 
HETATM    2  C   UNK N   1      35.658  14.562  12.474  0.00  0.00     0.012 C 
HETATM    3  C   UNK N   1      34.989  12.231  15.102  0.00  0.00     0.055 A 
HETATM    4  C   UNK N   1      34.059  11.178  15.223  0.00  0.00     0.017 A 
HETATM    5  C   UNK N   1      35.044  11.814  12.718  0.00  0.00    -0.044 A 
HETATM    6  C   UNK N   1      35.160  13.743  11.260  0.00  0.00     0.012 C 
HETATM    7  C   UNK N   1      36.467  13.537  13.292  0.00  0.00     0.043 C 
HETATM    8  C   UNK N   1      37.087  12.689  12.165  0.00  0.00     0.091 C 
HETATM    9  C   UNK N   1      35.470  12.532  13.806  0.00  0.00    -0.030 A 
HETATM   10  C   UNK N   1      33.650  10.439  14.098  0.00  0.00     0.001 A 
HETATM   11  C   UNK N   1      34.155  10.750  12.829  0.00  0.00     0.008 A 
ENDROOT
BRANCH   3  12
HETATM   12  C   UNK N   1      35.389  12.972  16.355  0.00  0.00     0.418 C 
HETATM   13  F   UNK N   1      34.280  13.622  16.865  0.00  0.00    -0.166 F 
HETATM   14  F   UNK N   1      36.376  13.910  16.143  0.00  0.00    -0.166 F 
HETATM   15  F   UNK N   1      35.847  12.068  17.296  0.00  0.00    -0.166 F 
ENDBRANCH   3  12
BRANCH   8  16
HETATM   16  N   UNK N   1      37.969  13.454  11.287  0.00  0.00    -0.425 N 
HETATM   17  H   UNK N   1      37.649  13.733  10.360  0.00  0.00     0.150 HD
HETATM   18  H   UNK N   1      38.905  13.709  11.603  0.00  0.00     0.150 HD
ENDBRANCH   8  16
TORSDOF 2
ENDMDL
MODEL 6
REMARK VINA RESULT:      -5.7     16.571     17.861
REMARK  2 active torsions:
REMARK  status: ('A' for Active; 'I' for Inactive)
REMARK    1  A    between atoms: C_9  and  N_2 
REMARK    2  A    between atoms: C_13  and  C_4 
ROOT
HETATM    1  C   UNK N   1      28.577  30.045  -4.584  0.00  0.00     0.042 C 
HETATM    2  C   UNK N   1      26.247  30.200  -3.923  0.00  0.00     0.012 C 
HETATM    3  C   UNK N   1      26.543  27.413  -6.143  0.00  0.00     0.055 A 
HETATM    4  C   UNK N   1      27.089  27.283  -7.437  0.00  0.00     0.017 A 
HETATM    5  C   UNK N   1      28.172  29.150  -5.707  0.00  0.00    -0.044 A 
HETATM    6  C   UNK N   1      27.431  31.062  -4.421  0.00  0.00     0.012 C 
HETATM    7  C   UNK N   1      26.840  28.779  -3.860  0.00  0.00     0.043 C 
HETATM    8  C   UNK N   1      28.285  29.084  -3.421  0.00  0.00     0.091 C 
HETATM    9  C   UNK N   1      27.119  28.379  -5.286  0.00  0.00    -0.030 A 
HETATM   10  C   UNK N   1      28.184  28.067  -7.844  0.00  0.00     0.001 A 
HETATM   11  C   UNK N   1      28.743  29.006  -6.968  0.00  0.00     0.008 A 
ENDROOT
BRANCH   3  12
HETATM   12  C   UNK N   1      25.377  26.528  -5.772  0.00  0.00     0.418 C 
HETATM   13  F   UNK N   1      25.621  25.960  -4.535  0.00  0.00    -0.166 F 
HETATM   14  F   UNK N   1      25.155  25.511  -6.676  0.00  0.00    -0.166 F 
HETATM   15  F   UNK N   1      24.228  27.294  -5.692  0.00  0.00    -0.166 F 
ENDBRANCH   3  12
BRANCH   8  16
HETATM   16  N   UNK N   1      28.364  29.731  -2.113  0.00  0.00    -0.425 N 
HETATM   17  H   UNK N   1      27.547  30.206  -1.728  0.00  0.00     0.150 HD
HETATM   18  H   UNK N   1      29.236  29.706  -1.585  0.00  0.00     0.150 HD
ENDBRANCH   8  16
TORSDOF 2
ENDMDL
MODEL 7
REMARK VINA RESULT:      -5.7      2.135      3.601
REMARK  2 active torsions:
REMARK  status: ('A' for Active; 'I' for Inactive)
REMARK    1  A    between atoms: C_9  and  N_2 
REMARK    2  A    between atoms: C_13  and  C_4 
ROOT
HETATM    1  C   UNK N   1      30.901  16.622   4.779  0.00  0.00     0.042 C 
HETATM    2  C   UNK N   1      28.904  15.609   5.713  0.00  0.00     0.012 C 
HETATM    3  C   UNK N   1      30.193  17.879   8.157  0.00  0.00     0.055 A 
HETATM    4  C   UNK N   1      31.469  18.021   8.741  0.00  0.00     0.017 A 
HETATM    5  C   UNK N   1      31.281  17.077   6.148  0.00  0.00    -0.044 A 
HETATM    6  C   UNK N   1      30.211  15.257   4.963  0.00  0.00     0.012 C 
HETATM    7  C   UNK N   1      28.989  17.138   5.884  0.00  0.00     0.043 C 
HETATM    8  C   UNK N   1      29.687  17.540   4.570  0.00  0.00     0.091 C 
HETATM    9  C   UNK N   1      30.133  17.390   6.831  0.00  0.00    -0.030 A 
HETATM   10  C   UNK N   1      32.636  17.716   8.017  0.00  0.00     0.001 A 
HETATM   11  C   UNK N   1      32.546  17.247   6.700  0.00  0.00     0.008 A 
ENDROOT
BRANCH   3  12
HETATM   12  C   UNK N   1      28.987  18.239   8.991  0.00  0.00     0.418 C 
HETATM   13  F   UNK N   1      28.260  17.090   9.244  0.00  0.00    -0.166 F 
HETATM   14  F   UNK N   1      28.153  19.149   8.380  0.00  0.00    -0.166 F 
HETATM   15  F   UNK N   1      29.405  18.775  10.195  0.00  0.00    -0.166 F 
ENDBRANCH   3  12
BRANCH   8  16
HETATM   16  N   UNK N   1      28.912  17.200   3.380  0.00  0.00    -0.425 N 
HETATM   17  H   UNK N   1      28.820  16.226   3.091  0.00  0.00     0.150 HD
HETATM   18  H   UNK N   1      28.462  17.938   2.837  0.00  0.00     0.150 HD
ENDBRANCH   8  16
TORSDOF 2
ENDMDL
MODEL 8
REMARK VINA RESULT:      -5.7      2.777      3.736
REMARK  2 active torsions:
REMARK  status: ('A' for Active; 'I' for Inactive)
REMARK    1  A    between atoms: C_9  and  N_2 
REMARK    2  A    between atoms: C_13  and  C_4 
ROOT
HETATM    1  C   UNK N   1      30.095  16.924   8.121  0.00  0.00     0.042 C 
HETATM    2  C   UNK N   1      30.339  19.164   9.020  0.00  0.00     0.012 C 
HETATM    3  C   UNK N   1      28.026  19.353   6.299  0.00  0.00     0.055 A 
HETATM    4  C   UNK N   1      28.102  18.927   4.958  0.00  0.00     0.017 A 
HETATM    5  C   UNK N   1      29.481  17.512   6.894  0.00  0.00    -0.044 A 
HETATM    6  C   UNK N   1      31.165  17.933   8.581  0.00  0.00     0.012 C 
HETATM    7  C   UNK N   1      28.883  18.732   8.759  0.00  0.00     0.043 C 
HETATM    8  C   UNK N   1      28.957  17.233   9.106  0.00  0.00     0.091 C 
HETATM    9  C   UNK N   1      28.746  18.609   7.263  0.00  0.00    -0.030 A 
HETATM   10  C   UNK N   1      28.843  17.785   4.601  0.00  0.00     0.001 A 
HETATM   11  C   UNK N   1      29.534  17.058   5.580  0.00  0.00     0.008 A 
ENDROOT
BRANCH   3  12
HETATM   12  C   UNK N   1      27.202  20.580   6.608  0.00  0.00     0.418 C 
HETATM   13  F   UNK N   1      26.136  20.636   5.729  0.00  0.00    -0.166 F 
HETATM   14  F   UNK N   1      27.912  21.757   6.497  0.00  0.00    -0.166 F 
HETATM   15  F   UNK N   1      26.712  20.491   7.898  0.00  0.00    -0.166 F 
ENDBRANCH   3  12
BRANCH   8  16
HETATM   16  N   UNK N   1      29.322  16.982  10.498  0.00  0.00    -0.425 N 
HETATM   17  H   UNK N   1      29.644  17.750  11.087  0.00  0.00     0.150 HD
HETATM   18  H   UNK N   1      29.256  16.039  10.880  0.00  0.00     0.150 HD
ENDBRANCH   8  16
TORSDOF 2
ENDMDL
MODEL 9
REMARK VINA RESULT:      -5.6     16.889     18.480
REMARK  2 active torsions:
REMARK  status: ('A' for Active; 'I' for Inactive)
REMARK    1  A    between atoms: C_9  and  N_2 
REMARK    2  A    between atoms: C_13  and  C_4 
ROOT
HETATM    1  C   UNK N   1      25.665  27.197  -4.442  0.00  0.00     0.042 C 
HETATM    2  C   UNK N   1      25.467  26.761  -6.820  0.00  0.00     0.012 C 
HETATM    3  C   UNK N   1      28.091  29.151  -6.389  0.00  0.00     0.055 A 
HETATM    4  C   UNK N   1      28.146  30.391  -5.718  0.00  0.00     0.017 A 
HETATM    5  C   UNK N   1      26.457  28.421  -4.758  0.00  0.00    -0.044 A 
HETATM    6  C   UNK N   1      24.618  27.070  -5.564  0.00  0.00     0.012 C 
HETATM    7  C   UNK N   1      26.911  26.750  -6.284  0.00  0.00     0.043 C 
HETATM    8  C   UNK N   1      26.697  26.147  -4.882  0.00  0.00     0.091 C 
HETATM    9  C   UNK N   1      27.215  28.168  -5.873  0.00  0.00    -0.030 A 
HETATM   10  C   UNK N   1      27.378  30.624  -4.563  0.00  0.00     0.001 A 
HETATM   11  C   UNK N   1      26.529  29.626  -4.066  0.00  0.00     0.008 A 
ENDROOT
BRANCH   3  12
HETATM   12  C   UNK N   1      28.953  28.969  -7.615  0.00  0.00     0.418 C 
HETATM   13  F   UNK N   1      30.065  28.220  -7.274  0.00  0.00    -0.166 F 
HETATM   14  F   UNK N   1      29.387  30.159  -8.158  0.00  0.00    -0.166 F 
HETATM   15  F   UNK N   1      28.237  28.288  -8.582  0.00  0.00    -0.166 F 
ENDBRANCH   3  12
BRANCH   8  16
HETATM   16  N   UNK N   1      26.154  24.791  -4.916  0.00  0.00    -0.425 N 
HETATM   17  H   UNK N   1      26.631  24.038  -4.422  0.00  0.00     0.150 HD
HETATM   18  H   UNK N   1      25.297  24.599  -5.435  0.00  0.00     0.150 HD
ENDBRANCH   8  16
TORSDOF 2
ENDMDL
