MODEL 1
REMARK VINA RESULT:      -5.7      0.000      0.000
REMARK  5 active torsions:
REMARK  status: ('A' for Active; 'I' for Inactive)
REMARK    1  A    between atoms: C_5  and  C_2 
REMARK    2  A    between atoms: C_11  and  C_10 
REMARK    3  A    between atoms: C_11  and  O_12 
REMARK    4  A    between atoms: C_13  and  C_11 
REMARK    5  A    between atoms: N_14  and  C_13 
ROOT
HETATM    1  C   UNK N   1      24.978  19.660   3.660  0.00  0.00     0.048 A 
HETATM    2  C   UNK N   1      23.852  20.348   3.190  0.00  0.00     0.025 A 
HETATM    3  C   UNK N   1      24.826  18.382   4.211  0.00  0.00     0.016 A 
HETATM    4  C   UNK N   1      23.560  17.796   4.291  0.00  0.00     0.001 A 
HETATM    5  C   UNK N   1      22.441  18.481   3.808  0.00  0.00     0.010 A 
HETATM    6  C   UNK N   1      22.576  19.761   3.255  0.00  0.00    -0.027 A 
ENDROOT
BRANCH   6   7
HETATM    7  C   UNK N   1      21.353  20.474   2.726  0.00  0.00     0.168 C 
BRANCH   7   8
HETATM    8  O   UNK N   1      21.641  21.833   2.576  0.00  0.00    -0.389 OA
HETATM    9  H   UNK N   1      21.336  22.752   2.543  0.00  0.00     0.210 HD
ENDBRANCH   7   8
BRANCH   7  10
HETATM   10  C   UNK N   1      20.878  19.912   1.384  0.00  0.00     0.147 C 
BRANCH  10  11
HETATM   11  N   UNK N   1      20.458  20.984   0.497  0.00  0.00    -0.427 N 
HETATM   12  H   UNK N   1      21.116  21.719   0.235  0.00  0.00     0.150 HD
HETATM   13  H   UNK N   1      19.504  21.002   0.137  0.00  0.00     0.150 HD
ENDBRANCH  10  11
ENDBRANCH   7  10
ENDBRANCH   6   7
BRANCH   1  14
HETATM   14  C   UNK N   1      26.331  20.300   3.548  0.00  0.00     0.417 C 
HETATM   15  F   UNK N   1      27.301  19.321   3.436  0.00  0.00    -0.166 F 
HETATM   16  F   UNK N   1      26.577  21.053   4.683  0.00  0.00    -0.166 F 
HETATM   17  F   UNK N   1      26.402  21.130   2.441  0.00  0.00    -0.166 F 
ENDBRANCH   1  14
TORSDOF 5
ENDMDL
MODEL 2
REMARK VINA RESULT:      -5.6      8.957     10.482
REMARK  5 active torsions:
REMARK  status: ('A' for Active; 'I' for Inactive)
REMARK    1  A    between atoms: C_5  and  C_2 
REMARK    2  A    between atoms: C_11  and  C_10 
REMARK    3  A    between atoms: C_11  and  O_12 
REMARK    4  A    between atoms: C_13  and  C_11 
REMARK    5  A    between atoms: N_14  and  C_13 
ROOT
HETATM    1  C   UNK N   1      30.058  17.701   8.410  0.00  0.00     0.048 A 
HETATM    2  C   UNK N   1      31.455  17.609   8.445  0.00  0.00     0.025 A 
HETATM    3  C   UNK N   1      29.382  17.484   7.203  0.00  0.00     0.016 A 
HETATM    4  C   UNK N   1      30.096  17.177   6.042  0.00  0.00     0.001 A 
HETATM    5  C   UNK N   1      31.490  17.072   6.085  0.00  0.00     0.010 A 
HETATM    6  C   UNK N   1      32.181  17.287   7.285  0.00  0.00    -0.027 A 
ENDROOT
BRANCH   6   7
HETATM    7  C   UNK N   1      33.686  17.154   7.309  0.00  0.00     0.168 C 
BRANCH   7   8
HETATM    8  O   UNK N   1      34.235  17.951   6.303  0.00  0.00    -0.389 OA
HETATM    9  H   UNK N   1      34.715  18.751   6.040  0.00  0.00     0.210 HD
ENDBRANCH   7   8
BRANCH   7  10
HETATM   10  C   UNK N   1      34.291  17.557   8.655  0.00  0.00     0.147 C 
BRANCH  10  11
HETATM   11  N   UNK N   1      34.949  18.849   8.556  0.00  0.00    -0.427 N 
HETATM   12  H   UNK N   1      34.684  19.504   7.819  0.00  0.00     0.150 HD
HETATM   13  H   UNK N   1      35.676  19.103   9.225  0.00  0.00     0.150 HD
ENDBRANCH  10  11
ENDBRANCH   7  10
ENDBRANCH   6   7
BRANCH   1  14
HETATM   14  C   UNK N   1      29.308  18.014   9.672  0.00  0.00     0.417 C 
HETATM   15  F   UNK N   1      29.878  19.111  10.292  0.00  0.00    -0.166 F 
HETATM   16  F   UNK N   1      29.375  16.927  10.526  0.00  0.00    -0.166 F 
HETATM   17  F   UNK N   1      27.977  18.289   9.408  0.00  0.00    -0.166 F 
ENDBRANCH   1  14
TORSDOF 5
ENDMDL
MODEL 3
REMARK VINA RESULT:      -5.5      9.743     10.984
REMARK  5 active torsions:
REMARK  status: ('A' for Active; 'I' for Inactive)
REMARK    1  A    between atoms: C_5  and  C_2 
REMARK    2  A    between atoms: C_11  and  C_10 
REMARK    3  A    between atoms: C_11  and  O_12 
REMARK    4  A    between atoms: C_13  and  C_11 
REMARK    5  A    between atoms: N_14  and  C_13 
ROOT
HETATM    1  C   UNK N   1      21.515  13.489   9.007  0.00  0.00     0.048 A 
HETATM    2  C   UNK N   1      22.182  13.184  10.200  0.00  0.00     0.025 A 
HETATM    3  C   UNK N   1      21.802  12.756   7.849  0.00  0.00     0.016 A 
HETATM    4  C   UNK N   1      22.747  11.727   7.883  0.00  0.00     0.001 A 
HETATM    5  C   UNK N   1      23.400  11.417   9.080  0.00  0.00     0.010 A 
HETATM    6  C   UNK N   1      23.125  12.142  10.247  0.00  0.00    -0.027 A 
ENDROOT
BRANCH   6   7
HETATM    7  C   UNK N   1      23.833  11.777  11.531  0.00  0.00     0.168 C 
BRANCH   7   8
HETATM    8  O   UNK N   1      24.948  12.602  11.692  0.00  0.00    -0.389 OA
HETATM    9  H   UNK N   1      25.911  12.704  11.741  0.00  0.00     0.210 HD
ENDBRANCH   7   8
BRANCH   7  10
HETATM   10  C   UNK N   1      22.930  11.910  12.759  0.00  0.00     0.147 C 
BRANCH  10  11
HETATM   11  N   UNK N   1      23.683  12.404  13.900  0.00  0.00    -0.427 N 
HETATM   12  H   UNK N   1      23.317  13.173  14.462  0.00  0.00     0.150 HD
HETATM   13  H   UNK N   1      24.579  11.980  14.139  0.00  0.00     0.150 HD
ENDBRANCH  10  11
ENDBRANCH   7  10
ENDBRANCH   6   7
BRANCH   1  14
HETATM   14  C   UNK N   1      20.490  14.586   8.996  0.00  0.00     0.417 C 
HETATM   15  F   UNK N   1      21.082  15.779   9.368  0.00  0.00    -0.166 F 
HETATM   16  F   UNK N   1      19.483  14.281   9.894  0.00  0.00    -0.166 F 
HETATM   17  F   UNK N   1      19.932  14.736   7.737  0.00  0.00    -0.166 F 
ENDBRANCH   1  14
TORSDOF 5
ENDMDL
MODEL 4
REMARK VINA RESULT:      -5.4     15.805     17.277
REMARK  5 active torsions:
REMARK  status: ('A' for Active; 'I' for Inactive)
REMARK    1  A    between atoms: C_5  and  C_2 
REMARK    2  A    between atoms: C_11  and  C_10 
REMARK    3  A    between atoms: C_11  and  O_12 
REMARK    4  A    between atoms: C_13  and  C_11 
REMARK    5  A    between atoms: N_14  and  C_13 
ROOT
HETATM    1  C   UNK N   1      35.044  11.982  14.537  0.00  0.00     0.048 A 
HETATM    2  C   UNK N   1      34.777  12.567  13.293  0.00  0.00     0.025 A 
HETATM    3  C   UNK N   1      35.957  12.594  15.406  0.00  0.00     0.016 A 
HETATM    4  C   UNK N   1      36.596  13.780  15.034  0.00  0.00     0.001 A 
HETATM    5  C   UNK N   1      36.315  14.367  13.796  0.00  0.00     0.010 A 
HETATM    6  C   UNK N   1      35.405  13.767  12.915  0.00  0.00    -0.027 A 
ENDROOT
BRANCH   6   7
HETATM    7  C   UNK N   1      35.108  14.429  11.591  0.00  0.00     0.168 C 
BRANCH   7   8
HETATM    8  O   UNK N   1      33.745  14.727  11.521  0.00  0.00    -0.389 OA
HETATM    9  H   UNK N   1      32.987  15.051  11.011  0.00  0.00     0.210 HD
ENDBRANCH   7   8
BRANCH   7  10
HETATM   10  C   UNK N   1      35.913  15.713  11.380  0.00  0.00     0.147 C 
BRANCH  10  11
HETATM   11  N   UNK N   1      35.049  16.796  10.941  0.00  0.00    -0.427 N 
HETATM   12  H   UNK N   1      35.434  17.727  10.783  0.00  0.00     0.150 HD
HETATM   13  H   UNK N   1      34.055  16.623  10.789  0.00  0.00     0.150 HD
ENDBRANCH  10  11
ENDBRANCH   7  10
ENDBRANCH   6   7
BRANCH   1  14
HETATM   14  C   UNK N   1      34.333  10.718  14.925  0.00  0.00     0.417 C 
HETATM   15  F   UNK N   1      34.863   9.652  14.222  0.00  0.00    -0.166 F 
HETATM   16  F   UNK N   1      32.989  10.837  14.620  0.00  0.00    -0.166 F 
HETATM   17  F   UNK N   1      34.460  10.469  16.282  0.00  0.00    -0.166 F 
ENDBRANCH   1  14
TORSDOF 5
ENDMDL
MODEL 5
REMARK VINA RESULT:      -5.3      8.443      9.521
REMARK  5 active torsions:
REMARK  status: ('A' for Active; 'I' for Inactive)
REMARK    1  A    between atoms: C_5  and  C_2 
REMARK    2  A    between atoms: C_11  and  C_10 
REMARK    3  A    between atoms: C_11  and  O_12 
REMARK    4  A    between atoms: C_13  and  C_11 
REMARK    5  A    between atoms: N_14  and  C_13 
ROOT
HETATM    1  C   UNK N   1      22.935  12.760  10.313  0.00  0.00     0.048 A 
HETATM    2  C   UNK N   1      22.475  13.736   9.421  0.00  0.00     0.025 A 
HETATM    3  C   UNK N   1      22.028  12.129  11.174  0.00  0.00     0.016 A 
HETATM    4  C   UNK N   1      20.674  12.472  11.142  0.00  0.00     0.001 A 
HETATM    5  C   UNK N   1      20.217  13.438  10.240  0.00  0.00     0.010 A 
HETATM    6  C   UNK N   1      21.112  14.078   9.372  0.00  0.00    -0.027 A 
ENDROOT
BRANCH   6   7
HETATM    7  C   UNK N   1      20.592  15.107   8.396  0.00  0.00     0.168 C 
BRANCH   7   8
HETATM    8  O   UNK N   1      20.071  14.456   7.276  0.00  0.00    -0.389 OA
HETATM    9  H   UNK N   1      19.324  14.023   6.834  0.00  0.00     0.210 HD
ENDBRANCH   7   8
BRANCH   7  10
HETATM   10  C   UNK N   1      19.511  16.002   9.005  0.00  0.00     0.147 C 
BRANCH  10  11
HETATM   11  N   UNK N   1      19.787  17.402   8.728  0.00  0.00    -0.427 N 
HETATM   12  H   UNK N   1      20.676  17.815   9.011  0.00  0.00     0.150 HD
HETATM   13  H   UNK N   1      19.090  17.973   8.250  0.00  0.00     0.150 HD
ENDBRANCH  10  11
ENDBRANCH   7  10
ENDBRANCH   6   7
BRANCH   1  14
HETATM   14  C   UNK N   1      24.391  12.393  10.318  0.00  0.00     0.417 C 
HETATM   15  F   UNK N   1      24.637  11.452   9.336  0.00  0.00    -0.166 F 
HETATM   16  F   UNK N   1      24.724  11.860  11.550  0.00  0.00    -0.166 F 
HETATM   17  F   UNK N   1      25.187  13.503  10.086  0.00  0.00    -0.166 F 
ENDBRANCH   1  14
TORSDOF 5
ENDMDL
MODEL 6
REMARK VINA RESULT:      -5.2      8.429      9.251
REMARK  5 active torsions:
REMARK  status: ('A' for Active; 'I' for Inactive)
REMARK    1  A    between atoms: C_5  and  C_2 
REMARK    2  A    between atoms: C_11  and  C_10 
REMARK    3  A    between atoms: C_11  and  O_12 
REMARK    4  A    between atoms: C_13  and  C_11 
REMARK    5  A    between atoms: N_14  and  C_13 
ROOT
HETATM    1  C   UNK N   1      21.454  13.059   9.387  0.00  0.00     0.048 A 
HETATM    2  C   UNK N   1      21.040  14.380   9.597  0.00  0.00     0.025 A 
HETATM    3  C   UNK N   1      21.438  12.529   8.091  0.00  0.00     0.016 A 
HETATM    4  C   UNK N   1      21.012  13.312   7.015  0.00  0.00     0.001 A 
HETATM    5  C   UNK N   1      20.612  14.635   7.229  0.00  0.00     0.010 A 
HETATM    6  C   UNK N   1      20.622  15.181   8.519  0.00  0.00    -0.027 A 
ENDROOT
BRANCH   6   7
HETATM    7  C   UNK N   1      20.200  16.617   8.722  0.00  0.00     0.168 C 
BRANCH   7   8
HETATM    8  O   UNK N   1      20.803  17.415   7.747  0.00  0.00    -0.389 OA
HETATM    9  H   UNK N   1      21.120  17.526   6.838  0.00  0.00     0.210 HD
ENDBRANCH   7   8
BRANCH   7  10
HETATM   10  C   UNK N   1      18.682  16.800   8.651  0.00  0.00     0.147 C 
BRANCH  10  11
HETATM   11  N   UNK N   1      18.271  17.973   9.405  0.00  0.00    -0.427 N 
HETATM   12  H   UNK N   1      18.066  17.896  10.402  0.00  0.00     0.150 HD
HETATM   13  H   UNK N   1      18.187  18.875   8.937  0.00  0.00     0.150 HD
ENDBRANCH  10  11
ENDBRANCH   7  10
ENDBRANCH   6   7
BRANCH   1  14
HETATM   14  C   UNK N   1      21.925  12.240  10.554  0.00  0.00     0.417 C 
HETATM   15  F   UNK N   1      22.485  11.062  10.098  0.00  0.00    -0.166 F 
HETATM   16  F   UNK N   1      20.848  11.944  11.370  0.00  0.00    -0.166 F 
HETATM   17  F   UNK N   1      22.870  12.928  11.298  0.00  0.00    -0.166 F 
ENDBRANCH   1  14
TORSDOF 5
ENDMDL
MODEL 7
REMARK VINA RESULT:      -5.2     12.420     13.858
REMARK  5 active torsions:
REMARK  status: ('A' for Active; 'I' for Inactive)
REMARK    1  A    between atoms: C_5  and  C_2 
REMARK    2  A    between atoms: C_11  and  C_10 
REMARK    3  A    between atoms: C_11  and  O_12 
REMARK    4  A    between atoms: C_13  and  C_11 
REMARK    5  A    between atoms: N_14  and  C_13 
ROOT
HETATM    1  C   UNK N   1      33.767  16.887   8.637  0.00  0.00     0.048 A 
HETATM    2  C   UNK N   1      34.883  16.553   9.412  0.00  0.00     0.025 A 
HETATM    3  C   UNK N   1      32.704  15.981   8.532  0.00  0.00     0.016 A 
HETATM    4  C   UNK N   1      32.757  14.753   9.197  0.00  0.00     0.001 A 
HETATM    5  C   UNK N   1      33.869  14.431   9.982  0.00  0.00     0.010 A 
HETATM    6  C   UNK N   1      34.941  15.326  10.096  0.00  0.00    -0.027 A 
ENDROOT
BRANCH   6   7
HETATM    7  C   UNK N   1      36.123  14.961  10.962  0.00  0.00     0.168 C 
BRANCH   7   8
HETATM    8  O   UNK N   1      37.079  15.977  10.888  0.00  0.00    -0.389 OA
HETATM    9  H   UNK N   1      37.839  16.377  10.438  0.00  0.00     0.210 HD
ENDBRANCH   7   8
BRANCH   7  10
HETATM   10  C   UNK N   1      35.736  14.744  12.427  0.00  0.00     0.147 C 
BRANCH  10  11
HETATM   11  N   UNK N   1      36.828  14.127  13.161  0.00  0.00    -0.427 N 
HETATM   12  H   UNK N   1      37.375  14.678  13.823  0.00  0.00     0.150 HD
HETATM   13  H   UNK N   1      37.048  13.142  13.014  0.00  0.00     0.150 HD
ENDBRANCH  10  11
ENDBRANCH   7  10
ENDBRANCH   6   7
BRANCH   1  14
HETATM   14  C   UNK N   1      33.721  18.218   7.944  0.00  0.00     0.417 C 
HETATM   15  F   UNK N   1      34.832  18.963   8.294  0.00  0.00    -0.166 F 
HETATM   16  F   UNK N   1      32.580  18.898   8.334  0.00  0.00    -0.166 F 
HETATM   17  F   UNK N   1      33.698  18.066   6.568  0.00  0.00    -0.166 F 
ENDBRANCH   1  14
TORSDOF 5
ENDMDL
MODEL 8
REMARK VINA RESULT:      -5.1      8.003      9.497
REMARK  5 active torsions:
REMARK  status: ('A' for Active; 'I' for Inactive)
REMARK    1  A    between atoms: C_5  and  C_2 
REMARK    2  A    between atoms: C_11  and  C_10 
REMARK    3  A    between atoms: C_11  and  O_12 
REMARK    4  A    between atoms: C_13  and  C_11 
REMARK    5  A    between atoms: N_14  and  C_13 
ROOT
HETATM    1  C   UNK N   1      32.383  17.226   5.784  0.00  0.00     0.048 A 
HETATM    2  C   UNK N   1      31.221  17.184   6.565  0.00  0.00     0.025 A 
HETATM    3  C   UNK N   1      33.593  17.621   6.368  0.00  0.00     0.016 A 
HETATM    4  C   UNK N   1      33.641  17.968   7.721  0.00  0.00     0.001 A 
HETATM    5  C   UNK N   1      32.481  17.910   8.499  0.00  0.00     0.010 A 
HETATM    6  C   UNK N   1      31.262  17.519   7.930  0.00  0.00    -0.027 A 
ENDROOT
BRANCH   6   7
HETATM    7  C   UNK N   1      30.026  17.450   8.795  0.00  0.00     0.168 C 
BRANCH   7   8
HETATM    8  O   UNK N   1      30.190  18.289   9.899  0.00  0.00    -0.389 OA
HETATM    9  H   UNK N   1      30.773  18.701  10.556  0.00  0.00     0.210 HD
ENDBRANCH   7   8
BRANCH   7  10
HETATM   10  C   UNK N   1      28.757  17.854   8.042  0.00  0.00     0.147 C 
BRANCH  10  11
HETATM   11  N   UNK N   1      27.819  18.515   8.934  0.00  0.00    -0.427 N 
HETATM   12  H   UNK N   1      27.161  17.964   9.486  0.00  0.00     0.150 HD
HETATM   13  H   UNK N   1      27.818  19.532   9.008  0.00  0.00     0.150 HD
ENDBRANCH  10  11
ENDBRANCH   7  10
ENDBRANCH   6   7
BRANCH   1  14
HETATM   14  C   UNK N   1      32.313  16.831   4.337  0.00  0.00     0.417 C 
HETATM   15  F   UNK N   1      32.035  17.943   3.565  0.00  0.00    -0.166 F 
HETATM   16  F   UNK N   1      31.307  15.897   4.165  0.00  0.00    -0.166 F 
HETATM   17  F   UNK N   1      33.509  16.277   3.912  0.00  0.00    -0.166 F 
ENDBRANCH   1  14
TORSDOF 5
ENDMDL
MODEL 9
REMARK VINA RESULT:      -5.1     18.835     20.127
REMARK  5 active torsions:
REMARK  status: ('A' for Active; 'I' for Inactive)
REMARK    1  A    between atoms: C_5  and  C_2 
REMARK    2  A    between atoms: C_11  and  C_10 
REMARK    3  A    between atoms: C_11  and  O_12 
REMARK    4  A    between atoms: C_13  and  C_11 
REMARK    5  A    between atoms: N_14  and  C_13 
ROOT
HETATM    1  C   UNK N   1      35.229  11.405  18.266  0.00  0.00     0.048 A 
HETATM    2  C   UNK N   1      35.424  11.491  16.882  0.00  0.00     0.025 A 
HETATM    3  C   UNK N   1      35.158  12.578  19.027  0.00  0.00     0.016 A 
HETATM    4  C   UNK N   1      35.279  13.826  18.410  0.00  0.00     0.001 A 
HETATM    5  C   UNK N   1      35.459  13.906  17.026  0.00  0.00     0.010 A 
HETATM    6  C   UNK N   1      35.534  12.742  16.250  0.00  0.00    -0.027 A 
ENDROOT
BRANCH   6   7
HETATM    7  C   UNK N   1      35.713  12.856  14.755  0.00  0.00     0.168 C 
BRANCH   7   8
HETATM    8  O   UNK N   1      34.459  12.887  14.141  0.00  0.00    -0.389 OA
HETATM    9  H   UNK N   1      33.533  13.175  14.148  0.00  0.00     0.210 HD
ENDBRANCH   7   8
BRANCH   7  10
HETATM   10  C   UNK N   1      36.501  14.105  14.350  0.00  0.00     0.147 C 
BRANCH  10  11
HETATM   11  N   UNK N   1      36.823  14.072  12.933  0.00  0.00    -0.427 N 
HETATM   12  H   UNK N   1      36.355  13.407  12.316  0.00  0.00     0.150 HD
HETATM   13  H   UNK N   1      37.518  14.715  12.555  0.00  0.00     0.150 HD
ENDBRANCH  10  11
ENDBRANCH   7  10
ENDBRANCH   6   7
BRANCH   1  14
HETATM   14  C   UNK N   1      35.083  10.055  18.907  0.00  0.00     0.417 C 
HETATM   15  F   UNK N   1      36.311   9.422  18.944  0.00  0.00    -0.166 F 
HETATM   16  F   UNK N   1      34.202   9.289  18.165  0.00  0.00    -0.166 F 
HETATM   17  F   UNK N   1      34.596  10.165  20.199  0.00  0.00    -0.166 F 
ENDBRANCH   1  14
TORSDOF 5
ENDMDL
