REMARK  5 active torsions:
REMARK  status: ('A' for Active; 'I' for Inactive)
REMARK    1  A    between atoms: C_5  and  C_2 
REMARK    2  A    between atoms: C_11  and  C_10 
REMARK    3  A    between atoms: C_11  and  O_12 
REMARK    4  A    between atoms: C_13  and  C_11 
REMARK    5  A    between atoms: N_14  and  C_13 
ROOT
HETATM    1  C   UNK N   1       2.282  -0.180  -0.232  0.00  0.00     0.048 A 
HETATM    2  C   UNK N   1       1.058   0.490  -0.115  0.00  0.00     0.025 A 
HETATM    3  C   UNK N   1       2.308  -1.580  -0.203  0.00  0.00     0.016 A 
HETATM    4  C   UNK N   1       1.121  -2.303  -0.059  0.00  0.00     0.001 A 
HETATM    5  C   UNK N   1      -0.100  -1.629   0.043  0.00  0.00     0.010 A 
HETATM    6  C   UNK N   1      -0.143  -0.229   0.017  0.00  0.00    -0.027 A 
ENDROOT
BRANCH   6   7
HETATM    7  C   UNK N   1      -1.476   0.475   0.114  0.00  0.00     0.168 C 
BRANCH   7   8
HETATM    8  O   UNK N   1      -2.110   0.099   1.300  0.00  0.00    -0.389 OA
HETATM    9  H   UNK N   1      -2.556   0.349   2.124  0.00  0.00     0.210 HD
ENDBRANCH   7   8
BRANCH   7  10
HETATM   10  C   UNK N   1      -1.341   1.999   0.079  0.00  0.00     0.147 C 
BRANCH  10  11
HETATM   11  N   UNK N   1      -2.644   2.633   0.189  0.00  0.00    -0.427 N 
HETATM   12  H   UNK N   1      -2.715   3.648   0.266  0.00  0.00     0.150 HD
HETATM   13  H   UNK N   1      -3.489   2.062   0.189  0.00  0.00     0.150 HD
ENDBRANCH  10  11
ENDBRANCH   7  10
ENDBRANCH   6   7
BRANCH   1  14
HETATM   14  C   UNK N   1       3.544   0.615  -0.404  0.00  0.00     0.417 C 
HETATM   15  F   UNK N   1       3.748   1.410   0.708  0.00  0.00    -0.166 F 
HETATM   16  F   UNK N   1       3.428   1.422  -1.522  0.00  0.00    -0.166 F 
HETATM   17  F   UNK N   1       4.640  -0.216  -0.569  0.00  0.00    -0.166 F 
ENDBRANCH   1  14
TORSDOF 5
