MODEL 1
REMARK VINA RESULT:      -6.9      0.000      0.000
REMARK  7 active torsions:
REMARK  status: ('A' for Active; 'I' for Inactive)
REMARK    1  A    between atoms: C_7  and  C_8 
REMARK    2  A    between atoms: C_13  and  N_14 
REMARK    3  A    between atoms: N_14  and  C_15 
REMARK    4  A    between atoms: C_15  and  C_16 
REMARK    5  A    between atoms: C_16  and  N_17 
REMARK    6  A    between atoms: C_19  and  N_20 
REMARK    7  A    between atoms: N_20  and  C_21 
ROOT
HETATM    1  F   UNK N   1      35.155  11.567  20.140  0.00  0.00    -0.203 F 
HETATM    2  C   UNK N   1      35.296  12.035  18.875  0.00  0.00     0.157 A 
HETATM    3  C   UNK N   1      35.624  11.155  17.837  0.00  0.00     0.182 A 
HETATM    4  F   UNK N   1      35.795   9.855  18.155  0.00  0.00    -0.200 F 
HETATM    5  C   UNK N   1      35.122  13.395  18.624  0.00  0.00     0.046 A 
HETATM    6  C   UNK N   1      35.276  13.892  17.333  0.00  0.00     0.021 A 
HETATM    7  C   UNK N   1      35.595  13.034  16.276  0.00  0.00     0.047 A 
HETATM    8  C   UNK N   1      35.777  11.644  16.513  0.00  0.00     0.089 A 
ENDROOT
BRANCH   7   9
HETATM    9  C   UNK N   1      35.792  13.598  14.918  0.00  0.00     0.178 A 
HETATM   10  N   UNK N   1      36.892  14.258  14.496  0.00  0.00    -0.276 N 
HETATM   11  N   UNK N   1      36.725  14.481  13.198  0.00  0.00    -0.263 N 
ATOM     12  HN  UNK N   1      37.694  14.532  15.063  1.00  0.00     0.189 HD
HETATM   13  C   UNK N   1      35.520  13.967  12.880  0.00  0.00     0.241 A 
ATOM     14  HN  UNK N   1      37.377  14.948  12.568  1.00  0.00     0.190 HD
HETATM   15  O   UNK N   1      34.957  13.430  13.922  0.00  0.00    -0.259 OA
BRANCH  13  16
HETATM   16  N   UNK N   1      34.983  13.879  11.576  0.00  0.00    -0.353 N 
HETATM   17  H   UNK N   1      35.144  13.069  11.043  0.00  0.00     0.163 HD
BRANCH  16  18
HETATM   18  C   UNK N   1      34.205  14.949  11.012  0.00  0.00     0.142 C 
BRANCH  18  19
HETATM   19  C   UNK N   1      35.063  15.811  10.119  0.00  0.00     0.130 C 
BRANCH  19  20
HETATM   20  N   UNK N   1      35.147  17.144  10.686  0.00  0.00    -0.429 N 
HETATM   21  H   UNK N   1      34.400  17.603  11.207  0.00  0.00     0.149 HD
HETATM   22  H   UNK N   1      36.017  17.658  10.554  0.00  0.00     0.149 HD
ENDBRANCH  19  20
ENDBRANCH  18  19
ENDBRANCH  16  18
ENDBRANCH  13  16
ENDBRANCH   7   9
BRANCH   8  23
HETATM   23  N   UNK N   1      36.138  10.836  15.387  0.00  0.00    -0.350 N 
HETATM   24  H   UNK N   1      35.581  11.047  14.603  0.00  0.00     0.166 HD
BRANCH  23  25
HETATM   25  C   UNK N   1      37.080   9.813  15.091  0.00  0.00     0.071 A 
HETATM   26  C   UNK N   1      38.395  10.070  14.697  0.00  0.00     0.034 A 
HETATM   27  C   UNK N   1      39.275   9.018  14.427  0.00  0.00     0.020 A 
HETATM   28  C   UNK N   1      38.841   7.696  14.551  0.00  0.00     0.009 A 
HETATM   29  I   UNK N   1      40.162   6.109  14.158  0.00  0.00    -0.044 I 
HETATM   30  C   UNK N   1      37.531   7.427  14.944  0.00  0.00     0.062 A 
HETATM   31  C   UNK N   1      36.653   8.479  15.212  0.00  0.00     0.144 A 
HETATM   32  F   UNK N   1      35.381   8.201  15.593  0.00  0.00    -0.204 F 
ENDBRANCH  23  25
ENDBRANCH   8  23
TORSDOF 7
ENDMDL
MODEL 2
REMARK VINA RESULT:      -6.8      2.633      3.040
REMARK  7 active torsions:
REMARK  status: ('A' for Active; 'I' for Inactive)
REMARK    1  A    between atoms: C_7  and  C_8 
REMARK    2  A    between atoms: C_13  and  N_14 
REMARK    3  A    between atoms: N_14  and  C_15 
REMARK    4  A    between atoms: C_15  and  C_16 
REMARK    5  A    between atoms: C_16  and  N_17 
REMARK    6  A    between atoms: C_19  and  N_20 
REMARK    7  A    between atoms: N_20  and  C_21 
ROOT
HETATM    1  F   UNK N   1      35.181  11.066  19.802  0.00  0.00    -0.203 F 
HETATM    2  C   UNK N   1      35.327  11.656  18.590  0.00  0.00     0.157 A 
HETATM    3  C   UNK N   1      35.634  10.879  17.467  0.00  0.00     0.182 A 
HETATM    4  F   UNK N   1      35.782   9.551  17.653  0.00  0.00    -0.200 F 
HETATM    5  C   UNK N   1      35.177  13.037  18.476  0.00  0.00     0.046 A 
HETATM    6  C   UNK N   1      35.336  13.658  17.241  0.00  0.00     0.021 A 
HETATM    7  C   UNK N   1      35.635  12.905  16.102  0.00  0.00     0.047 A 
HETATM    8  C   UNK N   1      35.792  11.495  16.198  0.00  0.00     0.089 A 
ENDROOT
BRANCH   7   9
HETATM    9  C   UNK N   1      35.838  13.598  14.806  0.00  0.00     0.178 A 
HETATM   10  N   UNK N   1      36.995  14.154  14.388  0.00  0.00    -0.276 N 
HETATM   11  N   UNK N   1      36.794  14.552  13.138  0.00  0.00    -0.263 N 
ATOM     12  HN  UNK N   1      37.856  14.249  14.927  1.00  0.00     0.189 HD
HETATM   13  C   UNK N   1      35.516  14.243  12.845  0.00  0.00     0.241 A 
ATOM     14  HN  UNK N   1      37.472  15.003  12.523  1.00  0.00     0.190 HD
HETATM   15  O   UNK N   1      34.938  13.663  13.856  0.00  0.00    -0.259 OA
BRANCH  13  16
HETATM   16  N   UNK N   1      34.905  14.386  11.580  0.00  0.00    -0.353 N 
HETATM   17  H   UNK N   1      33.948  14.178  11.481  0.00  0.00     0.163 HD
BRANCH  16  18
HETATM   18  C   UNK N   1      35.650  14.828  10.432  0.00  0.00     0.142 C 
BRANCH  18  19
HETATM   19  C   UNK N   1      34.924  15.952   9.733  0.00  0.00     0.130 C 
BRANCH  19  20
HETATM   20  N   UNK N   1      35.026  17.154  10.539  0.00  0.00    -0.429 N 
HETATM   21  H   UNK N   1      34.236  17.732  10.826  0.00  0.00     0.149 HD
HETATM   22  H   UNK N   1      35.956  17.442  10.841  0.00  0.00     0.149 HD
ENDBRANCH  19  20
ENDBRANCH  18  19
ENDBRANCH  16  18
ENDBRANCH  13  16
ENDBRANCH   7   9
BRANCH   8  23
HETATM   23  N   UNK N   1      36.134  10.797  14.994  0.00  0.00    -0.350 N 
HETATM   24  H   UNK N   1      37.008  10.351  15.077  0.00  0.00     0.166 HD
BRANCH  23  25
HETATM   25  C   UNK N   1      35.558  10.572  13.714  0.00  0.00     0.071 A 
HETATM   26  C   UNK N   1      34.220  10.221  13.524  0.00  0.00     0.034 A 
HETATM   27  C   UNK N   1      33.713  10.020  12.238  0.00  0.00     0.020 A 
HETATM   28  C   UNK N   1      34.546  10.173  11.127  0.00  0.00     0.009 A 
HETATM   29  I   UNK N   1      33.787   9.885   9.189  0.00  0.00    -0.044 I 
HETATM   30  C   UNK N   1      35.884  10.524  11.304  0.00  0.00     0.062 A 
HETATM   31  C   UNK N   1      36.389  10.722  12.590  0.00  0.00     0.144 A 
HETATM   32  F   UNK N   1      37.693  11.063  12.746  0.00  0.00    -0.204 F 
ENDBRANCH  23  25
ENDBRANCH   8  23
TORSDOF 7
ENDMDL
MODEL 3
REMARK VINA RESULT:      -6.7     10.326     13.624
REMARK  7 active torsions:
REMARK  status: ('A' for Active; 'I' for Inactive)
REMARK    1  A    between atoms: C_7  and  C_8 
REMARK    2  A    between atoms: C_13  and  N_14 
REMARK    3  A    between atoms: N_14  and  C_15 
REMARK    4  A    between atoms: C_15  and  C_16 
REMARK    5  A    between atoms: C_16  and  N_17 
REMARK    6  A    between atoms: C_19  and  N_20 
REMARK    7  A    between atoms: N_20  and  C_21 
ROOT
HETATM    1  F   UNK N   1      25.762  20.856   3.491  0.00  0.00    -0.203 F 
HETATM    2  C   UNK N   1      26.435  20.307   4.533  0.00  0.00     0.157 A 
HETATM    3  C   UNK N   1      27.034  19.049   4.393  0.00  0.00     0.182 A 
HETATM    4  F   UNK N   1      26.903  18.428   3.203  0.00  0.00    -0.200 F 
HETATM    5  C   UNK N   1      26.514  20.999   5.739  0.00  0.00     0.046 A 
HETATM    6  C   UNK N   1      27.190  20.443   6.821  0.00  0.00     0.021 A 
HETATM    7  C   UNK N   1      27.805  19.192   6.706  0.00  0.00     0.047 A 
HETATM    8  C   UNK N   1      27.734  18.471   5.484  0.00  0.00     0.089 A 
ENDROOT
BRANCH   7   9
HETATM    9  C   UNK N   1      28.485  18.607   7.888  0.00  0.00     0.178 A 
HETATM   10  N   UNK N   1      27.922  18.417   9.101  0.00  0.00    -0.276 N 
HETATM   11  N   UNK N   1      28.813  17.759   9.832  0.00  0.00    -0.263 N 
ATOM     12  HN  UNK N   1      26.994  18.720   9.397  1.00  0.00     0.189 HD
HETATM   13  C   UNK N   1      29.894  17.589   9.046  0.00  0.00     0.241 A 
ATOM     14  HN  UNK N   1      28.701  17.446  10.797  1.00  0.00     0.190 HD
HETATM   15  O   UNK N   1      29.693  18.101   7.867  0.00  0.00    -0.259 OA
BRANCH  13  16
HETATM   16  N   UNK N   1      31.042  16.837   9.380  0.00  0.00    -0.353 N 
HETATM   17  H   UNK N   1      31.332  16.793  10.319  0.00  0.00     0.163 HD
BRANCH  16  18
HETATM   18  C   UNK N   1      31.796  16.134   8.378  0.00  0.00     0.142 C 
BRANCH  18  19
HETATM   19  C   UNK N   1      33.128  16.807   8.151  0.00  0.00     0.130 C 
BRANCH  19  20
HETATM   20  N   UNK N   1      33.568  17.415   9.393  0.00  0.00    -0.429 N 
HETATM   21  H   UNK N   1      33.365  18.373   9.677  0.00  0.00     0.149 HD
HETATM   22  H   UNK N   1      34.123  16.841  10.028  0.00  0.00     0.149 HD
ENDBRANCH  19  20
ENDBRANCH  18  19
ENDBRANCH  16  18
ENDBRANCH  13  16
ENDBRANCH   7   9
BRANCH   8  23
HETATM   23  N   UNK N   1      28.357  17.181   5.455  0.00  0.00    -0.350 N 
HETATM   24  H   UNK N   1      27.760  16.488   5.821  0.00  0.00     0.166 HD
BRANCH  23  25
HETATM   25  C   UNK N   1      29.600  16.626   5.044  0.00  0.00     0.071 A 
HETATM   26  C   UNK N   1      30.667  17.396   4.575  0.00  0.00     0.034 A 
HETATM   27  C   UNK N   1      31.867  16.790   4.193  0.00  0.00     0.020 A 
HETATM   28  C   UNK N   1      32.006  15.403   4.279  0.00  0.00     0.009 A 
HETATM   29  I   UNK N   1      33.812  14.485   3.717  0.00  0.00    -0.044 I 
HETATM   30  C   UNK N   1      30.948  14.624   4.745  0.00  0.00     0.062 A 
HETATM   31  C   UNK N   1      29.750  15.231   5.126  0.00  0.00     0.144 A 
HETATM   32  F   UNK N   1      28.729  14.460   5.578  0.00  0.00    -0.204 F 
ENDBRANCH  23  25
ENDBRANCH   8  23
TORSDOF 7
ENDMDL
MODEL 4
REMARK VINA RESULT:      -6.7     10.748     14.590
REMARK  7 active torsions:
REMARK  status: ('A' for Active; 'I' for Inactive)
REMARK    1  A    between atoms: C_7  and  C_8 
REMARK    2  A    between atoms: C_13  and  N_14 
REMARK    3  A    between atoms: N_14  and  C_15 
REMARK    4  A    between atoms: C_15  and  C_16 
REMARK    5  A    between atoms: C_16  and  N_17 
REMARK    6  A    between atoms: C_19  and  N_20 
REMARK    7  A    between atoms: N_20  and  C_21 
ROOT
HETATM    1  F   UNK N   1      25.645  20.597   2.811  0.00  0.00    -0.203 F 
HETATM    2  C   UNK N   1      26.277  20.145   3.922  0.00  0.00     0.157 A 
HETATM    3  C   UNK N   1      26.449  18.769   4.117  0.00  0.00     0.182 A 
HETATM    4  F   UNK N   1      25.960  17.942   3.170  0.00  0.00    -0.200 F 
HETATM    5  C   UNK N   1      26.741  21.058   4.867  0.00  0.00     0.046 A 
HETATM    6  C   UNK N   1      27.380  20.608   6.018  0.00  0.00     0.021 A 
HETATM    7  C   UNK N   1      27.572  19.240   6.234  0.00  0.00     0.047 A 
HETATM    8  C   UNK N   1      27.106  18.293   5.282  0.00  0.00     0.089 A 
ENDROOT
BRANCH   7   9
HETATM    9  C   UNK N   1      28.222  18.788   7.489  0.00  0.00     0.178 A 
HETATM   10  N   UNK N   1      27.697  18.905   8.728  0.00  0.00    -0.276 N 
HETATM   11  N   UNK N   1      28.523  18.269   9.550  0.00  0.00    -0.263 N 
ATOM     12  HN  UNK N   1      26.834  19.387   8.983  1.00  0.00     0.189 HD
HETATM   13  C   UNK N   1      29.532  17.806   8.787  0.00  0.00     0.241 A 
ATOM     14  HN  UNK N   1      28.416  18.156  10.558  1.00  0.00     0.190 HD
HETATM   15  O   UNK N   1      29.347  18.118   7.537  0.00  0.00    -0.259 OA
BRANCH  13  16
HETATM   16  N   UNK N   1      30.580  16.970   9.230  0.00  0.00    -0.353 N 
HETATM   17  H   UNK N   1      30.729  16.855  10.196  0.00  0.00     0.163 HD
BRANCH  16  18
HETATM   18  C   UNK N   1      31.436  16.283   8.301  0.00  0.00     0.142 C 
BRANCH  18  19
HETATM   19  C   UNK N   1      32.679  15.786   8.997  0.00  0.00     0.130 C 
BRANCH  19  20
HETATM   20  N   UNK N   1      32.295  15.081  10.206  0.00  0.00    -0.429 N 
HETATM   21  H   UNK N   1      32.179  15.515  11.121  0.00  0.00     0.149 HD
HETATM   22  H   UNK N   1      32.129  14.078  10.134  0.00  0.00     0.149 HD
ENDBRANCH  19  20
ENDBRANCH  18  19
ENDBRANCH  16  18
ENDBRANCH  13  16
ENDBRANCH   7   9
BRANCH   8  23
HETATM   23  N   UNK N   1      27.308  16.909   5.590  0.00  0.00    -0.350 N 
HETATM   24  H   UNK N   1      28.253  16.723   5.795  0.00  0.00     0.166 HD
BRANCH  23  25
HETATM   25  C   UNK N   1      26.518  15.731   5.683  0.00  0.00     0.071 A 
HETATM   26  C   UNK N   1      26.078  15.011   4.569  0.00  0.00     0.034 A 
HETATM   27  C   UNK N   1      25.310  13.855   4.728  0.00  0.00     0.020 A 
HETATM   28  C   UNK N   1      24.977  13.408   6.009  0.00  0.00     0.009 A 
HETATM   29  I   UNK N   1      23.832  11.663   6.256  0.00  0.00    -0.044 I 
HETATM   30  C   UNK N   1      25.410  14.118   7.128  0.00  0.00     0.062 A 
HETATM   31  C   UNK N   1      26.177  15.273   6.968  0.00  0.00     0.144 A 
HETATM   32  F   UNK N   1      26.591  15.953   8.066  0.00  0.00    -0.204 F 
ENDBRANCH  23  25
ENDBRANCH   8  23
TORSDOF 7
ENDMDL
MODEL 5
REMARK VINA RESULT:      -6.6     16.131     18.502
REMARK  7 active torsions:
REMARK  status: ('A' for Active; 'I' for Inactive)
REMARK    1  A    between atoms: C_7  and  C_8 
REMARK    2  A    between atoms: C_13  and  N_14 
REMARK    3  A    between atoms: N_14  and  C_15 
REMARK    4  A    between atoms: C_15  and  C_16 
REMARK    5  A    between atoms: C_16  and  N_17 
REMARK    6  A    between atoms: C_19  and  N_20 
REMARK    7  A    between atoms: N_20  and  C_21 
ROOT
HETATM    1  F   UNK N   1      27.854  20.121   4.004  0.00  0.00    -0.203 F 
HETATM    2  C   UNK N   1      26.517  19.931   3.885  0.00  0.00     0.157 A 
HETATM    3  C   UNK N   1      25.856  19.052   4.751  0.00  0.00     0.182 A 
HETATM    4  F   UNK N   1      26.601  18.416   5.678  0.00  0.00    -0.200 F 
HETATM    5  C   UNK N   1      25.814  20.610   2.891  0.00  0.00     0.046 A 
HETATM    6  C   UNK N   1      24.444  20.415   2.748  0.00  0.00     0.021 A 
HETATM    7  C   UNK N   1      23.757  19.549   3.604  0.00  0.00     0.047 A 
HETATM    8  C   UNK N   1      24.456  18.849   4.624  0.00  0.00     0.089 A 
ENDROOT
BRANCH   7   9
HETATM    9  C   UNK N   1      22.303  19.332   3.404  0.00  0.00     0.178 A 
HETATM   10  N   UNK N   1      21.410  20.284   3.055  0.00  0.00    -0.276 N 
HETATM   11  N   UNK N   1      20.254  19.662   2.854  0.00  0.00    -0.263 N 
ATOM     12  HN  UNK N   1      21.588  21.284   2.964  1.00  0.00     0.189 HD
HETATM   13  C   UNK N   1      20.479  18.358   3.106  0.00  0.00     0.241 A 
ATOM     14  HN  UNK N   1      19.373  20.088   2.566  1.00  0.00     0.190 HD
HETATM   15  O   UNK N   1      21.722  18.159   3.437  0.00  0.00    -0.259 OA
BRANCH  13  16
HETATM   16  N   UNK N   1      19.552  17.311   2.907  0.00  0.00    -0.353 N 
HETATM   17  H   UNK N   1      18.621  17.430   3.203  0.00  0.00     0.163 HD
BRANCH  16  18
HETATM   18  C   UNK N   1      19.938  16.076   2.281  0.00  0.00     0.142 C 
BRANCH  18  19
HETATM   19  C   UNK N   1      20.053  16.255   0.787  0.00  0.00     0.130 C 
BRANCH  19  20
HETATM   20  N   UNK N   1      18.813  16.812   0.281  0.00  0.00    -0.429 N 
HETATM   21  H   UNK N   1      18.041  17.140   0.862  0.00  0.00     0.149 HD
HETATM   22  H   UNK N   1      18.705  16.882  -0.731  0.00  0.00     0.149 HD
ENDBRANCH  19  20
ENDBRANCH  18  19
ENDBRANCH  16  18
ENDBRANCH  13  16
ENDBRANCH   7   9
BRANCH   8  23
HETATM   23  N   UNK N   1      23.691  17.952   5.438  0.00  0.00    -0.350 N 
HETATM   24  H   UNK N   1      22.997  18.434   5.944  0.00  0.00     0.166 HD
BRANCH  23  25
HETATM   25  C   UNK N   1      23.658  16.558   5.715  0.00  0.00     0.071 A 
HETATM   26  C   UNK N   1      24.661  15.672   5.317  0.00  0.00     0.034 A 
HETATM   27  C   UNK N   1      24.573  14.312   5.627  0.00  0.00     0.020 A 
HETATM   28  C   UNK N   1      23.475  13.829   6.343  0.00  0.00     0.009 A 
HETATM   29  I   UNK N   1      23.341  11.788   6.824  0.00  0.00    -0.044 I 
HETATM   30  C   UNK N   1      22.467  14.704   6.746  0.00  0.00     0.062 A 
HETATM   31  C   UNK N   1      22.556  16.062   6.434  0.00  0.00     0.144 A 
HETATM   32  F   UNK N   1      21.568  16.902   6.834  0.00  0.00    -0.204 F 
ENDBRANCH  23  25
ENDBRANCH   8  23
TORSDOF 7
ENDMDL
MODEL 6
REMARK VINA RESULT:      -6.4      3.479      5.898
REMARK  7 active torsions:
REMARK  status: ('A' for Active; 'I' for Inactive)
REMARK    1  A    between atoms: C_7  and  C_8 
REMARK    2  A    between atoms: C_13  and  N_14 
REMARK    3  A    between atoms: N_14  and  C_15 
REMARK    4  A    between atoms: C_15  and  C_16 
REMARK    5  A    between atoms: C_16  and  N_17 
REMARK    6  A    between atoms: C_19  and  N_20 
REMARK    7  A    between atoms: N_20  and  C_21 
ROOT
HETATM    1  F   UNK N   1      36.645  16.227  18.289  0.00  0.00    -0.203 F 
HETATM    2  C   UNK N   1      36.290  15.133  17.571  0.00  0.00     0.157 A 
HETATM    3  C   UNK N   1      36.854  14.910  16.310  0.00  0.00     0.182 A 
HETATM    4  F   UNK N   1      37.739  15.821  15.856  0.00  0.00    -0.200 F 
HETATM    5  C   UNK N   1      35.354  14.243  18.097  0.00  0.00     0.046 A 
HETATM    6  C   UNK N   1      34.970  13.122  17.367  0.00  0.00     0.021 A 
HETATM    7  C   UNK N   1      35.524  12.871  16.108  0.00  0.00     0.047 A 
HETATM    8  C   UNK N   1      36.479  13.767  15.555  0.00  0.00     0.089 A 
ENDROOT
BRANCH   7   9
HETATM    9  C   UNK N   1      35.066  11.690  15.336  0.00  0.00     0.178 A 
HETATM   10  N   UNK N   1      33.851  11.553  14.761  0.00  0.00    -0.276 N 
HETATM   11  N   UNK N   1      33.887  10.423  14.066  0.00  0.00    -0.263 N 
ATOM     12  HN  UNK N   1      33.061  12.193  14.844  1.00  0.00     0.189 HD
HETATM   13  C   UNK N   1      35.114   9.901  14.259  0.00  0.00     0.241 A 
ATOM     14  HN  UNK N   1      33.135  10.028  13.500  1.00  0.00     0.190 HD
HETATM   15  O   UNK N   1      35.829  10.671  15.027  0.00  0.00    -0.259 OA
BRANCH  13  16
HETATM   16  N   UNK N   1      35.630   8.755  13.614  0.00  0.00    -0.353 N 
HETATM   17  H   UNK N   1      35.683   8.738  12.631  0.00  0.00     0.163 HD
BRANCH  16  18
HETATM   18  C   UNK N   1      36.081   7.612  14.361  0.00  0.00     0.142 C 
BRANCH  18  19
HETATM   19  C   UNK N   1      37.588   7.598  14.445  0.00  0.00     0.130 C 
BRANCH  19  20
HETATM   20  N   UNK N   1      38.006   8.410  15.573  0.00  0.00    -0.429 N 
HETATM   21  H   UNK N   1      38.556   8.072  16.362  0.00  0.00     0.149 HD
HETATM   22  H   UNK N   1      37.729   9.392  15.576  0.00  0.00     0.149 HD
ENDBRANCH  19  20
ENDBRANCH  18  19
ENDBRANCH  16  18
ENDBRANCH  13  16
ENDBRANCH   7   9
BRANCH   8  23
HETATM   23  N   UNK N   1      36.973  13.462  14.246  0.00  0.00    -0.350 N 
HETATM   24  H   UNK N   1      37.813  12.950  14.292  0.00  0.00     0.166 HD
BRANCH  23  25
HETATM   25  C   UNK N   1      36.585  13.696  12.899  0.00  0.00     0.071 A 
HETATM   26  C   UNK N   1      35.987  14.882  12.467  0.00  0.00     0.034 A 
HETATM   27  C   UNK N   1      35.635  15.053  11.125  0.00  0.00     0.020 A 
HETATM   28  C   UNK N   1      35.882  14.033  10.203  0.00  0.00     0.009 A 
HETATM   29  I   UNK N   1      35.366  14.288   8.182  0.00  0.00    -0.044 I 
HETATM   30  C   UNK N   1      36.479  12.846  10.623  0.00  0.00     0.062 A 
HETATM   31  C   UNK N   1      36.829  12.676  11.963  0.00  0.00     0.144 A 
HETATM   32  F   UNK N   1      37.410  11.514  12.356  0.00  0.00    -0.204 F 
ENDBRANCH  23  25
ENDBRANCH   8  23
TORSDOF 7
ENDMDL
MODEL 7
REMARK VINA RESULT:      -6.3     10.950     13.748
REMARK  7 active torsions:
REMARK  status: ('A' for Active; 'I' for Inactive)
REMARK    1  A    between atoms: C_7  and  C_8 
REMARK    2  A    between atoms: C_13  and  N_14 
REMARK    3  A    between atoms: N_14  and  C_15 
REMARK    4  A    between atoms: C_15  and  C_16 
REMARK    5  A    between atoms: C_16  and  N_17 
REMARK    6  A    between atoms: C_19  and  N_20 
REMARK    7  A    between atoms: N_20  and  C_21 
ROOT
HETATM    1  F   UNK N   1      26.755  21.591   7.083  0.00  0.00    -0.203 F 
HETATM    2  C   UNK N   1      27.147  20.553   6.303  0.00  0.00     0.157 A 
HETATM    3  C   UNK N   1      27.765  19.438   6.882  0.00  0.00     0.182 A 
HETATM    4  F   UNK N   1      27.951  19.456   8.218  0.00  0.00    -0.200 F 
HETATM    5  C   UNK N   1      26.937  20.613   4.927  0.00  0.00     0.046 A 
HETATM    6  C   UNK N   1      27.345  19.562   4.112  0.00  0.00     0.021 A 
HETATM    7  C   UNK N   1      27.958  18.432   4.665  0.00  0.00     0.047 A 
HETATM    8  C   UNK N   1      28.180  18.353   6.066  0.00  0.00     0.089 A 
ENDROOT
BRANCH   7   9
HETATM    9  C   UNK N   1      28.418  17.344   3.767  0.00  0.00     0.178 A 
HETATM   10  N   UNK N   1      29.648  17.249   3.217  0.00  0.00    -0.276 N 
HETATM   11  N   UNK N   1      29.695  16.079   2.594  0.00  0.00    -0.263 N 
ATOM     12  HN  UNK N   1      30.395  17.942   3.272  1.00  0.00     0.189 HD
HETATM   13  C   UNK N   1      28.486  15.511   2.768  0.00  0.00     0.241 A 
ATOM     14  HN  UNK N   1      30.488  15.689   2.084  1.00  0.00     0.190 HD
HETATM   15  O   UNK N   1      27.713  16.277   3.481  0.00  0.00    -0.259 OA
BRANCH  13  16
HETATM   16  N   UNK N   1      28.126  14.204   2.368  0.00  0.00    -0.353 N 
HETATM   17  H   UNK N   1      28.599  13.785   1.613  0.00  0.00     0.163 HD
BRANCH  16  18
HETATM   18  C   UNK N   1      27.086  13.474   3.039  0.00  0.00     0.142 C 
BRANCH  18  19
HETATM   19  C   UNK N   1      27.550  13.028   4.404  0.00  0.00     0.130 C 
BRANCH  19  20
HETATM   20  N   UNK N   1      26.935  13.871   5.412  0.00  0.00    -0.429 N 
HETATM   21  H   UNK N   1      26.868  13.639   6.403  0.00  0.00     0.149 HD
HETATM   22  H   UNK N   1      26.541  14.760   5.106  0.00  0.00     0.149 HD
ENDBRANCH  19  20
ENDBRANCH  18  19
ENDBRANCH  16  18
ENDBRANCH  13  16
ENDBRANCH   7   9
BRANCH   8  23
HETATM   23  N   UNK N   1      28.845  17.182   6.553  0.00  0.00    -0.350 N 
HETATM   24  H   UNK N   1      28.239  16.405   6.562  0.00  0.00     0.166 HD
BRANCH  23  25
HETATM   25  C   UNK N   1      30.139  16.832   7.026  0.00  0.00     0.071 A 
HETATM   26  C   UNK N   1      30.827  17.567   7.995  0.00  0.00     0.034 A 
HETATM   27  C   UNK N   1      32.095  17.166   8.423  0.00  0.00     0.020 A 
HETATM   28  C   UNK N   1      32.685  16.020   7.883  0.00  0.00     0.009 A 
HETATM   29  I   UNK N   1      34.587  15.405   8.532  0.00  0.00    -0.044 I 
HETATM   30  C   UNK N   1      32.008  15.279   6.916  0.00  0.00     0.062 A 
HETATM   31  C   UNK N   1      30.742  15.682   6.488  0.00  0.00     0.144 A 
HETATM   32  F   UNK N   1      30.095  14.950   5.546  0.00  0.00    -0.204 F 
ENDBRANCH  23  25
ENDBRANCH   8  23
TORSDOF 7
ENDMDL
MODEL 8
REMARK VINA RESULT:      -6.3      8.629     11.388
REMARK  7 active torsions:
REMARK  status: ('A' for Active; 'I' for Inactive)
REMARK    1  A    between atoms: C_7  and  C_8 
REMARK    2  A    between atoms: C_13  and  N_14 
REMARK    3  A    between atoms: N_14  and  C_15 
REMARK    4  A    between atoms: C_15  and  C_16 
REMARK    5  A    between atoms: C_16  and  N_17 
REMARK    6  A    between atoms: C_19  and  N_20 
REMARK    7  A    between atoms: N_20  and  C_21 
ROOT
HETATM    1  F   UNK N   1      27.484  18.077   9.063  0.00  0.00    -0.203 F 
HETATM    2  C   UNK N   1      28.307  17.815   8.017  0.00  0.00     0.157 A 
HETATM    3  C   UNK N   1      29.652  17.501   8.248  0.00  0.00     0.182 A 
HETATM    4  F   UNK N   1      30.074  17.482   9.529  0.00  0.00    -0.200 F 
HETATM    5  C   UNK N   1      27.805  17.871   6.719  0.00  0.00     0.046 A 
HETATM    6  C   UNK N   1      28.641  17.617   5.635  0.00  0.00     0.021 A 
HETATM    7  C   UNK N   1      29.986  17.293   5.837  0.00  0.00     0.047 A 
HETATM    8  C   UNK N   1      30.516  17.231   7.155  0.00  0.00     0.089 A 
ENDROOT
BRANCH   7   9
HETATM    9  C   UNK N   1      30.862  17.066   4.662  0.00  0.00     0.178 A 
HETATM   10  N   UNK N   1      31.366  18.031   3.863  0.00  0.00    -0.276 N 
HETATM   11  N   UNK N   1      32.193  17.428   3.018  0.00  0.00    -0.263 N 
ATOM     12  HN  UNK N   1      31.153  19.028   3.902  1.00  0.00     0.189 HD
HETATM   13  C   UNK N   1      32.149  16.116   3.318  0.00  0.00     0.241 A 
ATOM     14  HN  UNK N   1      32.751  17.871   2.287  1.00  0.00     0.190 HD
HETATM   15  O   UNK N   1      31.343  15.897   4.316  0.00  0.00    -0.259 OA
BRANCH  13  16
HETATM   16  N   UNK N   1      32.961  15.113   2.743  0.00  0.00    -0.353 N 
HETATM   17  H   UNK N   1      32.746  14.777   1.844  0.00  0.00     0.163 HD
BRANCH  16  18
HETATM   18  C   UNK N   1      34.096  14.575   3.442  0.00  0.00     0.142 C 
BRANCH  18  19
HETATM   19  C   UNK N   1      33.720  13.297   4.152  0.00  0.00     0.130 C 
BRANCH  19  20
HETATM   20  N   UNK N   1      33.245  13.619   5.485  0.00  0.00    -0.429 N 
HETATM   21  H   UNK N   1      33.821  14.010   6.230  0.00  0.00     0.149 HD
HETATM   22  H   UNK N   1      32.262  13.442   5.691  0.00  0.00     0.149 HD
ENDBRANCH  19  20
ENDBRANCH  18  19
ENDBRANCH  16  18
ENDBRANCH  13  16
ENDBRANCH   7   9
BRANCH   8  23
HETATM   23  N   UNK N   1      31.911  16.929   7.279  0.00  0.00    -0.350 N 
HETATM   24  H   UNK N   1      32.395  17.131   6.446  0.00  0.00     0.166 HD
BRANCH  23  25
HETATM   25  C   UNK N   1      32.788  16.419   8.275  0.00  0.00     0.071 A 
HETATM   26  C   UNK N   1      32.668  15.138   8.821  0.00  0.00     0.034 A 
HETATM   27  C   UNK N   1      33.567  14.693   9.793  0.00  0.00     0.020 A 
HETATM   28  C   UNK N   1      34.598  15.530  10.226  0.00  0.00     0.009 A 
HETATM   29  I   UNK N   1      35.962  14.863  11.679  0.00  0.00    -0.044 I 
HETATM   30  C   UNK N   1      34.728  16.810   9.689  0.00  0.00     0.062 A 
HETATM   31  C   UNK N   1      33.828  17.254   8.718  0.00  0.00     0.144 A 
HETATM   32  F   UNK N   1      33.967  18.502   8.204  0.00  0.00    -0.204 F 
ENDBRANCH  23  25
ENDBRANCH   8  23
TORSDOF 7
ENDMDL
MODEL 9
REMARK VINA RESULT:      -6.3      3.936      6.309
REMARK  7 active torsions:
REMARK  status: ('A' for Active; 'I' for Inactive)
REMARK    1  A    between atoms: C_7  and  C_8 
REMARK    2  A    between atoms: C_13  and  N_14 
REMARK    3  A    between atoms: N_14  and  C_15 
REMARK    4  A    between atoms: C_15  and  C_16 
REMARK    5  A    between atoms: C_16  and  N_17 
REMARK    6  A    between atoms: C_19  and  N_20 
REMARK    7  A    between atoms: N_20  and  C_21 
ROOT
HETATM    1  F   UNK N   1      39.505  10.709   9.608  0.00  0.00    -0.203 F 
HETATM    2  C   UNK N   1      38.694  11.776   9.814  0.00  0.00     0.157 A 
HETATM    3  C   UNK N   1      37.730  11.737  10.828  0.00  0.00     0.182 A 
HETATM    4  F   UNK N   1      37.649  10.609  11.564  0.00  0.00    -0.200 F 
HETATM    5  C   UNK N   1      38.824  12.902   9.003  0.00  0.00     0.046 A 
HETATM    6  C   UNK N   1      37.991  14.000   9.193  0.00  0.00     0.021 A 
HETATM    7  C   UNK N   1      37.025  13.991  10.205  0.00  0.00     0.047 A 
HETATM    8  C   UNK N   1      36.878  12.852  11.042  0.00  0.00     0.089 A 
ENDROOT
BRANCH   7   9
HETATM    9  C   UNK N   1      36.125  15.160  10.359  0.00  0.00     0.178 A 
HETATM   10  N   UNK N   1      36.183  16.066  11.359  0.00  0.00    -0.276 N 
HETATM   11  N   UNK N   1      35.300  17.012  11.064  0.00  0.00    -0.263 N 
ATOM     12  HN  UNK N   1      36.787  16.031  12.180  1.00  0.00     0.189 HD
HETATM   13  C   UNK N   1      34.721  16.639   9.906  0.00  0.00     0.241 A 
ATOM     14  HN  UNK N   1      35.100  17.853  11.606  1.00  0.00     0.190 HD
HETATM   15  O   UNK N   1      35.224  15.518   9.478  0.00  0.00    -0.259 OA
BRANCH  13  16
HETATM   16  N   UNK N   1      33.800  17.410   9.162  0.00  0.00    -0.353 N 
HETATM   17  H   UNK N   1      32.918  17.610   9.549  0.00  0.00     0.163 HD
BRANCH  16  18
HETATM   18  C   UNK N   1      34.124  17.909   7.853  0.00  0.00     0.142 C 
BRANCH  18  19
HETATM   19  C   UNK N   1      33.066  17.500   6.857  0.00  0.00     0.130 C 
BRANCH  19  20
HETATM   20  N   UNK N   1      33.668  17.405   5.540  0.00  0.00    -0.429 N 
HETATM   21  H   UNK N   1      34.310  18.091   5.142  0.00  0.00     0.149 HD
HETATM   22  H   UNK N   1      33.432  16.593   4.971  0.00  0.00     0.149 HD
ENDBRANCH  19  20
ENDBRANCH  18  19
ENDBRANCH  16  18
ENDBRANCH  13  16
ENDBRANCH   7   9
BRANCH   8  23
HETATM   23  N   UNK N   1      35.843  12.903  12.031  0.00  0.00    -0.350 N 
HETATM   24  H   UNK N   1      34.950  12.879  11.615  0.00  0.00     0.166 HD
BRANCH  23  25
HETATM   25  C   UNK N   1      35.750  12.980  13.448  0.00  0.00     0.071 A 
HETATM   26  C   UNK N   1      36.560  13.810  14.227  0.00  0.00     0.034 A 
HETATM   27  C   UNK N   1      36.414  13.844  15.616  0.00  0.00     0.020 A 
HETATM   28  C   UNK N   1      35.451  13.045  16.237  0.00  0.00     0.009 A 
HETATM   29  I   UNK N   1      35.218  13.101  18.325  0.00  0.00    -0.044 I 
HETATM   30  C   UNK N   1      34.637  12.213  15.470  0.00  0.00     0.062 A 
HETATM   31  C   UNK N   1      34.785  12.179  14.082  0.00  0.00     0.144 A 
HETATM   32  F   UNK N   1      33.985  11.364  13.349  0.00  0.00    -0.204 F 
ENDBRANCH  23  25
ENDBRANCH   8  23
TORSDOF 7
ENDMDL
