REMARK  8 active torsions:
REMARK  status: ('A' for Active; 'I' for Inactive)
REMARK    1  A    between atoms: C_2  and  C_14 
REMARK    2  A    between atoms: C_5  and  C_7 
REMARK       I    between atoms: C_7  and  N_9 
REMARK    3  A    between atoms: C_10  and  N_9 
REMARK    4  A    between atoms: C_10  and  C_11 
REMARK    5  A    between atoms: C_10  and  C_17 
REMARK    6  A    between atoms: C_14  and  C_15 
REMARK    7  A    between atoms: C_15  and  C_16 
REMARK    8  A    between atoms: C_17  and  O_19 
REMARK       I    between atoms: C_27  and  N_30 
ROOT
HETATM    1  C   UNK N   1      -0.300   0.336   0.891  0.00  0.00     0.008 A 
HETATM    2  C   UNK N   1      -0.255   1.699   1.157  0.00  0.00    -0.058 A 
HETATM    3  C   UNK N   1       0.879   2.443   0.782  0.00  0.00     0.008 A 
HETATM    4  C   UNK N   1       1.968   1.802   0.161  0.00  0.00     0.017 A 
HETATM    5  C   UNK N   1       1.924   0.415  -0.060  0.00  0.00     0.032 A 
HETATM    6  C   UNK N   1       0.774  -0.299   0.293  0.00  0.00     0.017 A 
ENDROOT
BRANCH   2   7
HETATM    7  C   UNK N   1      -1.367   2.294   1.962  0.00  0.00     0.043 C 
BRANCH   7   8
HETATM    8  C   UNK N   1      -2.103   3.414   1.261  0.00  0.00     0.045 C 
BRANCH   8   9
HETATM    9  C   UNK N   1      -3.365   3.069   0.513  0.00  0.00    -0.023 A 
HETATM   10  C   UNK N   1      -4.069   4.055  -0.170  0.00  0.00     0.098 A 
HETATM   11  N   UNK N   1      -5.142   3.517  -0.793  0.00  0.00    -0.350 N 
HETATM   12  C   UNK N   1      -5.118   2.208  -0.507  0.00  0.00     0.137 A 
HETATM   13  H   UNK N   1      -5.806   3.991  -1.344  0.00  0.00     0.166 HD
HETATM   14  C   UNK N   1      -4.064   1.877   0.296  0.00  0.00     0.085 A 
HETATM   15  N   UNK N   1      -6.013   1.297  -0.959  0.00  0.00    -0.176 N 
HETATM   16  C   UNK N   1      -3.924   0.539   0.691  0.00  0.00     0.274 A 
HETATM   17  O   UNK N   1      -3.038   0.178   1.435  0.00  0.00    -0.267 OA
HETATM   18  N   UNK N   1      -4.836  -0.382   0.223  0.00  0.00    -0.155 N 
HETATM   19  C   UNK N   1      -5.862  -0.008  -0.598  0.00  0.00     0.680 A 
HETATM   20  H   UNK N   1      -4.746  -1.327   0.485  0.00  0.00     0.187 HD
HETATM   21  N   UNK N   1      -6.769  -0.976  -1.074  0.00  0.00    -0.234 N 
HETATM   22  H   UNK N   1      -7.671  -0.766  -1.406  0.00  0.00     0.174 HD
HETATM   23  H   UNK N   1      -6.483  -1.918  -1.074  0.00  0.00     0.174 HD
ATOM     24  HN  UNK N   1      -6.786   1.583  -1.560  1.00  0.00     0.186 HD
ENDBRANCH   8   9
ENDBRANCH   7   8
ENDBRANCH   2   7
BRANCH   5  25
HETATM   25  C   UNK N   1       3.079  -0.356  -0.557  0.00  0.00     0.252 C 
HETATM   26  O   UNK N   1       4.079   0.202  -0.985  0.00  0.00    -0.268 OA
HETATM   27  N   UNK N   1       3.013  -1.709  -0.447  0.00  0.00    -0.342 N 
HETATM   28  H   UNK N   1       2.170  -2.058  -0.078  0.00  0.00     0.163 HD
BRANCH  27  29
HETATM   29  C   UNK N   1       3.996  -2.713  -0.792  0.00  0.00     0.186 C 
BRANCH  29  30
HETATM   30  C   UNK N   1       3.350  -4.079  -0.463  0.00  0.00     0.010 C 
HETATM   31  C   UNK N   1       4.218  -5.253  -0.880  0.00  0.00     0.012 C 
HETATM   32  C   UNK N   1       1.980  -4.239  -1.108  0.00  0.00     0.012 C 
ENDBRANCH  29  30
BRANCH  29  33
HETATM   33  C   UNK N   1       5.278  -2.514  -0.001  0.00  0.00     0.163 C 
HETATM   34  O   UNK N   1       5.963  -1.521  -0.185  0.00  0.00    -0.648 OA
BRANCH  33  35
HETATM   35  O   UNK N   1       5.685  -3.432   0.900  0.00  0.00    -0.775 OA
HETATM   36  H   UNK N   1       5.274  -3.995   1.526  0.00  0.00     0.167 HD
ENDBRANCH  33  35
ENDBRANCH  29  33
ENDBRANCH  27  29
ENDBRANCH   5  25
TORSDOF 8
