MODEL 1
REMARK VINA RESULT:      -8.2      0.000      0.000
REMARK  8 active torsions:
REMARK  status: ('A' for Active; 'I' for Inactive)
REMARK    1  A    between atoms: C_2  and  C_14 
REMARK    2  A    between atoms: C_5  and  C_7 
REMARK       I    between atoms: C_7  and  N_9 
REMARK    3  A    between atoms: C_10  and  N_9 
REMARK    4  A    between atoms: C_10  and  C_11 
REMARK    5  A    between atoms: C_10  and  C_17 
REMARK    6  A    between atoms: C_14  and  C_15 
REMARK    7  A    between atoms: C_15  and  C_16 
REMARK    8  A    between atoms: C_17  and  O_19 
REMARK       I    between atoms: C_27  and  N_30 
ROOT
HETATM    1  C   UNK N   1      36.352  13.778  12.812  0.00  0.00     0.008 A 
HETATM    2  C   UNK N   1      36.189  12.599  12.095  0.00  0.00    -0.058 A 
HETATM    3  C   UNK N   1      35.752  12.653  10.759  0.00  0.00     0.008 A 
HETATM    4  C   UNK N   1      35.463  13.895  10.162  0.00  0.00     0.017 A 
HETATM    5  C   UNK N   1      35.591  15.074  10.916  0.00  0.00     0.032 A 
HETATM    6  C   UNK N   1      36.056  14.999  12.233  0.00  0.00     0.017 A 
ENDROOT
BRANCH   2   7
HETATM    7  C   UNK N   1      36.354  11.304  12.827  0.00  0.00     0.043 C 
BRANCH   7   8
HETATM    8  C   UNK N   1      35.159  10.917  13.669  0.00  0.00     0.045 C 
BRANCH   8   9
HETATM    9  C   UNK N   1      35.385  10.653  15.136  0.00  0.00    -0.023 A 
HETATM   10  C   UNK N   1      35.832   9.408  15.565  0.00  0.00     0.098 A 
HETATM   11  N   UNK N   1      35.997   9.408  16.908  0.00  0.00    -0.350 N 
HETATM   12  C   UNK N   1      35.657  10.636  17.322  0.00  0.00     0.137 A 
HETATM   13  H   UNK N   1      36.303   8.658  17.466  0.00  0.00     0.166 HD
HETATM   14  C   UNK N   1      35.264  11.437  16.288  0.00  0.00     0.085 A 
HETATM   15  N   UNK N   1      35.703  11.064  18.607  0.00  0.00    -0.176 N 
HETATM   16  C   UNK N   1      34.862  12.749  16.578  0.00  0.00     0.274 A 
HETATM   17  O   UNK N   1      34.462  13.503  15.719  0.00  0.00    -0.267 OA
HETATM   18  N   UNK N   1      34.916  13.176  17.887  0.00  0.00    -0.155 N 
HETATM   19  C   UNK N   1      35.339  12.346  18.886  0.00  0.00     0.680 A 
HETATM   20  H   UNK N   1      34.645  14.098  18.106  0.00  0.00     0.187 HD
HETATM   21  N   UNK N   1      35.399  12.818  20.213  0.00  0.00    -0.234 N 
HETATM   22  H   UNK N   1      35.400  12.233  21.004  0.00  0.00     0.174 HD
HETATM   23  H   UNK N   1      35.442  13.791  20.357  0.00  0.00     0.174 HD
ATOM     24  HN  UNK N   1      36.005  10.436  19.352  1.00  0.00     0.186 HD
ENDBRANCH   8   9
ENDBRANCH   7   8
ENDBRANCH   2   7
BRANCH   5  25
HETATM   25  C   UNK N   1      35.159  16.395  10.420  0.00  0.00     0.252 C 
HETATM   26  O   UNK N   1      35.783  17.410  10.691  0.00  0.00    -0.268 OA
HETATM   27  N   UNK N   1      34.084  16.422   9.589  0.00  0.00    -0.342 N 
HETATM   28  H   UNK N   1      33.660  15.549   9.424  0.00  0.00     0.163 HD
BRANCH  27  29
HETATM   29  C   UNK N   1      33.468  17.542   8.911  0.00  0.00     0.186 C 
BRANCH  29  30
HETATM   30  C   UNK N   1      32.281  16.960   8.108  0.00  0.00     0.010 C 
HETATM   31  C   UNK N   1      30.978  17.690   8.379  0.00  0.00     0.012 C 
HETATM   32  C   UNK N   1      32.070  15.478   8.385  0.00  0.00     0.012 C 
ENDBRANCH  29  30
BRANCH  29  33
HETATM   33  C   UNK N   1      34.460  18.232   7.989  0.00  0.00     0.163 C 
HETATM   34  O   UNK N   1      34.543  17.898   6.819  0.00  0.00    -0.648 OA
BRANCH  33  35
HETATM   35  O   UNK N   1      35.270  19.208   8.450  0.00  0.00    -0.775 OA
HETATM   36  H   UNK N   1      36.122  19.537   8.240  0.00  0.00     0.167 HD
ENDBRANCH  33  35
ENDBRANCH  29  33
ENDBRANCH  27  29
ENDBRANCH   5  25
TORSDOF 8
ENDMDL
MODEL 2
REMARK VINA RESULT:      -8.1      8.261     14.647
REMARK  8 active torsions:
REMARK  status: ('A' for Active; 'I' for Inactive)
REMARK    1  A    between atoms: C_2  and  C_14 
REMARK    2  A    between atoms: C_5  and  C_7 
REMARK       I    between atoms: C_7  and  N_9 
REMARK    3  A    between atoms: C_10  and  N_9 
REMARK    4  A    between atoms: C_10  and  C_11 
REMARK    5  A    between atoms: C_10  and  C_17 
REMARK    6  A    between atoms: C_14  and  C_15 
REMARK    7  A    between atoms: C_15  and  C_16 
REMARK    8  A    between atoms: C_17  and  O_19 
REMARK       I    between atoms: C_27  and  N_30 
ROOT
HETATM    1  C   UNK N   1      27.206  19.468   6.046  0.00  0.00     0.008 A 
HETATM    2  C   UNK N   1      27.362  18.969   4.759  0.00  0.00    -0.058 A 
HETATM    3  C   UNK N   1      28.353  18.003   4.504  0.00  0.00     0.008 A 
HETATM    4  C   UNK N   1      29.192  17.563   5.545  0.00  0.00     0.017 A 
HETATM    5  C   UNK N   1      29.049  18.111   6.831  0.00  0.00     0.032 A 
HETATM    6  C   UNK N   1      28.038  19.047   7.068  0.00  0.00     0.017 A 
ENDROOT
BRANCH   2   7
HETATM    7  C   UNK N   1      26.554  19.590   3.663  0.00  0.00     0.043 C 
BRANCH   7   8
HETATM    8  C   UNK N   1      25.196  20.085   4.105  0.00  0.00     0.045 C 
BRANCH   8   9
HETATM    9  C   UNK N   1      24.018  19.160   3.937  0.00  0.00    -0.023 A 
HETATM   10  C   UNK N   1      24.107  17.831   4.337  0.00  0.00     0.098 A 
HETATM   11  N   UNK N   1      22.929  17.200   4.126  0.00  0.00    -0.350 N 
HETATM   12  C   UNK N   1      22.107  18.117   3.598  0.00  0.00     0.137 A 
HETATM   13  H   UNK N   1      22.720  16.257   4.320  0.00  0.00     0.166 HD
HETATM   14  C   UNK N   1      22.719  19.329   3.448  0.00  0.00     0.085 A 
HETATM   15  N   UNK N   1      20.814  17.898   3.258  0.00  0.00    -0.176 N 
HETATM   16  C   UNK N   1      21.980  20.381   2.888  0.00  0.00     0.274 A 
HETATM   17  O   UNK N   1      22.468  21.472   2.687  0.00  0.00    -0.267 OA
HETATM   18  N   UNK N   1      20.664  20.151   2.549  0.00  0.00    -0.155 N 
HETATM   19  C   UNK N   1      20.088  18.927   2.740  0.00  0.00     0.680 A 
HETATM   20  H   UNK N   1      20.130  20.883   2.163  0.00  0.00     0.187 HD
HETATM   21  N   UNK N   1      18.735  18.728   2.399  0.00  0.00    -0.234 N 
HETATM   22  H   UNK N   1      18.338  17.845   2.224  0.00  0.00     0.174 HD
HETATM   23  H   UNK N   1      18.153  19.519   2.330  0.00  0.00     0.174 HD
ATOM     24  HN  UNK N   1      20.392  16.978   3.388  1.00  0.00     0.186 HD
ENDBRANCH   8   9
ENDBRANCH   7   8
ENDBRANCH   2   7
BRANCH   5  25
HETATM   25  C   UNK N   1      29.985  17.824   7.935  0.00  0.00     0.252 C 
HETATM   26  O   UNK N   1      29.640  17.924   9.103  0.00  0.00    -0.268 OA
HETATM   27  N   UNK N   1      31.221  17.371   7.596  0.00  0.00    -0.342 N 
HETATM   28  H   UNK N   1      31.395  17.315   6.629  0.00  0.00     0.163 HD
BRANCH  27  29
HETATM   29  C   UNK N   1      32.319  16.961   8.444  0.00  0.00     0.186 C 
BRANCH  29  30
HETATM   30  C   UNK N   1      33.608  17.189   7.620  0.00  0.00     0.010 C 
HETATM   31  C   UNK N   1      34.460  18.320   8.168  0.00  0.00     0.012 C 
HETATM   32  C   UNK N   1      33.312  17.475   6.154  0.00  0.00     0.012 C 
ENDBRANCH  29  30
BRANCH  29  33
HETATM   33  C   UNK N   1      32.182  15.501   8.844  0.00  0.00     0.163 C 
HETATM   34  O   UNK N   1      32.158  14.632   7.988  0.00  0.00    -0.648 OA
BRANCH  33  35
HETATM   35  O   UNK N   1      32.069  15.147  10.141  0.00  0.00    -0.775 OA
HETATM   36  H   UNK N   1      32.189  14.364  10.642  0.00  0.00     0.167 HD
ENDBRANCH  33  35
ENDBRANCH  29  33
ENDBRANCH  27  29
ENDBRANCH   5  25
TORSDOF 8
ENDMDL
MODEL 3
REMARK VINA RESULT:      -8.0      1.566      2.341
REMARK  8 active torsions:
REMARK  status: ('A' for Active; 'I' for Inactive)
REMARK    1  A    between atoms: C_2  and  C_14 
REMARK    2  A    between atoms: C_5  and  C_7 
REMARK       I    between atoms: C_7  and  N_9 
REMARK    3  A    between atoms: C_10  and  N_9 
REMARK    4  A    between atoms: C_10  and  C_11 
REMARK    5  A    between atoms: C_10  and  C_17 
REMARK    6  A    between atoms: C_14  and  C_15 
REMARK    7  A    between atoms: C_15  and  C_16 
REMARK    8  A    between atoms: C_17  and  O_19 
REMARK       I    between atoms: C_27  and  N_30 
ROOT
HETATM    1  C   UNK N   1      36.362  14.684  13.461  0.00  0.00     0.008 A 
HETATM    2  C   UNK N   1      35.755  13.438  13.370  0.00  0.00    -0.058 A 
HETATM    3  C   UNK N   1      34.941  13.141  12.261  0.00  0.00     0.008 A 
HETATM    4  C   UNK N   1      34.729  14.111  11.263  0.00  0.00     0.017 A 
HETATM    5  C   UNK N   1      35.315  15.382  11.394  0.00  0.00     0.032 A 
HETATM    6  C   UNK N   1      36.145  15.644  12.489  0.00  0.00     0.017 A 
ENDROOT
BRANCH   2   7
HETATM    7  C   UNK N   1      35.884  12.507  14.534  0.00  0.00     0.043 C 
BRANCH   7   8
HETATM    8  C   UNK N   1      34.711  12.551  15.489  0.00  0.00     0.045 C 
BRANCH   8   9
HETATM    9  C   UNK N   1      35.005  12.682  16.961  0.00  0.00    -0.023 A 
HETATM   10  C   UNK N   1      35.159  13.939  17.538  0.00  0.00     0.098 A 
HETATM   11  N   UNK N   1      35.381  13.819  18.867  0.00  0.00    -0.350 N 
HETATM   12  C   UNK N   1      35.369  12.505  19.127  0.00  0.00     0.137 A 
HETATM   13  H   UNK N   1      35.523  14.550  19.511  0.00  0.00     0.166 HD
HETATM   14  C   UNK N   1      35.156  11.760  18.002  0.00  0.00     0.085 A 
HETATM   15  N   UNK N   1      35.532  11.954  20.354  0.00  0.00    -0.176 N 
HETATM   16  C   UNK N   1      35.137  10.364  18.124  0.00  0.00     0.274 A 
HETATM   17  O   UNK N   1      34.994   9.637  17.164  0.00  0.00    -0.267 OA
HETATM   18  N   UNK N   1      35.299   9.812  19.376  0.00  0.00    -0.155 N 
HETATM   19  C   UNK N   1      35.486  10.598  20.477  0.00  0.00     0.680 A 
HETATM   20  H   UNK N   1      35.279   8.832  19.478  0.00  0.00     0.187 HD
HETATM   21  N   UNK N   1      35.632  10.005  21.747  0.00  0.00    -0.234 N 
HETATM   22  H   UNK N   1      36.054  10.451  22.516  0.00  0.00     0.174 HD
HETATM   23  H   UNK N   1      35.292   9.089  21.872  0.00  0.00     0.174 HD
ATOM     24  HN  UNK N   1      35.686  12.545  21.171  1.00  0.00     0.186 HD
ENDBRANCH   8   9
ENDBRANCH   7   8
ENDBRANCH   2   7
BRANCH   5  25
HETATM   25  C   UNK N   1      35.018  16.501  10.481  0.00  0.00     0.252 C 
HETATM   26  O   UNK N   1      35.701  17.515  10.473  0.00  0.00    -0.268 OA
HETATM   27  N   UNK N   1      33.999  16.325   9.598  0.00  0.00    -0.342 N 
HETATM   28  H   UNK N   1      33.520  15.470   9.677  0.00  0.00     0.163 HD
BRANCH  27  29
HETATM   29  C   UNK N   1      33.515  17.208   8.559  0.00  0.00     0.186 C 
BRANCH  29  30
HETATM   30  C   UNK N   1      32.041  16.810   8.309  0.00  0.00     0.010 C 
HETATM   31  C   UNK N   1      31.067  17.918   8.667  0.00  0.00     0.012 C 
HETATM   32  C   UNK N   1      31.646  15.554   9.073  0.00  0.00     0.012 C 
ENDBRANCH  29  30
BRANCH  29  33
HETATM   33  C   UNK N   1      34.339  17.060   7.291  0.00  0.00     0.163 C 
HETATM   34  O   UNK N   1      35.033  16.070   7.123  0.00  0.00    -0.648 OA
BRANCH  33  35
HETATM   35  O   UNK N   1      34.330  18.021   6.344  0.00  0.00    -0.775 OA
HETATM   36  H   UNK N   1      33.932  18.862   6.236  0.00  0.00     0.167 HD
ENDBRANCH  33  35
ENDBRANCH  29  33
ENDBRANCH  27  29
ENDBRANCH   5  25
TORSDOF 8
ENDMDL
MODEL 4
REMARK VINA RESULT:      -7.8      7.755     12.643
REMARK  8 active torsions:
REMARK  status: ('A' for Active; 'I' for Inactive)
REMARK    1  A    between atoms: C_2  and  C_14 
REMARK    2  A    between atoms: C_5  and  C_7 
REMARK       I    between atoms: C_7  and  N_9 
REMARK    3  A    between atoms: C_10  and  N_9 
REMARK    4  A    between atoms: C_10  and  C_11 
REMARK    5  A    between atoms: C_10  and  C_17 
REMARK    6  A    between atoms: C_14  and  C_15 
REMARK    7  A    between atoms: C_15  and  C_16 
REMARK    8  A    between atoms: C_17  and  O_19 
REMARK       I    between atoms: C_27  and  N_30 
ROOT
HETATM    1  C   UNK N   1      26.632  16.941   3.969  0.00  0.00     0.008 A 
HETATM    2  C   UNK N   1      27.845  17.595   4.143  0.00  0.00    -0.058 A 
HETATM    3  C   UNK N   1      27.871  19.000   4.227  0.00  0.00     0.008 A 
HETATM    4  C   UNK N   1      26.675  19.734   4.113  0.00  0.00     0.017 A 
HETATM    5  C   UNK N   1      25.463  19.058   3.893  0.00  0.00     0.032 A 
HETATM    6  C   UNK N   1      25.456  17.660   3.844  0.00  0.00     0.017 A 
ENDROOT
BRANCH   2   7
HETATM    7  C   UNK N   1      29.097  16.778   4.094  0.00  0.00     0.043 C 
BRANCH   7   8
HETATM    8  C   UNK N   1      30.319  17.492   4.626  0.00  0.00     0.045 C 
BRANCH   8   9
HETATM    9  C   UNK N   1      30.644  17.339   6.090  0.00  0.00    -0.023 A 
HETATM   10  C   UNK N   1      29.633  17.085   7.011  0.00  0.00     0.098 A 
HETATM   11  N   UNK N   1      30.154  16.952   8.252  0.00  0.00    -0.350 N 
HETATM   12  C   UNK N   1      31.477  17.120   8.118  0.00  0.00     0.137 A 
HETATM   13  H   UNK N   1      29.661  16.769   9.084  0.00  0.00     0.166 HD
HETATM   14  C   UNK N   1      31.834  17.371   6.824  0.00  0.00     0.085 A 
HETATM   15  N   UNK N   1      32.376  17.042   9.128  0.00  0.00    -0.176 N 
HETATM   16  C   UNK N   1      33.190  17.586   6.539  0.00  0.00     0.274 A 
HETATM   17  O   UNK N   1      33.577  17.855   5.422  0.00  0.00    -0.267 OA
HETATM   18  N   UNK N   1      34.099  17.501   7.571  0.00  0.00    -0.155 N 
HETATM   19  C   UNK N   1      33.697  17.224   8.847  0.00  0.00     0.680 A 
HETATM   20  H   UNK N   1      35.056  17.641   7.385  0.00  0.00     0.187 HD
HETATM   21  N   UNK N   1      34.652  17.126   9.878  0.00  0.00    -0.234 N 
HETATM   22  H   UNK N   1      34.440  17.227  10.834  0.00  0.00     0.174 HD
HETATM   23  H   UNK N   1      35.587  16.946   9.628  0.00  0.00     0.174 HD
ATOM     24  HN  UNK N   1      32.070  16.850  10.082  1.00  0.00     0.186 HD
ENDBRANCH   8   9
ENDBRANCH   7   8
ENDBRANCH   2   7
BRANCH   5  25
HETATM   25  C   UNK N   1      24.195  19.756   3.606  0.00  0.00     0.252 C 
HETATM   26  O   UNK N   1      24.173  20.946   3.329  0.00  0.00    -0.268 OA
HETATM   27  N   UNK N   1      23.064  19.002   3.588  0.00  0.00    -0.342 N 
HETATM   28  H   UNK N   1      23.192  18.052   3.812  0.00  0.00     0.163 HD
BRANCH  27  29
HETATM   29  C   UNK N   1      21.702  19.386   3.289  0.00  0.00     0.186 C 
BRANCH  29  30
HETATM   30  C   UNK N   1      21.008  18.119   2.737  0.00  0.00     0.010 C 
HETATM   31  C   UNK N   1      19.529  18.067   3.075  0.00  0.00     0.012 C 
HETATM   32  C   UNK N   1      21.664  16.839   3.236  0.00  0.00     0.012 C 
ENDBRANCH  29  30
BRANCH  29  33
HETATM   33  C   UNK N   1      21.666  20.513   2.271  0.00  0.00     0.163 C 
HETATM   34  O   UNK N   1      21.708  20.262   1.078  0.00  0.00    -0.648 OA
BRANCH  33  35
HETATM   35  O   UNK N   1      21.602  21.802   2.666  0.00  0.00    -0.775 OA
HETATM   36  H   UNK N   1      21.819  22.284   3.439  0.00  0.00     0.167 HD
ENDBRANCH  33  35
ENDBRANCH  29  33
ENDBRANCH  27  29
ENDBRANCH   5  25
TORSDOF 8
ENDMDL
MODEL 5
REMARK VINA RESULT:      -7.7      4.356      7.445
REMARK  8 active torsions:
REMARK  status: ('A' for Active; 'I' for Inactive)
REMARK    1  A    between atoms: C_2  and  C_14 
REMARK    2  A    between atoms: C_5  and  C_7 
REMARK       I    between atoms: C_7  and  N_9 
REMARK    3  A    between atoms: C_10  and  N_9 
REMARK    4  A    between atoms: C_10  and  C_11 
REMARK    5  A    between atoms: C_10  and  C_17 
REMARK    6  A    between atoms: C_14  and  C_15 
REMARK    7  A    between atoms: C_15  and  C_16 
REMARK    8  A    between atoms: C_17  and  O_19 
REMARK       I    between atoms: C_27  and  N_30 
ROOT
HETATM    1  C   UNK N   1      30.918  16.008   6.552  0.00  0.00     0.008 A 
HETATM    2  C   UNK N   1      32.010  16.327   7.350  0.00  0.00    -0.058 A 
HETATM    3  C   UNK N   1      31.886  17.333   8.326  0.00  0.00     0.008 A 
HETATM    4  C   UNK N   1      30.669  18.026   8.474  0.00  0.00     0.017 A 
HETATM    5  C   UNK N   1      29.590  17.721   7.627  0.00  0.00     0.032 A 
HETATM    6  C   UNK N   1      29.725  16.696   6.685  0.00  0.00     0.017 A 
ENDROOT
BRANCH   2   7
HETATM    7  C   UNK N   1      33.320  15.675   7.040  0.00  0.00     0.043 C 
BRANCH   7   8
HETATM    8  C   UNK N   1      34.376  15.880   8.104  0.00  0.00     0.045 C 
BRANCH   8   9
HETATM    9  C   UNK N   1      34.453  14.875   9.224  0.00  0.00    -0.023 A 
HETATM   10  C   UNK N   1      33.735  13.686   9.153  0.00  0.00     0.098 A 
HETATM   11  N   UNK N   1      33.979  12.926  10.244  0.00  0.00    -0.350 N 
HETATM   12  C   UNK N   1      34.839  13.625  10.997  0.00  0.00     0.137 A 
HETATM   13  H   UNK N   1      33.601  12.039  10.445  0.00  0.00     0.166 HD
HETATM   14  C   UNK N   1      35.156  14.828  10.433  0.00  0.00     0.085 A 
HETATM   15  N   UNK N   1      35.359  13.206  12.176  0.00  0.00    -0.176 N 
HETATM   16  C   UNK N   1      36.035  15.675  11.122  0.00  0.00     0.274 A 
HETATM   17  O   UNK N   1      36.330  16.773  10.704  0.00  0.00    -0.267 OA
HETATM   18  N   UNK N   1      36.563  15.239  12.318  0.00  0.00    -0.155 N 
HETATM   19  C   UNK N   1      36.235  14.017  12.834  0.00  0.00     0.680 A 
HETATM   20  H   UNK N   1      37.188  15.820  12.810  0.00  0.00     0.187 HD
HETATM   21  N   UNK N   1      36.804  13.592  14.051  0.00  0.00    -0.234 N 
HETATM   22  H   UNK N   1      36.415  12.894  14.624  0.00  0.00     0.174 HD
HETATM   23  H   UNK N   1      37.641  14.020  14.345  0.00  0.00     0.174 HD
ATOM     24  HN  UNK N   1      35.100  12.299  12.564  1.00  0.00     0.186 HD
ENDBRANCH   8   9
ENDBRANCH   7   8
ENDBRANCH   2   7
BRANCH   5  25
HETATM   25  C   UNK N   1      28.339  18.503   7.609  0.00  0.00     0.252 C 
HETATM   26  O   UNK N   1      27.794  18.854   8.646  0.00  0.00    -0.268 OA
HETATM   27  N   UNK N   1      27.862  18.879   6.393  0.00  0.00    -0.342 N 
HETATM   28  H   UNK N   1      28.381  18.555   5.622  0.00  0.00     0.163 HD
BRANCH  27  29
HETATM   29  C   UNK N   1      26.706  19.683   6.063  0.00  0.00     0.186 C 
BRANCH  29  30
HETATM   30  C   UNK N   1      26.784  19.945   4.541  0.00  0.00     0.010 C 
HETATM   31  C   UNK N   1      25.420  20.177   3.915  0.00  0.00     0.012 C 
HETATM   32  C   UNK N   1      27.470  18.809   3.795  0.00  0.00     0.012 C 
ENDBRANCH  29  30
BRANCH  29  33
HETATM   33  C   UNK N   1      26.711  20.989   6.839  0.00  0.00     0.163 C 
HETATM   34  O   UNK N   1      27.380  21.931   6.448  0.00  0.00    -0.648 OA
BRANCH  33  35
HETATM   35  O   UNK N   1      25.993  21.123   7.974  0.00  0.00    -0.775 OA
HETATM   36  H   UNK N   1      25.657  21.834   8.483  0.00  0.00     0.167 HD
ENDBRANCH  33  35
ENDBRANCH  29  33
ENDBRANCH  27  29
ENDBRANCH   5  25
TORSDOF 8
ENDMDL
MODEL 6
REMARK VINA RESULT:      -7.6      4.472     10.562
REMARK  8 active torsions:
REMARK  status: ('A' for Active; 'I' for Inactive)
REMARK    1  A    between atoms: C_2  and  C_14 
REMARK    2  A    between atoms: C_5  and  C_7 
REMARK       I    between atoms: C_7  and  N_9 
REMARK    3  A    between atoms: C_10  and  N_9 
REMARK    4  A    between atoms: C_10  and  C_11 
REMARK    5  A    between atoms: C_10  and  C_17 
REMARK    6  A    between atoms: C_14  and  C_15 
REMARK    7  A    between atoms: C_15  and  C_16 
REMARK    8  A    between atoms: C_17  and  O_19 
REMARK       I    between atoms: C_27  and  N_30 
ROOT
HETATM    1  C   UNK N   1      32.855  15.519   7.175  0.00  0.00     0.008 A 
HETATM    2  C   UNK N   1      32.281  16.746   6.863  0.00  0.00    -0.058 A 
HETATM    3  C   UNK N   1      32.733  17.910   7.512  0.00  0.00     0.008 A 
HETATM    4  C   UNK N   1      33.746  17.824   8.486  0.00  0.00     0.017 A 
HETATM    5  C   UNK N   1      34.285  16.570   8.821  0.00  0.00     0.032 A 
HETATM    6  C   UNK N   1      33.842  15.431   8.141  0.00  0.00     0.017 A 
ENDROOT
BRANCH   2   7
HETATM    7  C   UNK N   1      31.101  16.754   5.943  0.00  0.00     0.043 C 
BRANCH   7   8
HETATM    8  C   UNK N   1      29.811  16.308   6.593  0.00  0.00     0.045 C 
BRANCH   8   9
HETATM    9  C   UNK N   1      28.968  17.352   7.278  0.00  0.00    -0.023 A 
HETATM   10  C   UNK N   1      28.780  17.311   8.656  0.00  0.00     0.098 A 
HETATM   11  N   UNK N   1      28.023  18.358   9.056  0.00  0.00    -0.350 N 
HETATM   12  C   UNK N   1      27.735  19.052   7.947  0.00  0.00     0.137 A 
HETATM   13  H   UNK N   1      27.741  18.567   9.976  0.00  0.00     0.166 HD
HETATM   14  C   UNK N   1      28.274  18.480   6.829  0.00  0.00     0.085 A 
HETATM   15  N   UNK N   1      27.009  20.195   7.912  0.00  0.00    -0.176 N 
HETATM   16  C   UNK N   1      28.037  19.092   5.590  0.00  0.00     0.274 A 
HETATM   17  O   UNK N   1      28.448  18.621   4.552  0.00  0.00    -0.267 OA
HETATM   18  N   UNK N   1      27.301  20.257   5.564  0.00  0.00    -0.155 N 
HETATM   19  C   UNK N   1      26.801  20.805   6.711  0.00  0.00     0.680 A 
HETATM   20  H   UNK N   1      27.133  20.703   4.702  0.00  0.00     0.187 HD
HETATM   21  N   UNK N   1      26.067  22.006   6.654  0.00  0.00    -0.234 N 
HETATM   22  H   UNK N   1      25.440  22.300   7.353  0.00  0.00     0.174 HD
HETATM   23  H   UNK N   1      26.188  22.586   5.867  0.00  0.00     0.174 HD
ATOM     24  HN  UNK N   1      26.625  20.592   8.769  1.00  0.00     0.186 HD
ENDBRANCH   8   9
ENDBRANCH   7   8
ENDBRANCH   2   7
BRANCH   5  25
HETATM   25  C   UNK N   1      35.231  16.374   9.936  0.00  0.00     0.252 C 
HETATM   26  O   UNK N   1      35.636  17.318  10.599  0.00  0.00    -0.268 OA
HETATM   27  N   UNK N   1      35.570  15.094  10.241  0.00  0.00    -0.342 N 
HETATM   28  H   UNK N   1      35.180  14.407   9.654  0.00  0.00     0.163 HD
BRANCH  27  29
HETATM   29  C   UNK N   1      36.420  14.590  11.298  0.00  0.00     0.186 C 
BRANCH  29  30
HETATM   30  C   UNK N   1      37.140  13.351  10.718  0.00  0.00     0.010 C 
HETATM   31  C   UNK N   1      38.412  13.710   9.969  0.00  0.00     0.012 C 
HETATM   32  C   UNK N   1      36.243  12.546   9.787  0.00  0.00     0.012 C 
ENDBRANCH  29  30
BRANCH  29  33
HETATM   33  C   UNK N   1      35.602  14.219  12.523  0.00  0.00     0.163 C 
HETATM   34  O   UNK N   1      36.081  14.340  13.639  0.00  0.00    -0.648 OA
BRANCH  33  35
HETATM   35  O   UNK N   1      34.347  13.739  12.399  0.00  0.00    -0.775 OA
HETATM   36  H   UNK N   1      33.742  13.600  11.697  0.00  0.00     0.167 HD
ENDBRANCH  33  35
ENDBRANCH  29  33
ENDBRANCH  27  29
ENDBRANCH   5  25
TORSDOF 8
ENDMDL
MODEL 7
REMARK VINA RESULT:      -7.4      4.355     10.334
REMARK  8 active torsions:
REMARK  status: ('A' for Active; 'I' for Inactive)
REMARK    1  A    between atoms: C_2  and  C_14 
REMARK    2  A    between atoms: C_5  and  C_7 
REMARK       I    between atoms: C_7  and  N_9 
REMARK    3  A    between atoms: C_10  and  N_9 
REMARK    4  A    between atoms: C_10  and  C_11 
REMARK    5  A    between atoms: C_10  and  C_17 
REMARK    6  A    between atoms: C_14  and  C_15 
REMARK    7  A    between atoms: C_15  and  C_16 
REMARK    8  A    between atoms: C_17  and  O_19 
REMARK       I    between atoms: C_27  and  N_30 
ROOT
HETATM    1  C   UNK N   1      31.860  15.780   8.643  0.00  0.00     0.008 A 
HETATM    2  C   UNK N   1      31.605  16.979   7.990  0.00  0.00    -0.058 A 
HETATM    3  C   UNK N   1      32.596  17.979   7.960  0.00  0.00     0.008 A 
HETATM    4  C   UNK N   1      33.828  17.768   8.608  0.00  0.00     0.017 A 
HETATM    5  C   UNK N   1      34.052  16.567   9.301  0.00  0.00     0.032 A 
HETATM    6  C   UNK N   1      33.065  15.576   9.292  0.00  0.00     0.017 A 
ENDROOT
BRANCH   2   7
HETATM    7  C   UNK N   1      30.225  17.211   7.461  0.00  0.00     0.043 C 
BRANCH   7   8
HETATM    8  C   UNK N   1      29.883  16.374   6.248  0.00  0.00     0.045 C 
BRANCH   8   9
HETATM    9  C   UNK N   1      30.816  16.429   5.066  0.00  0.00    -0.023 A 
HETATM   10  C   UNK N   1      30.914  17.587   4.302  0.00  0.00     0.098 A 
HETATM   11  N   UNK N   1      31.830  17.424   3.321  0.00  0.00    -0.350 N 
HETATM   12  C   UNK N   1      32.305  16.179   3.462  0.00  0.00     0.137 A 
HETATM   13  H   UNK N   1      32.094  18.086   2.641  0.00  0.00     0.166 HD
HETATM   14  C   UNK N   1      31.715  15.519   4.502  0.00  0.00     0.085 A 
HETATM   15  N   UNK N   1      33.266  15.621   2.686  0.00  0.00    -0.176 N 
HETATM   16  C   UNK N   1      32.104  14.196   4.755  0.00  0.00     0.274 A 
HETATM   17  O   UNK N   1      31.596  13.534   5.634  0.00  0.00    -0.267 OA
HETATM   18  N   UNK N   1      33.085  13.637   3.965  0.00  0.00    -0.155 N 
HETATM   19  C   UNK N   1      33.663  14.345   2.949  0.00  0.00     0.680 A 
HETATM   20  H   UNK N   1      33.374  12.712   4.136  0.00  0.00     0.187 HD
HETATM   21  N   UNK N   1      34.676  13.752   2.168  0.00  0.00    -0.234 N 
HETATM   22  H   UNK N   1      34.925  14.059   1.268  0.00  0.00     0.174 HD
HETATM   23  H   UNK N   1      35.163  12.984   2.547  0.00  0.00     0.174 HD
ATOM     24  HN  UNK N   1      33.684  16.147   1.920  1.00  0.00     0.186 HD
ENDBRANCH   8   9
ENDBRANCH   7   8
ENDBRANCH   2   7
BRANCH   5  25
HETATM   25  C   UNK N   1      35.246  16.332  10.135  0.00  0.00     0.252 C 
HETATM   26  O   UNK N   1      35.941  17.259  10.526  0.00  0.00    -0.268 OA
HETATM   27  N   UNK N   1      35.494  15.050  10.512  0.00  0.00    -0.342 N 
HETATM   28  H   UNK N   1      34.869  14.380  10.154  0.00  0.00     0.163 HD
BRANCH  27  29
HETATM   29  C   UNK N   1      36.542  14.523  11.360  0.00  0.00     0.186 C 
BRANCH  29  30
HETATM   30  C   UNK N   1      36.964  13.174  10.734  0.00  0.00     0.010 C 
HETATM   31  C   UNK N   1      38.455  13.098  10.457  0.00  0.00     0.012 C 
HETATM   32  C   UNK N   1      36.218  12.880   9.439  0.00  0.00     0.012 C 
ENDBRANCH  29  30
BRANCH  29  33
HETATM   33  C   UNK N   1      36.045  14.330  12.783  0.00  0.00     0.163 C 
HETATM   34  O   UNK N   1      34.930  13.875  12.985  0.00  0.00    -0.648 OA
BRANCH  33  35
HETATM   35  O   UNK N   1      36.815  14.669  13.837  0.00  0.00    -0.775 OA
HETATM   36  H   UNK N   1      37.728  14.641  14.045  0.00  0.00     0.167 HD
ENDBRANCH  33  35
ENDBRANCH  29  33
ENDBRANCH  27  29
ENDBRANCH   5  25
TORSDOF 8
ENDMDL
MODEL 8
REMARK VINA RESULT:      -7.4      8.131     12.135
REMARK  8 active torsions:
REMARK  status: ('A' for Active; 'I' for Inactive)
REMARK    1  A    between atoms: C_2  and  C_14 
REMARK    2  A    between atoms: C_5  and  C_7 
REMARK       I    between atoms: C_7  and  N_9 
REMARK    3  A    between atoms: C_10  and  N_9 
REMARK    4  A    between atoms: C_10  and  C_11 
REMARK    5  A    between atoms: C_10  and  C_17 
REMARK    6  A    between atoms: C_14  and  C_15 
REMARK    7  A    between atoms: C_15  and  C_16 
REMARK    8  A    between atoms: C_17  and  O_19 
REMARK       I    between atoms: C_27  and  N_30 
ROOT
HETATM    1  C   UNK N   1      26.054  15.228   6.909  0.00  0.00     0.008 A 
HETATM    2  C   UNK N   1      26.757  14.732   5.818  0.00  0.00    -0.058 A 
HETATM    3  C   UNK N   1      26.544  13.406   5.398  0.00  0.00     0.008 A 
HETATM    4  C   UNK N   1      25.639  12.583   6.096  0.00  0.00     0.017 A 
HETATM    5  C   UNK N   1      24.971  13.087   7.225  0.00  0.00     0.032 A 
HETATM    6  C   UNK N   1      25.175  14.418   7.605  0.00  0.00     0.017 A 
ENDROOT
BRANCH   2   7
HETATM    7  C   UNK N   1      27.820  15.596   5.217  0.00  0.00     0.043 C 
BRANCH   7   8
HETATM    8  C   UNK N   1      28.490  16.525   6.205  0.00  0.00     0.045 C 
BRANCH   8   9
HETATM    9  C   UNK N   1      29.959  16.806   6.025  0.00  0.00    -0.023 A 
HETATM   10  C   UNK N   1      30.535  16.753   4.760  0.00  0.00     0.098 A 
HETATM   11  N   UNK N   1      31.848  17.071   4.830  0.00  0.00    -0.350 N 
HETATM   12  C   UNK N   1      32.099  17.321   6.122  0.00  0.00     0.137 A 
HETATM   13  H   UNK N   1      32.488  17.110   4.083  0.00  0.00     0.166 HD
HETATM   14  C   UNK N   1      30.989  17.163   6.902  0.00  0.00     0.085 A 
HETATM   15  N   UNK N   1      33.301  17.699   6.621  0.00  0.00    -0.176 N 
HETATM   16  C   UNK N   1      31.110  17.375   8.282  0.00  0.00     0.274 A 
HETATM   17  O   UNK N   1      30.179  17.215   9.041  0.00  0.00    -0.267 OA
HETATM   18  N   UNK N   1      32.335  17.764   8.781  0.00  0.00    -0.155 N 
HETATM   19  C   UNK N   1      33.413  17.932   7.959  0.00  0.00     0.680 A 
HETATM   20  H   UNK N   1      32.434  17.925   9.747  0.00  0.00     0.187 HD
HETATM   21  N   UNK N   1      34.648  18.347   8.496  0.00  0.00    -0.234 N 
HETATM   22  H   UNK N   1      35.514  18.207   8.052  0.00  0.00     0.174 HD
HETATM   23  H   UNK N   1      34.643  18.803   9.369  0.00  0.00     0.174 HD
ATOM     24  HN  UNK N   1      34.107  17.809   6.006  1.00  0.00     0.186 HD
ENDBRANCH   8   9
ENDBRANCH   7   8
ENDBRANCH   2   7
BRANCH   5  25
HETATM   25  C   UNK N   1      24.132  12.249   8.102  0.00  0.00     0.252 C 
HETATM   26  O   UNK N   1      23.885  11.085   7.822  0.00  0.00    -0.268 OA
HETATM   27  N   UNK N   1      23.712  12.802   9.270  0.00  0.00    -0.342 N 
HETATM   28  H   UNK N   1      23.975  13.741   9.406  0.00  0.00     0.163 HD
BRANCH  27  29
HETATM   29  C   UNK N   1      22.935  12.219  10.342  0.00  0.00     0.186 C 
BRANCH  29  30
HETATM   30  C   UNK N   1      21.748  13.180  10.585  0.00  0.00     0.010 C 
HETATM   31  C   UNK N   1      20.476  12.451  10.983  0.00  0.00     0.012 C 
HETATM   32  C   UNK N   1      21.447  14.044   9.368  0.00  0.00     0.012 C 
ENDBRANCH  29  30
BRANCH  29  33
HETATM   33  C   UNK N   1      23.774  12.064  11.600  0.00  0.00     0.163 C 
HETATM   34  O   UNK N   1      23.242  11.765  12.657  0.00  0.00    -0.648 OA
BRANCH  33  35
HETATM   35  O   UNK N   1      25.107  12.266  11.572  0.00  0.00    -0.775 OA
HETATM   36  H   UNK N   1      25.833  12.076  12.133  0.00  0.00     0.167 HD
ENDBRANCH  33  35
ENDBRANCH  29  33
ENDBRANCH  27  29
ENDBRANCH   5  25
TORSDOF 8
ENDMDL
MODEL 9
REMARK VINA RESULT:      -7.3      4.338     10.758
REMARK  8 active torsions:
REMARK  status: ('A' for Active; 'I' for Inactive)
REMARK    1  A    between atoms: C_2  and  C_14 
REMARK    2  A    between atoms: C_5  and  C_7 
REMARK       I    between atoms: C_7  and  N_9 
REMARK    3  A    between atoms: C_10  and  N_9 
REMARK    4  A    between atoms: C_10  and  C_11 
REMARK    5  A    between atoms: C_10  and  C_17 
REMARK    6  A    between atoms: C_14  and  C_15 
REMARK    7  A    between atoms: C_15  and  C_16 
REMARK    8  A    between atoms: C_17  and  O_19 
REMARK       I    between atoms: C_27  and  N_30 
ROOT
HETATM    1  C   UNK N   1      35.050  11.186  17.344  0.00  0.00     0.008 A 
HETATM    2  C   UNK N   1      35.158  12.568  17.441  0.00  0.00    -0.058 A 
HETATM    3  C   UNK N   1      35.223  13.172  18.710  0.00  0.00     0.008 A 
HETATM    4  C   UNK N   1      35.157  12.380  19.871  0.00  0.00     0.017 A 
HETATM    5  C   UNK N   1      35.003  10.988  19.755  0.00  0.00     0.032 A 
HETATM    6  C   UNK N   1      34.971  10.406  18.484  0.00  0.00     0.017 A 
ENDROOT
BRANCH   2   7
HETATM    7  C   UNK N   1      35.060  13.369  16.181  0.00  0.00     0.043 C 
BRANCH   7   8
HETATM    8  C   UNK N   1      34.931  12.533  14.928  0.00  0.00     0.045 C 
BRANCH   8   9
HETATM    9  C   UNK N   1      36.110  12.481  13.990  0.00  0.00    -0.023 A 
HETATM   10  C   UNK N   1      37.218  11.698  14.296  0.00  0.00     0.098 A 
HETATM   11  N   UNK N   1      38.134  11.775  13.305  0.00  0.00    -0.350 N 
HETATM   12  C   UNK N   1      37.614  12.598  12.384  0.00  0.00     0.137 A 
HETATM   13  H   UNK N   1      39.006  11.320  13.268  0.00  0.00     0.166 HD
HETATM   14  C   UNK N   1      36.386  13.069  12.752  0.00  0.00     0.085 A 
HETATM   15  N   UNK N   1      38.208  12.928  11.212  0.00  0.00    -0.176 N 
HETATM   16  C   UNK N   1      35.729  13.958  11.888  0.00  0.00     0.274 A 
HETATM   17  O   UNK N   1      34.657  14.449  12.166  0.00  0.00    -0.267 OA
HETATM   18  N   UNK N   1      36.338  14.285  10.696  0.00  0.00    -0.155 N 
HETATM   19  C   UNK N   1      37.558  13.769  10.360  0.00  0.00     0.680 A 
HETATM   20  H   UNK N   1      35.886  14.901  10.075  0.00  0.00     0.187 HD
HETATM   21  N   UNK N   1      38.148  14.110   9.126  0.00  0.00    -0.234 N 
HETATM   22  H   UNK N   1      39.111  14.034   8.939  0.00  0.00     0.174 HD
HETATM   23  H   UNK N   1      37.562  14.443   8.409  0.00  0.00     0.174 HD
ATOM     24  HN  UNK N   1      39.125  12.552  10.971  1.00  0.00     0.186 HD
ENDBRANCH   8   9
ENDBRANCH   7   8
ENDBRANCH   2   7
BRANCH   5  25
HETATM   25  C   UNK N   1      34.767  10.106  20.914  0.00  0.00     0.252 C 
HETATM   26  O   UNK N   1      35.690   9.719  21.616  0.00  0.00    -0.268 OA
HETATM   27  N   UNK N   1      33.475   9.807  21.211  0.00  0.00    -0.342 N 
HETATM   28  H   UNK N   1      32.807  10.178  20.591  0.00  0.00     0.163 HD
BRANCH  27  29
HETATM   29  C   UNK N   1      32.935   9.024  22.301  0.00  0.00     0.186 C 
BRANCH  29  30
HETATM   30  C   UNK N   1      31.735   8.242  21.717  0.00  0.00     0.010 C 
HETATM   31  C   UNK N   1      31.910   6.738  21.823  0.00  0.00     0.012 C 
HETATM   32  C   UNK N   1      31.472   8.596  20.260  0.00  0.00     0.012 C 
ENDBRANCH  29  30
BRANCH  29  33
HETATM   33  C   UNK N   1      32.494   9.919  23.447  0.00  0.00     0.163 C 
HETATM   34  O   UNK N   1      31.854   9.453  24.376  0.00  0.00    -0.648 OA
BRANCH  33  35
HETATM   35  O   UNK N   1      32.786  11.236  23.450  0.00  0.00    -0.775 OA
HETATM   36  H   UNK N   1      32.638  11.961  24.024  0.00  0.00     0.167 HD
ENDBRANCH  33  35
ENDBRANCH  29  33
ENDBRANCH  27  29
ENDBRANCH   5  25
TORSDOF 8
ENDMDL
