MODEL 1
REMARK VINA RESULT:      -5.9      0.000      0.000
REMARK  3 active torsions:
REMARK  status: ('A' for Active; 'I' for Inactive)
REMARK    1  A    between atoms: N_1  and  S_2 
REMARK    2  A    between atoms: S_2  and  C_5 
REMARK    3  A    between atoms: C_10  and  O_11 
ROOT
HETATM    1  C   UNK N   1      29.842  17.247   7.932  0.00  0.00     0.090 A 
HETATM    2  C   UNK N   1      28.907  16.965   6.930  0.00  0.00     0.026 A 
HETATM    3  C   UNK N   1      29.313  16.797   5.605  0.00  0.00     0.003 A 
HETATM    4  C   UNK N   1      30.660  16.924   5.263  0.00  0.00     0.015 A 
HETATM    5  C   UNK N   1      31.615  17.202   6.248  0.00  0.00     0.009 A 
HETATM    6  C   UNK N   1      32.972  17.344   5.906  0.00  0.00     0.076 A 
HETATM    7  C   UNK N   1      33.917  17.617   6.898  0.00  0.00     0.037 A 
HETATM    8  C   UNK N   1      33.521  17.753   8.231  0.00  0.00     0.004 A 
HETATM    9  C   UNK N   1      32.173  17.630   8.579  0.00  0.00     0.014 A 
HETATM   10  C   UNK N   1      31.209  17.356   7.599  0.00  0.00     0.000 A 
ENDROOT
BRANCH   1  11
HETATM   11  S   UNK N   1      29.247  17.522   9.607  0.00  0.00     0.257 S 
HETATM   12  O   UNK N   1      29.590  18.926  10.126  0.00  0.00    -0.201 OA
HETATM   13  O   UNK N   1      27.712  17.544   9.674  0.00  0.00    -0.201 OA
BRANCH  11  14
HETATM   14  N   UNK N   1      29.738  16.416  10.891  0.00  0.00    -0.324 N 
HETATM   15  H   UNK N   1      29.809  15.434  11.159  0.00  0.00     0.169 HD
HETATM   16  H   UNK N   1      30.084  16.976  11.669  0.00  0.00     0.169 HD
ENDBRANCH  11  14
ENDBRANCH   1  11
BRANCH   6  17
HETATM   17  O   UNK N   1      33.372  17.227   4.627  0.00  0.00    -0.360 OA
HETATM   18  H   UNK N   1      33.798  17.945   4.201  0.00  0.00     0.217 HD
ENDBRANCH   6  17
TORSDOF 3
ENDMDL
MODEL 2
REMARK VINA RESULT:      -5.9      8.321     10.239
REMARK  3 active torsions:
REMARK  status: ('A' for Active; 'I' for Inactive)
REMARK    1  A    between atoms: N_1  and  S_2 
REMARK    2  A    between atoms: S_2  and  C_5 
REMARK    3  A    between atoms: C_10  and  O_11 
ROOT
HETATM    1  C   UNK N   1      22.487  13.782   7.989  0.00  0.00     0.090 A 
HETATM    2  C   UNK N   1      23.678  14.118   7.335  0.00  0.00     0.026 A 
HETATM    3  C   UNK N   1      24.914  13.848   7.925  0.00  0.00     0.003 A 
HETATM    4  C   UNK N   1      24.974  13.253   9.185  0.00  0.00     0.015 A 
HETATM    5  C   UNK N   1      23.797  12.906   9.859  0.00  0.00     0.009 A 
HETATM    6  C   UNK N   1      23.853  12.317  11.135  0.00  0.00     0.076 A 
HETATM    7  C   UNK N   1      22.672  11.970  11.796  0.00  0.00     0.037 A 
HETATM    8  C   UNK N   1      21.433  12.207  11.196  0.00  0.00     0.004 A 
HETATM    9  C   UNK N   1      21.366  12.806   9.935  0.00  0.00     0.014 A 
HETATM   10  C   UNK N   1      22.539  13.161   9.255  0.00  0.00     0.000 A 
ENDROOT
BRANCH   1  11
HETATM   11  S   UNK N   1      20.927  14.220   7.208  0.00  0.00     0.257 S 
HETATM   12  O   UNK N   1      20.158  12.988   6.708  0.00  0.00    -0.201 OA
HETATM   13  O   UNK N   1      19.927  14.810   8.215  0.00  0.00    -0.201 OA
BRANCH  11  14
HETATM   14  N   UNK N   1      20.925  15.353   5.855  0.00  0.00    -0.324 N 
HETATM   15  H   UNK N   1      21.304  15.538   4.927  0.00  0.00     0.169 HD
HETATM   16  H   UNK N   1      20.302  16.124   6.096  0.00  0.00     0.169 HD
ENDBRANCH  11  14
ENDBRANCH   1  11
BRANCH   6  17
HETATM   17  O   UNK N   1      25.036  12.091  11.734  0.00  0.00    -0.360 OA
HETATM   18  H   UNK N   1      25.834  12.206  11.256  0.00  0.00     0.217 HD
ENDBRANCH   6  17
TORSDOF 3
ENDMDL
MODEL 3
REMARK VINA RESULT:      -5.8      3.093      4.133
REMARK  3 active torsions:
REMARK  status: ('A' for Active; 'I' for Inactive)
REMARK    1  A    between atoms: N_1  and  S_2 
REMARK    2  A    between atoms: S_2  and  C_5 
REMARK    3  A    between atoms: C_10  and  O_11 
ROOT
HETATM    1  C   UNK N   1      32.481  17.283   7.408  0.00  0.00     0.090 A 
HETATM    2  C   UNK N   1      31.401  17.359   8.294  0.00  0.00     0.026 A 
HETATM    3  C   UNK N   1      30.089  17.359   7.818  0.00  0.00     0.003 A 
HETATM    4  C   UNK N   1      29.841  17.300   6.446  0.00  0.00     0.015 A 
HETATM    5  C   UNK N   1      30.904  17.221   5.539  0.00  0.00     0.009 A 
HETATM    6  C   UNK N   1      30.659  17.173   4.155  0.00  0.00     0.076 A 
HETATM    7  C   UNK N   1      31.728  17.089   3.260  0.00  0.00     0.037 A 
HETATM    8  C   UNK N   1      33.042  17.054   3.732  0.00  0.00     0.004 A 
HETATM    9  C   UNK N   1      33.297  17.117   5.104  0.00  0.00     0.014 A 
HETATM   10  C   UNK N   1      32.239  17.201   6.020  0.00  0.00     0.000 A 
ENDROOT
BRANCH   1  11
HETATM   11  S   UNK N   1      34.148  17.358   8.079  0.00  0.00     0.257 S 
HETATM   12  O   UNK N   1      35.081  16.316   7.445  0.00  0.00    -0.201 OA
HETATM   13  O   UNK N   1      34.860  18.666   7.702  0.00  0.00    -0.201 OA
BRANCH  11  14
HETATM   14  N   UNK N   1      34.387  17.201   9.820  0.00  0.00    -0.324 N 
HETATM   15  H   UNK N   1      34.459  17.715  10.698  0.00  0.00     0.169 HD
HETATM   16  H   UNK N   1      34.496  16.209  10.031  0.00  0.00     0.169 HD
ENDBRANCH  11  14
ENDBRANCH   1  11
BRANCH   6  17
HETATM   17  O   UNK N   1      29.401  17.216   3.680  0.00  0.00    -0.360 OA
HETATM   18  H   UNK N   1      29.123  16.601   3.030  0.00  0.00     0.217 HD
ENDBRANCH   6  17
TORSDOF 3
ENDMDL
MODEL 4
REMARK VINA RESULT:      -5.8      2.410      4.292
REMARK  3 active torsions:
REMARK  status: ('A' for Active; 'I' for Inactive)
REMARK    1  A    between atoms: N_1  and  S_2 
REMARK    2  A    between atoms: S_2  and  C_5 
REMARK    3  A    between atoms: C_10  and  O_11 
ROOT
HETATM    1  C   UNK N   1      32.042  17.189   7.077  0.00  0.00     0.090 A 
HETATM    2  C   UNK N   1      31.989  16.587   5.816  0.00  0.00     0.026 A 
HETATM    3  C   UNK N   1      30.764  16.365   5.184  0.00  0.00     0.003 A 
HETATM    4  C   UNK N   1      29.575  16.728   5.815  0.00  0.00     0.015 A 
HETATM    5  C   UNK N   1      29.601  17.334   7.077  0.00  0.00     0.009 A 
HETATM    6  C   UNK N   1      28.403  17.691   7.722  0.00  0.00     0.076 A 
HETATM    7  C   UNK N   1      28.442  18.300   8.978  0.00  0.00     0.037 A 
HETATM    8  C   UNK N   1      29.666  18.555   9.601  0.00  0.00     0.004 A 
HETATM    9  C   UNK N   1      30.861  18.191   8.975  0.00  0.00     0.014 A 
HETATM   10  C   UNK N   1      30.844  17.579   7.714  0.00  0.00     0.000 A 
ENDROOT
BRANCH   1  11
HETATM   11  S   UNK N   1      33.646  17.384   7.869  0.00  0.00     0.257 S 
HETATM   12  O   UNK N   1      34.786  16.781   7.035  0.00  0.00    -0.201 OA
HETATM   13  O   UNK N   1      34.074  18.858   7.941  0.00  0.00    -0.201 OA
BRANCH  11  14
HETATM   14  N   UNK N   1      33.884  16.765   9.503  0.00  0.00    -0.324 N 
HETATM   15  H   UNK N   1      34.559  16.654  10.260  0.00  0.00     0.169 HD
HETATM   16  H   UNK N   1      33.001  16.358   9.814  0.00  0.00     0.169 HD
ENDBRANCH  11  14
ENDBRANCH   1  11
BRANCH   6  17
HETATM   17  O   UNK N   1      27.213  17.443   7.144  0.00  0.00    -0.360 OA
HETATM   18  H   UNK N   1      27.043  16.605   6.761  0.00  0.00     0.217 HD
ENDBRANCH   6  17
TORSDOF 3
ENDMDL
MODEL 5
REMARK VINA RESULT:      -5.7     11.078     12.453
REMARK  3 active torsions:
REMARK  status: ('A' for Active; 'I' for Inactive)
REMARK    1  A    between atoms: N_1  and  S_2 
REMARK    2  A    between atoms: S_2  and  C_5 
REMARK    3  A    between atoms: C_10  and  O_11 
ROOT
HETATM    1  C   UNK N   1      35.483  11.271  15.674  0.00  0.00     0.090 A 
HETATM    2  C   UNK N   1      35.480   9.872  15.665  0.00  0.00     0.026 A 
HETATM    3  C   UNK N   1      35.371   9.153  16.856  0.00  0.00     0.003 A 
HETATM    4  C   UNK N   1      35.281   9.825  18.075  0.00  0.00     0.015 A 
HETATM    5  C   UNK N   1      35.279  11.225  18.111  0.00  0.00     0.009 A 
HETATM    6  C   UNK N   1      35.201  11.907  19.338  0.00  0.00     0.076 A 
HETATM    7  C   UNK N   1      35.196  13.304  19.361  0.00  0.00     0.037 A 
HETATM    8  C   UNK N   1      35.269  14.029  18.169  0.00  0.00     0.004 A 
HETATM    9  C   UNK N   1      35.364  13.361  16.946  0.00  0.00     0.014 A 
HETATM   10  C   UNK N   1      35.370  11.959  16.900  0.00  0.00     0.000 A 
ENDROOT
BRANCH   1  11
HETATM   11  S   UNK N   1      35.695  12.139  14.112  0.00  0.00     0.257 S 
HETATM   12  O   UNK N   1      35.692  11.185  12.908  0.00  0.00    -0.201 OA
HETATM   13  O   UNK N   1      34.492  13.037  13.787  0.00  0.00    -0.201 OA
BRANCH  11  14
HETATM   14  N   UNK N   1      37.105  13.175  13.885  0.00  0.00    -0.324 N 
HETATM   15  H   UNK N   1      38.030  13.408  14.243  0.00  0.00     0.169 HD
HETATM   16  H   UNK N   1      36.922  13.776  13.081  0.00  0.00     0.169 HD
ENDBRANCH  11  14
ENDBRANCH   1  11
BRANCH   6  17
HETATM   17  O   UNK N   1      35.140  11.227  20.497  0.00  0.00    -0.360 OA
HETATM   18  H   UNK N   1      34.326  11.152  20.955  0.00  0.00     0.217 HD
ENDBRANCH   6  17
TORSDOF 3
ENDMDL
MODEL 6
REMARK VINA RESULT:      -5.6     11.642     13.064
REMARK  3 active torsions:
REMARK  status: ('A' for Active; 'I' for Inactive)
REMARK    1  A    between atoms: N_1  and  S_2 
REMARK    2  A    between atoms: S_2  and  C_5 
REMARK    3  A    between atoms: C_10  and  O_11 
ROOT
HETATM    1  C   UNK N   1      34.987  11.976  16.485  0.00  0.00     0.090 A 
HETATM    2  C   UNK N   1      35.095  13.326  16.835  0.00  0.00     0.026 A 
HETATM    3  C   UNK N   1      35.264  13.704  18.168  0.00  0.00     0.003 A 
HETATM    4  C   UNK N   1      35.311  12.735  19.170  0.00  0.00     0.015 A 
HETATM    5  C   UNK N   1      35.208  11.377  18.845  0.00  0.00     0.009 A 
HETATM    6  C   UNK N   1      35.243  10.398  19.854  0.00  0.00     0.076 A 
HETATM    7  C   UNK N   1      35.144   9.045  19.517  0.00  0.00     0.037 A 
HETATM    8  C   UNK N   1      35.008   8.660  18.182  0.00  0.00     0.004 A 
HETATM    9  C   UNK N   1      34.956   9.625  17.173  0.00  0.00     0.014 A 
HETATM   10  C   UNK N   1      35.055  10.988  17.490  0.00  0.00     0.000 A 
ENDROOT
BRANCH   1  11
HETATM   11  S   UNK N   1      34.700  11.558  14.759  0.00  0.00     0.257 S 
HETATM   12  O   UNK N   1      33.390  10.782  14.555  0.00  0.00    -0.201 OA
HETATM   13  O   UNK N   1      34.446  12.807  13.901  0.00  0.00    -0.201 OA
BRANCH  11  14
HETATM   14  N   UNK N   1      35.925  10.646  13.875  0.00  0.00    -0.324 N 
HETATM   15  H   UNK N   1      36.910  10.617  13.612  0.00  0.00     0.169 HD
HETATM   16  H   UNK N   1      35.471   9.828  13.468  0.00  0.00     0.169 HD
ENDBRANCH  11  14
ENDBRANCH   1  11
BRANCH   6  17
HETATM   17  O   UNK N   1      35.362  10.749  21.147  0.00  0.00    -0.360 OA
HETATM   18  H   UNK N   1      34.911  11.504  21.472  0.00  0.00     0.217 HD
ENDBRANCH   6  17
TORSDOF 3
ENDMDL
MODEL 7
REMARK VINA RESULT:      -5.4      2.975      3.804
REMARK  3 active torsions:
REMARK  status: ('A' for Active; 'I' for Inactive)
REMARK    1  A    between atoms: N_1  and  S_2 
REMARK    2  A    between atoms: S_2  and  C_5 
REMARK    3  A    between atoms: C_10  and  O_11 
ROOT
HETATM    1  C   UNK N   1      30.618  16.817   4.651  0.00  0.00     0.090 A 
HETATM    2  C   UNK N   1      31.351  16.798   3.460  0.00  0.00     0.026 A 
HETATM    3  C   UNK N   1      32.718  17.079   3.462  0.00  0.00     0.003 A 
HETATM    4  C   UNK N   1      33.366  17.399   4.655  0.00  0.00     0.015 A 
HETATM    5  C   UNK N   1      32.655  17.422   5.861  0.00  0.00     0.009 A 
HETATM    6  C   UNK N   1      33.301  17.756   7.064  0.00  0.00     0.076 A 
HETATM    7  C   UNK N   1      32.582  17.771   8.262  0.00  0.00     0.037 A 
HETATM    8  C   UNK N   1      31.221  17.457   8.271  0.00  0.00     0.004 A 
HETATM    9  C   UNK N   1      30.566  17.139   7.079  0.00  0.00     0.014 A 
HETATM   10  C   UNK N   1      31.269  17.118   5.866  0.00  0.00     0.000 A 
ENDROOT
BRANCH   1  11
HETATM   11  S   UNK N   1      28.846  16.515   4.572  0.00  0.00     0.257 S 
HETATM   12  O   UNK N   1      28.025  17.728   5.033  0.00  0.00    -0.201 OA
HETATM   13  O   UNK N   1      28.356  16.352   3.126  0.00  0.00    -0.201 OA
BRANCH  11  14
HETATM   14  N   UNK N   1      28.165  15.135   5.436  0.00  0.00    -0.324 N 
HETATM   15  H   UNK N   1      28.248  14.130   5.593  0.00  0.00     0.169 HD
HETATM   16  H   UNK N   1      27.383  15.473   5.997  0.00  0.00     0.169 HD
ENDBRANCH  11  14
ENDBRANCH   1  11
BRANCH   6  17
HETATM   17  O   UNK N   1      34.609  18.071   7.075  0.00  0.00    -0.360 OA
HETATM   18  H   UNK N   1      35.254  17.406   6.933  0.00  0.00     0.217 HD
ENDBRANCH   6  17
TORSDOF 3
ENDMDL
MODEL 8
REMARK VINA RESULT:      -5.4      3.613      5.732
REMARK  3 active torsions:
REMARK  status: ('A' for Active; 'I' for Inactive)
REMARK    1  A    between atoms: N_1  and  S_2 
REMARK    2  A    between atoms: S_2  and  C_5 
REMARK    3  A    between atoms: C_10  and  O_11 
ROOT
HETATM    1  C   UNK N   1      29.494  17.628   6.169  0.00  0.00     0.090 A 
HETATM    2  C   UNK N   1      29.741  17.157   7.463  0.00  0.00     0.026 A 
HETATM    3  C   UNK N   1      29.068  17.701   8.559  0.00  0.00     0.003 A 
HETATM    4  C   UNK N   1      28.151  18.735   8.374  0.00  0.00     0.015 A 
HETATM    5  C   UNK N   1      27.883  19.222   7.089  0.00  0.00     0.009 A 
HETATM    6  C   UNK N   1      26.968  20.273   6.900  0.00  0.00     0.076 A 
HETATM    7  C   UNK N   1      26.706  20.747   5.612  0.00  0.00     0.037 A 
HETATM    8  C   UNK N   1      27.351  20.183   4.509  0.00  0.00     0.004 A 
HETATM    9  C   UNK N   1      28.274  19.150   4.687  0.00  0.00     0.014 A 
HETATM   10  C   UNK N   1      28.551  18.659   5.971  0.00  0.00     0.000 A 
ENDROOT
BRANCH   1  11
HETATM   11  S   UNK N   1      30.444  16.934   4.808  0.00  0.00     0.257 S 
HETATM   12  O   UNK N   1      31.323  15.755   5.249  0.00  0.00    -0.201 OA
HETATM   13  O   UNK N   1      29.540  16.261   3.763  0.00  0.00    -0.201 OA
BRANCH  11  14
HETATM   14  N   UNK N   1      31.507  17.985   3.872  0.00  0.00    -0.324 N 
HETATM   15  H   UNK N   1      31.539  18.702   3.148  0.00  0.00     0.169 HD
HETATM   16  H   UNK N   1      32.466  17.806   4.174  0.00  0.00     0.169 HD
ENDBRANCH  11  14
ENDBRANCH   1  11
BRANCH   6  17
HETATM   17  O   UNK N   1      26.345  20.836   7.951  0.00  0.00    -0.360 OA
HETATM   18  H   UNK N   1      25.757  20.328   8.475  0.00  0.00     0.217 HD
ENDBRANCH   6  17
TORSDOF 3
ENDMDL
MODEL 9
REMARK VINA RESULT:      -5.3      8.826     10.286
REMARK  3 active torsions:
REMARK  status: ('A' for Active; 'I' for Inactive)
REMARK    1  A    between atoms: N_1  and  S_2 
REMARK    2  A    between atoms: S_2  and  C_5 
REMARK    3  A    between atoms: C_10  and  O_11 
ROOT
HETATM    1  C   UNK N   1      22.266  14.617   7.863  0.00  0.00     0.090 A 
HETATM    2  C   UNK N   1      21.062  15.319   7.983  0.00  0.00     0.026 A 
HETATM    3  C   UNK N   1      20.158  15.012   9.001  0.00  0.00     0.003 A 
HETATM    4  C   UNK N   1      20.440  13.986   9.903  0.00  0.00     0.015 A 
HETATM    5  C   UNK N   1      21.640  13.271   9.807  0.00  0.00     0.009 A 
HETATM    6  C   UNK N   1      21.923  12.228  10.707  0.00  0.00     0.076 A 
HETATM    7  C   UNK N   1      23.125  11.525  10.603  0.00  0.00     0.037 A 
HETATM    8  C   UNK N   1      24.049  11.850   9.607  0.00  0.00     0.004 A 
HETATM    9  C   UNK N   1      23.770  12.874   8.698  0.00  0.00     0.014 A 
HETATM   10  C   UNK N   1      22.570  13.593   8.785  0.00  0.00     0.000 A 
ENDROOT
BRANCH   1  11
HETATM   11  S   UNK N   1      23.357  15.013   6.488  0.00  0.00     0.257 S 
HETATM   12  O   UNK N   1      23.460  13.865   5.474  0.00  0.00    -0.201 OA
HETATM   13  O   UNK N   1      22.788  16.139   5.611  0.00  0.00    -0.201 OA
BRANCH  11  14
HETATM   14  N   UNK N   1      25.022  15.496   6.818  0.00  0.00    -0.324 N 
HETATM   15  H   UNK N   1      25.610  16.161   7.320  0.00  0.00     0.169 HD
HETATM   16  H   UNK N   1      25.636  14.864   6.305  0.00  0.00     0.169 HD
ENDBRANCH  11  14
ENDBRANCH   1  11
BRANCH   6  17
HETATM   17  O   UNK N   1      21.041  11.893  11.666  0.00  0.00    -0.360 OA
HETATM   18  H   UNK N   1      21.110  12.272  12.520  0.00  0.00     0.217 HD
ENDBRANCH   6  17
TORSDOF 3
ENDMDL
