REMARK  3 active torsions:
REMARK  status: ('A' for Active; 'I' for Inactive)
REMARK    1  A    between atoms: N_1  and  S_2 
REMARK    2  A    between atoms: S_2  and  C_5 
REMARK    3  A    between atoms: C_10  and  O_11 
ROOT
HETATM    1  C   UNK N   1      13.519   2.989  -0.071  0.00  0.00     0.090 A 
HETATM    2  C   UNK N   1      12.453   3.893  -0.129  0.00  0.00     0.026 A 
HETATM    3  C   UNK N   1      12.688   5.268  -0.175  0.00  0.00     0.003 A 
HETATM    4  C   UNK N   1      13.994   5.757  -0.147  0.00  0.00     0.015 A 
HETATM    5  C   UNK N   1      15.078   4.873  -0.092  0.00  0.00     0.009 A 
HETATM    6  C   UNK N   1      16.396   5.362  -0.051  0.00  0.00     0.076 A 
HETATM    7  C   UNK N   1      17.470   4.470  -0.001  0.00  0.00     0.037 A 
HETATM    8  C   UNK N   1      17.242   3.092   0.011  0.00  0.00     0.004 A 
HETATM    9  C   UNK N   1      15.936   2.596  -0.013  0.00  0.00     0.014 A 
HETATM   10  C   UNK N   1      14.844   3.474  -0.064  0.00  0.00     0.000 A 
ENDROOT
BRANCH   1  11
HETATM   11  S   UNK N   1      13.149   1.233   0.057  0.00  0.00     0.257 S 
HETATM   12  O   UNK N   1      13.900   0.560   1.215  0.00  0.00    -0.201 OA
HETATM   13  O   UNK N   1      11.688   0.983   0.461  0.00  0.00    -0.201 OA
BRANCH  11  14
HETATM   14  N   UNK N   1      13.414   0.190  -1.341  0.00  0.00    -0.324 N 
HETATM   15  H   UNK N   1      12.969  -0.245  -2.149  0.00  0.00     0.169 HD
HETATM   16  H   UNK N   1      14.396  -0.087  -1.341  0.00  0.00     0.169 HD
ENDBRANCH  11  14
ENDBRANCH   1  11
BRANCH   6  17
HETATM   17  O   UNK N   1      16.636   6.686  -0.051  0.00  0.00    -0.360 OA
HETATM   18  H   UNK N   1      17.518   7.003  -0.051  0.00  0.00     0.217 HD
ENDBRANCH   6  17
TORSDOF 3
