MODEL 1
REMARK VINA RESULT:      -7.5      0.000      0.000
REMARK  4 active torsions:
REMARK  status: ('A' for Active; 'I' for Inactive)
REMARK       I    between atoms: N_1  and  C_2 
REMARK    1  A    between atoms: N_1  and  C_22 
REMARK    2  A    between atoms: C_2  and  C_3 
REMARK    3  A    between atoms: C_15  and  S_18 
REMARK    4  A    between atoms: S_18  and  N_21 
ROOT
HETATM    1  N   UNK N   1      34.716  13.594  12.345  0.00  0.00    -0.322 N 
HETATM    2  C   UNK N   1      35.806  12.870  12.723  0.00  0.00     0.275 C 
HETATM    3  O   UNK N   1      36.896  13.056  12.198  0.00  0.00    -0.266 OA
HETATM    4  H   UNK N   1      33.866  13.412  12.807  0.00  0.00     0.169 HD
ENDROOT
BRANCH   1   5
HETATM    5  C   UNK N   1      34.716  14.598  11.331  0.00  0.00     0.035 A 
HETATM    6  C   UNK N   1      35.332  15.831  11.584  0.00  0.00     0.031 A 
HETATM    7  C   UNK N   1      35.350  16.825  10.596  0.00  0.00     0.027 A 
HETATM    8  C   UNK N   1      34.767  16.582   9.347  0.00  0.00     0.079 A 
HETATM    9  C   UNK N   1      34.138  15.364   9.097  0.00  0.00     0.027 A 
HETATM   10  C   UNK N   1      34.122  14.377  10.077  0.00  0.00     0.031 A 
BRANCH   8  11
HETATM   11  S   UNK N   1      34.605  17.894   8.155  0.00  0.00     0.256 S 
HETATM   12  O   UNK N   1      34.941  19.372   8.412  0.00  0.00    -0.201 OA
HETATM   13  O   UNK N   1      34.496  17.660   6.639  0.00  0.00    -0.201 OA
BRANCH  11  14
HETATM   14  N   UNK N   1      32.885  18.075   8.407  0.00  0.00    -0.324 N 
HETATM   15  H   UNK N   1      31.867  18.038   8.368  0.00  0.00     0.169 HD
HETATM   16  H   UNK N   1      32.949  18.689   9.219  0.00  0.00     0.169 HD
ENDBRANCH  11  14
ENDBRANCH   8  11
ENDBRANCH   1   5
BRANCH   2  17
HETATM   17  C   UNK N   1      35.699  11.871  13.796  0.00  0.00     0.129 A 
HETATM   18  C   UNK N   1      35.552  12.126  15.138  0.00  0.00     0.026 A 
HETATM   19  C   UNK N   1      35.465  13.311  15.867  0.00  0.00     0.016 A 
HETATM   20  C   UNK N   1      35.480  10.904  15.733  0.00  0.00     0.060 A 
HETATM   21  C   UNK N   1      35.299  13.207  17.259  0.00  0.00     0.001 A 
HETATM   22  C   UNK N   1      35.226  11.937  17.878  0.00  0.00     0.002 A 
HETATM   23  C   UNK N   1      35.317  10.760  17.107  0.00  0.00     0.032 A 
HETATM   24  N   UNK N   1      35.581   9.938  14.801  0.00  0.00    -0.299 N 
HETATM   25  N   UNK N   1      35.713  10.527  13.614  0.00  0.00    -0.294 N 
HETATM   26  H   UNK N   1      35.561   8.968  14.967  0.00  0.00     0.187 HD
ATOM     27  HN  UNK N   1      35.809  10.048  12.720  1.00  0.00     0.187 HD
ENDBRANCH   2  17
TORSDOF 4
ENDMDL
MODEL 2
REMARK VINA RESULT:      -7.0      5.170      7.346
REMARK  4 active torsions:
REMARK  status: ('A' for Active; 'I' for Inactive)
REMARK       I    between atoms: N_1  and  C_2 
REMARK    1  A    between atoms: N_1  and  C_22 
REMARK    2  A    between atoms: C_2  and  C_3 
REMARK    3  A    between atoms: C_15  and  S_18 
REMARK    4  A    between atoms: S_18  and  N_21 
ROOT
HETATM    1  N   UNK N   1      32.070  16.804   8.793  0.00  0.00    -0.322 N 
HETATM    2  C   UNK N   1      33.334  17.302   8.691  0.00  0.00     0.275 C 
HETATM    3  O   UNK N   1      33.567  18.288   8.006  0.00  0.00    -0.266 OA
HETATM    4  H   UNK N   1      31.935  16.015   9.366  0.00  0.00     0.169 HD
ENDROOT
BRANCH   1   5
HETATM    5  C   UNK N   1      30.926  17.344   8.132  0.00  0.00     0.035 A 
HETATM    6  C   UNK N   1      30.660  16.974   6.806  0.00  0.00     0.031 A 
HETATM    7  C   UNK N   1      29.536  17.485   6.144  0.00  0.00     0.027 A 
HETATM    8  C   UNK N   1      28.666  18.357   6.811  0.00  0.00     0.079 A 
HETATM    9  C   UNK N   1      28.937  18.742   8.122  0.00  0.00     0.027 A 
HETATM   10  C   UNK N   1      30.051  18.231   8.780  0.00  0.00     0.031 A 
BRANCH   8  11
HETATM   11  S   UNK N   1      27.351  19.170   5.929  0.00  0.00     0.256 S 
HETATM   12  O   UNK N   1      26.204  18.459   5.194  0.00  0.00    -0.201 OA
HETATM   13  O   UNK N   1      26.981  20.650   6.127  0.00  0.00    -0.201 OA
BRANCH  11  14
HETATM   14  N   UNK N   1      28.316  19.442   4.497  0.00  0.00    -0.324 N 
HETATM   15  H   UNK N   1      28.896  19.818   3.748  0.00  0.00     0.169 HD
HETATM   16  H   UNK N   1      28.241  18.496   4.124  0.00  0.00     0.169 HD
ENDBRANCH  11  14
ENDBRANCH   8  11
ENDBRANCH   1   5
BRANCH   2  17
HETATM   17  C   UNK N   1      34.439  16.679   9.434  0.00  0.00     0.129 A 
HETATM   18  C   UNK N   1      35.133  15.550   9.071  0.00  0.00     0.026 A 
HETATM   19  C   UNK N   1      35.030  14.692   7.977  0.00  0.00     0.016 A 
HETATM   20  C   UNK N   1      36.065  15.368  10.046  0.00  0.00     0.060 A 
HETATM   21  C   UNK N   1      35.930  13.614   7.908  0.00  0.00     0.001 A 
HETATM   22  C   UNK N   1      36.898  13.425   8.923  0.00  0.00     0.002 A 
HETATM   23  C   UNK N   1      36.972  14.314  10.015  0.00  0.00     0.032 A 
HETATM   24  N   UNK N   1      35.949  16.339  10.971  0.00  0.00    -0.299 N 
HETATM   25  N   UNK N   1      34.956  17.144  10.598  0.00  0.00    -0.294 N 
HETATM   26  H   UNK N   1      36.500  16.437  11.781  0.00  0.00     0.187 HD
ATOM     27  HN  UNK N   1      34.639  17.971  11.102  1.00  0.00     0.187 HD
ENDBRANCH   2  17
TORSDOF 4
ENDMDL
MODEL 3
REMARK VINA RESULT:      -7.0     10.087     13.070
REMARK  4 active torsions:
REMARK  status: ('A' for Active; 'I' for Inactive)
REMARK       I    between atoms: N_1  and  C_2 
REMARK    1  A    between atoms: N_1  and  C_22 
REMARK    2  A    between atoms: C_2  and  C_3 
REMARK    3  A    between atoms: C_15  and  S_18 
REMARK    4  A    between atoms: S_18  and  N_21 
ROOT
HETATM    1  N   UNK N   1      26.453  18.373   4.426  0.00  0.00    -0.322 N 
HETATM    2  C   UNK N   1      27.182  18.879   5.459  0.00  0.00     0.275 C 
HETATM    3  O   UNK N   1      26.773  19.834   6.107  0.00  0.00    -0.266 OA
HETATM    4  H   UNK N   1      26.822  17.597   3.945  0.00  0.00     0.169 HD
ENDROOT
BRANCH   1   5
HETATM    5  C   UNK N   1      25.193  18.883   3.991  0.00  0.00     0.035 A 
HETATM    6  C   UNK N   1      25.151  20.070   3.248  0.00  0.00     0.031 A 
HETATM    7  C   UNK N   1      23.924  20.581   2.803  0.00  0.00     0.027 A 
HETATM    8  C   UNK N   1      22.736  19.895   3.087  0.00  0.00     0.079 A 
HETATM    9  C   UNK N   1      22.771  18.724   3.842  0.00  0.00     0.027 A 
HETATM   10  C   UNK N   1      23.990  18.217   4.280  0.00  0.00     0.031 A 
BRANCH   8  11
HETATM   11  S   UNK N   1      21.159  20.627   2.706  0.00  0.00     0.256 S 
HETATM   12  O   UNK N   1      20.044  20.913   3.725  0.00  0.00    -0.201 OA
HETATM   13  O   UNK N   1      20.874  21.414   1.416  0.00  0.00    -0.201 OA
BRANCH  11  14
HETATM   14  N   UNK N   1      20.468  19.128   2.129  0.00  0.00    -0.324 N 
HETATM   15  H   UNK N   1      19.958  18.395   1.637  0.00  0.00     0.169 HD
HETATM   16  H   UNK N   1      20.933  18.518   2.801  0.00  0.00     0.169 HD
ENDBRANCH  11  14
ENDBRANCH   8  11
ENDBRANCH   1   5
BRANCH   2  17
HETATM   17  C   UNK N   1      28.462  18.263   5.837  0.00  0.00     0.129 A 
HETATM   18  C   UNK N   1      28.880  17.965   7.112  0.00  0.00     0.026 A 
HETATM   19  C   UNK N   1      28.286  18.134   8.361  0.00  0.00     0.016 A 
HETATM   20  C   UNK N   1      30.108  17.396   6.966  0.00  0.00     0.060 A 
HETATM   21  C   UNK N   1      29.004  17.694   9.487  0.00  0.00     0.001 A 
HETATM   22  C   UNK N   1      30.281  17.104   9.335  0.00  0.00     0.002 A 
HETATM   23  C   UNK N   1      30.849  16.949   8.054  0.00  0.00     0.032 A 
HETATM   24  N   UNK N   1      30.434  17.348   5.660  0.00  0.00    -0.299 N 
HETATM   25  N   UNK N   1      29.428  17.876   4.968  0.00  0.00    -0.294 N 
HETATM   26  H   UNK N   1      31.269  16.987   5.285  0.00  0.00     0.187 HD
ATOM     27  HN  UNK N   1      29.389  17.973   3.954  1.00  0.00     0.187 HD
ENDBRANCH   2  17
TORSDOF 4
ENDMDL
MODEL 4
REMARK VINA RESULT:      -6.9     10.233     13.429
REMARK  4 active torsions:
REMARK  status: ('A' for Active; 'I' for Inactive)
REMARK       I    between atoms: N_1  and  C_2 
REMARK    1  A    between atoms: N_1  and  C_22 
REMARK    2  A    between atoms: C_2  and  C_3 
REMARK    3  A    between atoms: C_15  and  S_18 
REMARK    4  A    between atoms: S_18  and  N_21 
ROOT
HETATM    1  N   UNK N   1      25.808  18.867   5.508  0.00  0.00    -0.322 N 
HETATM    2  C   UNK N   1      26.682  17.847   5.282  0.00  0.00     0.275 C 
HETATM    3  O   UNK N   1      26.585  17.148   4.282  0.00  0.00    -0.266 OA
HETATM    4  H   UNK N   1      25.937  19.406   6.322  0.00  0.00     0.169 HD
ENDROOT
BRANCH   1   5
HETATM    5  C   UNK N   1      24.721  19.214   4.651  0.00  0.00     0.035 A 
HETATM    6  C   UNK N   1      23.504  18.528   4.772  0.00  0.00     0.031 A 
HETATM    7  C   UNK N   1      22.422  18.861   3.946  0.00  0.00     0.027 A 
HETATM    8  C   UNK N   1      22.549  19.893   3.008  0.00  0.00     0.079 A 
HETATM    9  C   UNK N   1      23.762  20.565   2.872  0.00  0.00     0.027 A 
HETATM   10  C   UNK N   1      24.835  20.235   3.694  0.00  0.00     0.031 A 
BRANCH   8  11
HETATM   11  S   UNK N   1      21.259  20.196   1.820  0.00  0.00     0.256 S 
HETATM   12  O   UNK N   1      20.767  21.584   1.380  0.00  0.00    -0.201 OA
HETATM   13  O   UNK N   1      20.764  19.145   0.813  0.00  0.00    -0.201 OA
BRANCH  11  14
HETATM   14  N   UNK N   1      19.970  19.927   2.970  0.00  0.00    -0.324 N 
HETATM   15  H   UNK N   1      19.081  19.823   3.458  0.00  0.00     0.169 HD
HETATM   16  H   UNK N   1      20.567  19.691   3.762  0.00  0.00     0.169 HD
ENDBRANCH  11  14
ENDBRANCH   8  11
ENDBRANCH   1   5
BRANCH   2  17
HETATM   17  C   UNK N   1      27.782  17.589   6.222  0.00  0.00     0.129 A 
HETATM   18  C   UNK N   1      29.115  17.473   5.909  0.00  0.00     0.026 A 
HETATM   19  C   UNK N   1      29.808  17.550   4.702  0.00  0.00     0.016 A 
HETATM   20  C   UNK N   1      29.748  17.256   7.094  0.00  0.00     0.060 A 
HETATM   21  C   UNK N   1      31.205  17.394   4.744  0.00  0.00     0.001 A 
HETATM   22  C   UNK N   1      31.863  17.168   5.976  0.00  0.00     0.002 A 
HETATM   23  C   UNK N   1      31.127  17.096   7.177  0.00  0.00     0.032 A 
HETATM   24  N   UNK N   1      28.846  17.237   8.094  0.00  0.00    -0.299 N 
HETATM   25  N   UNK N   1      27.643  17.442   7.563  0.00  0.00    -0.294 N 
HETATM   26  H   UNK N   1      29.042  17.095   9.048  0.00  0.00     0.187 HD
ATOM     27  HN  UNK N   1      26.764  17.483   8.078  1.00  0.00     0.187 HD
ENDBRANCH   2  17
TORSDOF 4
ENDMDL
MODEL 5
REMARK VINA RESULT:      -6.9      6.399     11.237
REMARK  4 active torsions:
REMARK  status: ('A' for Active; 'I' for Inactive)
REMARK       I    between atoms: N_1  and  C_2 
REMARK    1  A    between atoms: N_1  and  C_22 
REMARK    2  A    between atoms: C_2  and  C_3 
REMARK    3  A    between atoms: C_15  and  S_18 
REMARK    4  A    between atoms: S_18  and  N_21 
ROOT
HETATM    1  N   UNK N   1      29.918  16.801   6.476  0.00  0.00    -0.322 N 
HETATM    2  C   UNK N   1      29.814  17.253   5.196  0.00  0.00     0.275 C 
HETATM    3  O   UNK N   1      30.810  17.575   4.562  0.00  0.00    -0.266 OA
HETATM    4  H   UNK N   1      29.087  16.545   6.938  0.00  0.00     0.169 HD
ENDROOT
BRANCH   1   5
HETATM    5  C   UNK N   1      31.142  16.669   7.198  0.00  0.00     0.035 A 
HETATM    6  C   UNK N   1      31.800  15.431   7.216  0.00  0.00     0.031 A 
HETATM    7  C   UNK N   1      33.008  15.285   7.911  0.00  0.00     0.027 A 
HETATM    8  C   UNK N   1      33.570  16.382   8.576  0.00  0.00     0.079 A 
HETATM    9  C   UNK N   1      32.911  17.610   8.576  0.00  0.00     0.027 A 
HETATM   10  C   UNK N   1      31.713  17.754   7.884  0.00  0.00     0.031 A 
BRANCH   8  11
HETATM   11  S   UNK N   1      34.993  16.170   9.624  0.00  0.00     0.256 S 
HETATM   12  O   UNK N   1      35.991  15.004   9.541  0.00  0.00    -0.201 OA
HETATM   13  O   UNK N   1      35.615  17.304  10.457  0.00  0.00    -0.201 OA
BRANCH  11  14
HETATM   14  N   UNK N   1      34.069  15.496  10.947  0.00  0.00    -0.324 N 
HETATM   15  H   UNK N   1      33.365  15.079  11.553  0.00  0.00     0.169 HD
HETATM   16  H   UNK N   1      34.791  15.601  11.660  0.00  0.00     0.169 HD
ENDBRANCH  11  14
ENDBRANCH   8  11
ENDBRANCH   1   5
BRANCH   2  17
HETATM   17  C   UNK N   1      28.502  17.331   4.540  0.00  0.00     0.129 A 
HETATM   18  C   UNK N   1      27.705  18.446   4.433  0.00  0.00     0.026 A 
HETATM   19  C   UNK N   1      27.861  19.759   4.875  0.00  0.00     0.016 A 
HETATM   20  C   UNK N   1      26.609  18.043   3.736  0.00  0.00     0.060 A 
HETATM   21  C   UNK N   1      26.834  20.671   4.576  0.00  0.00     0.001 A 
HETATM   22  C   UNK N   1      25.693  20.251   3.852  0.00  0.00     0.002 A 
HETATM   23  C   UNK N   1      25.572  18.915   3.421  0.00  0.00     0.032 A 
HETATM   24  N   UNK N   1      26.721  16.737   3.428  0.00  0.00    -0.299 N 
HETATM   25  N   UNK N   1      27.879  16.300   3.917  0.00  0.00    -0.294 N 
HETATM   26  H   UNK N   1      26.063  16.201   2.930  0.00  0.00     0.187 HD
ATOM     27  HN  UNK N   1      28.238  15.349   3.836  1.00  0.00     0.187 HD
ENDBRANCH   2  17
TORSDOF 4
ENDMDL
MODEL 6
REMARK VINA RESULT:      -6.9      7.805     12.292
REMARK  4 active torsions:
REMARK  status: ('A' for Active; 'I' for Inactive)
REMARK       I    between atoms: N_1  and  C_2 
REMARK    1  A    between atoms: N_1  and  C_22 
REMARK    2  A    between atoms: C_2  and  C_3 
REMARK    3  A    between atoms: C_15  and  S_18 
REMARK    4  A    between atoms: S_18  and  N_21 
ROOT
HETATM    1  N   UNK N   1      28.187  17.443   6.630  0.00  0.00    -0.322 N 
HETATM    2  C   UNK N   1      27.621  18.313   5.748  0.00  0.00     0.275 C 
HETATM    3  O   UNK N   1      28.286  19.200   5.228  0.00  0.00    -0.266 OA
HETATM    4  H   UNK N   1      27.611  16.741   7.011  0.00  0.00     0.169 HD
ENDROOT
BRANCH   1   5
HETATM    5  C   UNK N   1      29.554  17.472   7.040  0.00  0.00     0.035 A 
HETATM    6  C   UNK N   1      29.881  17.966   8.310  0.00  0.00     0.031 A 
HETATM    7  C   UNK N   1      31.216  17.993   8.734  0.00  0.00     0.027 A 
HETATM    8  C   UNK N   1      32.227  17.510   7.894  0.00  0.00     0.079 A 
HETATM    9  C   UNK N   1      31.909  17.034   6.624  0.00  0.00     0.027 A 
HETATM   10  C   UNK N   1      30.583  17.006   6.205  0.00  0.00     0.031 A 
BRANCH   8  11
HETATM   11  S   UNK N   1      33.940  17.718   8.332  0.00  0.00     0.256 S 
HETATM   12  O   UNK N   1      34.943  18.615   7.588  0.00  0.00    -0.201 OA
HETATM   13  O   UNK N   1      34.518  17.353   9.709  0.00  0.00    -0.201 OA
BRANCH  11  14
HETATM   14  N   UNK N   1      34.444  16.235   7.555  0.00  0.00    -0.324 N 
HETATM   15  H   UNK N   1      34.865  15.516   6.967  0.00  0.00     0.169 HD
HETATM   16  H   UNK N   1      33.896  15.604   8.139  0.00  0.00     0.169 HD
ENDBRANCH  11  14
ENDBRANCH   8  11
ENDBRANCH   1   5
BRANCH   2  17
HETATM   17  C   UNK N   1      26.205  18.181   5.380  0.00  0.00     0.129 A 
HETATM   18  C   UNK N   1      25.495  19.015   4.550  0.00  0.00     0.026 A 
HETATM   19  C   UNK N   1      25.847  20.165   3.846  0.00  0.00     0.016 A 
HETATM   20  C   UNK N   1      24.241  18.488   4.493  0.00  0.00     0.060 A 
HETATM   21  C   UNK N   1      24.854  20.777   3.061  0.00  0.00     0.001 A 
HETATM   22  C   UNK N   1      23.550  20.230   3.004  0.00  0.00     0.002 A 
HETATM   23  C   UNK N   1      23.231  19.064   3.730  0.00  0.00     0.032 A 
HETATM   24  N   UNK N   1      24.179  17.380   5.256  0.00  0.00    -0.299 N 
HETATM   25  N   UNK N   1      25.380  17.189   5.798  0.00  0.00    -0.294 N 
HETATM   26  H   UNK N   1      23.386  16.813   5.390  0.00  0.00     0.187 HD
ATOM     27  HN  UNK N   1      25.636  16.425   6.422  1.00  0.00     0.187 HD
ENDBRANCH   2  17
TORSDOF 4
ENDMDL
MODEL 7
REMARK VINA RESULT:      -6.8      2.093      2.583
REMARK  4 active torsions:
REMARK  status: ('A' for Active; 'I' for Inactive)
REMARK       I    between atoms: N_1  and  C_2 
REMARK    1  A    between atoms: N_1  and  C_22 
REMARK    2  A    between atoms: C_2  and  C_3 
REMARK    3  A    between atoms: C_15  and  S_18 
REMARK    4  A    between atoms: S_18  and  N_21 
ROOT
HETATM    1  N   UNK N   1      34.727  15.244  11.680  0.00  0.00    -0.322 N 
HETATM    2  C   UNK N   1      35.631  14.259  11.941  0.00  0.00     0.275 C 
HETATM    3  O   UNK N   1      36.190  13.663  11.030  0.00  0.00    -0.266 OA
HETATM    4  H   UNK N   1      34.314  15.699  12.449  0.00  0.00     0.169 HD
ENDROOT
BRANCH   1   5
HETATM    5  C   UNK N   1      34.336  15.665  10.374  0.00  0.00     0.035 A 
HETATM    6  C   UNK N   1      34.945  16.791   9.803  0.00  0.00     0.031 A 
HETATM    7  C   UNK N   1      34.581  17.214   8.517  0.00  0.00     0.027 A 
HETATM    8  C   UNK N   1      33.618  16.501   7.793  0.00  0.00     0.079 A 
HETATM    9  C   UNK N   1      32.996  15.392   8.363  0.00  0.00     0.027 A 
HETATM   10  C   UNK N   1      33.360  14.971   9.638  0.00  0.00     0.031 A 
BRANCH   8  11
HETATM   11  S   UNK N   1      33.000  17.133   6.247  0.00  0.00     0.256 S 
HETATM   12  O   UNK N   1      31.516  17.290   5.883  0.00  0.00    -0.201 OA
HETATM   13  O   UNK N   1      33.848  17.958   5.264  0.00  0.00    -0.201 OA
BRANCH  11  14
HETATM   14  N   UNK N   1      33.214  15.618   5.403  0.00  0.00    -0.324 N 
HETATM   15  H   UNK N   1      33.137  14.795   4.806  0.00  0.00     0.169 HD
HETATM   16  H   UNK N   1      34.089  15.354   5.855  0.00  0.00     0.169 HD
ENDBRANCH  11  14
ENDBRANCH   8  11
ENDBRANCH   1   5
BRANCH   2  17
HETATM   17  C   UNK N   1      35.977  13.917  13.328  0.00  0.00     0.129 A 
HETATM   18  C   UNK N   1      35.456  12.884  14.070  0.00  0.00     0.026 A 
HETATM   19  C   UNK N   1      34.507  11.904  13.782  0.00  0.00     0.016 A 
HETATM   20  C   UNK N   1      36.083  12.951  15.276  0.00  0.00     0.060 A 
HETATM   21  C   UNK N   1      34.212  10.970  14.790  0.00  0.00     0.001 A 
HETATM   22  C   UNK N   1      34.864  11.040  16.044  0.00  0.00     0.002 A 
HETATM   23  C   UNK N   1      35.818  12.047  16.298  0.00  0.00     0.032 A 
HETATM   24  N   UNK N   1      36.951  13.980  15.279  0.00  0.00    -0.299 N 
HETATM   25  N   UNK N   1      36.889  14.572  14.088  0.00  0.00    -0.294 N 
HETATM   26  H   UNK N   1      37.528  14.249  16.030  0.00  0.00     0.187 HD
ATOM     27  HN  UNK N   1      37.436  15.381  13.797  1.00  0.00     0.187 HD
ENDBRANCH   2  17
TORSDOF 4
ENDMDL
MODEL 8
REMARK VINA RESULT:      -6.6      9.869     13.273
REMARK  4 active torsions:
REMARK  status: ('A' for Active; 'I' for Inactive)
REMARK       I    between atoms: N_1  and  C_2 
REMARK    1  A    between atoms: N_1  and  C_22 
REMARK    2  A    between atoms: C_2  and  C_3 
REMARK    3  A    between atoms: C_15  and  S_18 
REMARK    4  A    between atoms: S_18  and  N_21 
ROOT
HETATM    1  N   UNK N   1      27.132  18.718   3.988  0.00  0.00    -0.322 N 
HETATM    2  C   UNK N   1      27.704  17.506   3.745  0.00  0.00     0.275 C 
HETATM    3  O   UNK N   1      27.034  16.568   3.333  0.00  0.00    -0.266 OA
HETATM    4  H   UNK N   1      27.717  19.442   4.308  0.00  0.00     0.169 HD
ENDROOT
BRANCH   1   5
HETATM    5  C   UNK N   1      25.748  19.017   3.810  0.00  0.00     0.035 A 
HETATM    6  C   UNK N   1      24.788  18.265   4.501  0.00  0.00     0.031 A 
HETATM    7  C   UNK N   1      23.425  18.550   4.347  0.00  0.00     0.027 A 
HETATM    8  C   UNK N   1      23.019  19.600   3.513  0.00  0.00     0.079 A 
HETATM    9  C   UNK N   1      23.968  20.338   2.810  0.00  0.00     0.027 A 
HETATM   10  C   UNK N   1      25.322  20.055   2.965  0.00  0.00     0.031 A 
BRANCH   8  11
HETATM   11  S   UNK N   1      21.294  19.849   3.150  0.00  0.00     0.256 S 
HETATM   12  O   UNK N   1      20.525  19.182   1.998  0.00  0.00    -0.201 OA
HETATM   13  O   UNK N   1      20.287  20.431   4.156  0.00  0.00    -0.201 OA
BRANCH  11  14
HETATM   14  N   UNK N   1      21.564  21.358   2.310  0.00  0.00    -0.324 N 
HETATM   15  H   UNK N   1      21.934  22.224   1.919  0.00  0.00     0.169 HD
HETATM   16  H   UNK N   1      20.642  21.418   1.877  0.00  0.00     0.169 HD
ENDBRANCH  11  14
ENDBRANCH   8  11
ENDBRANCH   1   5
BRANCH   2  17
HETATM   17  C   UNK N   1      29.147  17.312   3.944  0.00  0.00     0.129 A 
HETATM   18  C   UNK N   1      29.815  17.318   5.144  0.00  0.00     0.026 A 
HETATM   19  C   UNK N   1      29.387  17.496   6.459  0.00  0.00     0.016 A 
HETATM   20  C   UNK N   1      31.119  17.083   4.835  0.00  0.00     0.060 A 
HETATM   21  C   UNK N   1      30.357  17.426   7.474  0.00  0.00     0.001 A 
HETATM   22  C   UNK N   1      31.713  17.182   7.151  0.00  0.00     0.002 A 
HETATM   23  C   UNK N   1      32.108  17.007   5.809  0.00  0.00     0.032 A 
HETATM   24  N   UNK N   1      31.251  16.941   3.502  0.00  0.00    -0.299 N 
HETATM   25  N   UNK N   1      30.045  17.079   2.955  0.00  0.00    -0.294 N 
HETATM   26  H   UNK N   1      32.090  16.766   3.019  0.00  0.00     0.187 HD
ATOM     27  HN  UNK N   1      29.833  17.019   1.960  1.00  0.00     0.187 HD
ENDBRANCH   2  17
TORSDOF 4
ENDMDL
MODEL 9
REMARK VINA RESULT:      -6.4      5.774     10.648
REMARK  4 active torsions:
REMARK  status: ('A' for Active; 'I' for Inactive)
REMARK       I    between atoms: N_1  and  C_2 
REMARK    1  A    between atoms: N_1  and  C_22 
REMARK    2  A    between atoms: C_2  and  C_3 
REMARK    3  A    between atoms: C_15  and  S_18 
REMARK    4  A    between atoms: S_18  and  N_21 
ROOT
HETATM    1  N   UNK N   1      30.485  17.535   7.039  0.00  0.00    -0.322 N 
HETATM    2  C   UNK N   1      29.384  18.027   7.671  0.00  0.00     0.275 C 
HETATM    3  O   UNK N   1      29.352  18.125   8.890  0.00  0.00    -0.266 OA
HETATM    4  H   UNK N   1      30.463  17.487   6.056  0.00  0.00     0.169 HD
ENDROOT
BRANCH   1   5
HETATM    5  C   UNK N   1      31.669  17.086   7.696  0.00  0.00     0.035 A 
HETATM    6  C   UNK N   1      31.813  15.725   8.001  0.00  0.00     0.031 A 
HETATM    7  C   UNK N   1      32.973  15.264   8.637  0.00  0.00     0.027 A 
HETATM    8  C   UNK N   1      34.000  16.161   8.957  0.00  0.00     0.079 A 
HETATM    9  C   UNK N   1      33.854  17.517   8.673  0.00  0.00     0.027 A 
HETATM   10  C   UNK N   1      32.703  17.974   8.039  0.00  0.00     0.031 A 
BRANCH   8  11
HETATM   11  S   UNK N   1      35.388  15.632   9.939  0.00  0.00     0.256 S 
HETATM   12  O   UNK N   1      36.047  14.246   9.869  0.00  0.00    -0.201 OA
HETATM   13  O   UNK N   1      36.331  16.600  10.672  0.00  0.00    -0.201 OA
BRANCH  11  14
HETATM   14  N   UNK N   1      34.411  15.273  11.344  0.00  0.00    -0.324 N 
HETATM   15  H   UNK N   1      33.670  15.161  12.035  0.00  0.00     0.169 HD
HETATM   16  H   UNK N   1      35.155  14.851  11.900  0.00  0.00     0.169 HD
ENDBRANCH  11  14
ENDBRANCH   8  11
ENDBRANCH   1   5
BRANCH   2  17
HETATM   17  C   UNK N   1      28.222  18.481   6.893  0.00  0.00     0.129 A 
HETATM   18  C   UNK N   1      27.717  17.893   5.758  0.00  0.00     0.026 A 
HETATM   19  C   UNK N   1      28.104  16.770   5.029  0.00  0.00     0.016 A 
HETATM   20  C   UNK N   1      26.641  18.648   5.407  0.00  0.00     0.060 A 
HETATM   21  C   UNK N   1      27.338  16.433   3.900  0.00  0.00     0.001 A 
HETATM   22  C   UNK N   1      26.219  17.218   3.534  0.00  0.00     0.002 A 
HETATM   23  C   UNK N   1      25.859  18.348   4.297  0.00  0.00     0.032 A 
HETATM   24  N   UNK N   1      26.489  19.658   6.284  0.00  0.00    -0.299 N 
HETATM   25  N   UNK N   1      27.455  19.558   7.195  0.00  0.00    -0.294 N 
HETATM   26  H   UNK N   1      25.789  20.350   6.255  0.00  0.00     0.187 HD
ATOM     27  HN  UNK N   1      27.593  20.185   7.987  1.00  0.00     0.187 HD
ENDBRANCH   2  17
TORSDOF 4
ENDMDL
