MODEL 1
REMARK VINA RESULT:      -6.8      0.000      0.000
REMARK  4 active torsions:
REMARK  status: ('A' for Active; 'I' for Inactive)
REMARK    1  A    between atoms: N_1  and  S_2 
REMARK    2  A    between atoms: S_2  and  C_5 
REMARK    3  A    between atoms: C_8  and  N_9 
REMARK    4  A    between atoms: N_9  and  C_10 
ROOT
HETATM    1  C   UNK N   1      34.929  16.603   9.250  0.00  0.00     0.079 A 
HETATM    2  C   UNK N   1      35.164  15.301   8.790  0.00  0.00     0.027 A 
HETATM    3  C   UNK N   1      35.759  14.356   9.637  0.00  0.00     0.031 A 
HETATM    4  C   UNK N   1      36.119  14.710  10.944  0.00  0.00     0.033 A 
HETATM    5  C   UNK N   1      35.874  16.019  11.389  0.00  0.00     0.031 A 
HETATM    6  C   UNK N   1      35.287  16.958  10.549  0.00  0.00     0.027 A 
ENDROOT
BRANCH   4   7
HETATM    7  N   UNK N   1      36.760  13.755  11.783  0.00  0.00    -0.341 N 
HETATM    8  H   UNK N   1      37.433  13.162  11.378  0.00  0.00     0.167 HD
BRANCH   7   9
HETATM    9  C   UNK N   1      36.489  13.605  13.170  0.00  0.00     0.122 A 
HETATM   10  C   UNK N   1      35.656  12.577  13.616  0.00  0.00     0.136 A 
HETATM   11  N   UNK N   1      35.385  12.460  14.944  0.00  0.00    -0.369 N 
HETATM   12  C   UNK N   1      35.904  13.337  15.847  0.00  0.00     0.130 A 
ATOM     13  HN  UNK N   1      34.783  11.703  15.268  1.00  0.00     0.164 HD
HETATM   14  C   UNK N   1      36.729  14.368  15.402  0.00  0.00     0.120 A 
HETATM   15 Cl   UNK N   1      37.403  15.525  16.530  0.00  0.00    -0.063 Cl
HETATM   16  N   UNK N   1      37.001  14.480  14.081  0.00  0.00    -0.331 N 
ATOM     17  HN  UNK N   1      37.606  15.237  13.760  1.00  0.00     0.168 HD
ENDBRANCH   7   9
ENDBRANCH   4   7
BRANCH   1  18
HETATM   18  S   UNK N   1      34.291  17.856   8.153  0.00  0.00     0.256 S 
HETATM   19  O   UNK N   1      34.979  19.216   8.350  0.00  0.00    -0.201 OA
HETATM   20  O   UNK N   1      34.634  17.544   6.690  0.00  0.00    -0.201 OA
BRANCH  18  21
HETATM   21  N   UNK N   1      32.562  18.212   8.155  0.00  0.00    -0.324 N 
HETATM   22  H   UNK N   1      31.936  18.934   8.509  0.00  0.00     0.169 HD
HETATM   23  H   UNK N   1      32.041  17.487   7.661  0.00  0.00     0.169 HD
ENDBRANCH  18  21
ENDBRANCH   1  18
TORSDOF 4
ENDMDL
MODEL 2
REMARK VINA RESULT:      -6.5      6.743     10.051
REMARK  4 active torsions:
REMARK  status: ('A' for Active; 'I' for Inactive)
REMARK    1  A    between atoms: N_1  and  S_2 
REMARK    2  A    between atoms: S_2  and  C_5 
REMARK    3  A    between atoms: C_8  and  N_9 
REMARK    4  A    between atoms: N_9  and  C_10 
ROOT
HETATM    1  C   UNK N   1      32.488  17.314   7.697  0.00  0.00     0.079 A 
HETATM    2  C   UNK N   1      31.466  17.552   8.625  0.00  0.00     0.027 A 
HETATM    3  C   UNK N   1      30.131  17.594   8.200  0.00  0.00     0.031 A 
HETATM    4  C   UNK N   1      29.816  17.398   6.849  0.00  0.00     0.033 A 
HETATM    5  C   UNK N   1      30.853  17.158   5.934  0.00  0.00     0.031 A 
HETATM    6  C   UNK N   1      32.177  17.119   6.354  0.00  0.00     0.027 A 
ENDROOT
BRANCH   4   7
HETATM    7  N   UNK N   1      28.461  17.484   6.421  0.00  0.00    -0.341 N 
HETATM    8  H   UNK N   1      27.931  16.654   6.394  0.00  0.00     0.167 HD
BRANCH   7   9
HETATM    9  C   UNK N   1      27.824  18.693   6.031  0.00  0.00     0.122 A 
HETATM   10  C   UNK N   1      27.820  19.083   4.690  0.00  0.00     0.136 A 
HETATM   11  N   UNK N   1      27.229  20.255   4.333  0.00  0.00    -0.369 N 
HETATM   12  C   UNK N   1      26.650  21.062   5.264  0.00  0.00     0.130 A 
ATOM     13  HN  UNK N   1      27.219  20.534   3.353  1.00  0.00     0.164 HD
HETATM   14  C   UNK N   1      26.660  20.677   6.604  0.00  0.00     0.120 A 
HETATM   15 Cl   UNK N   1      25.939  21.694   7.833  0.00  0.00    -0.063 Cl
HETATM   16  N   UNK N   1      27.245  19.508   6.956  0.00  0.00    -0.331 N 
ATOM     17  HN  UNK N   1      27.251  19.230   7.938  1.00  0.00     0.168 HD
ENDBRANCH   7   9
ENDBRANCH   4   7
BRANCH   1  18
HETATM   18  S   UNK N   1      34.201  17.380   8.190  0.00  0.00     0.256 S 
HETATM   19  O   UNK N   1      35.067  16.348   7.450  0.00  0.00    -0.201 OA
HETATM   20  O   UNK N   1      34.855  18.701   7.757  0.00  0.00    -0.201 OA
BRANCH  18  21
HETATM   21  N   UNK N   1      34.621  17.195   9.894  0.00  0.00    -0.324 N 
HETATM   22  H   UNK N   1      34.262  16.712  10.717  0.00  0.00     0.169 HD
HETATM   23  H   UNK N   1      35.465  17.722  10.121  0.00  0.00     0.169 HD
ENDBRANCH  18  21
ENDBRANCH   1  18
TORSDOF 4
ENDMDL
MODEL 3
REMARK VINA RESULT:      -6.5      1.728      2.288
REMARK  4 active torsions:
REMARK  status: ('A' for Active; 'I' for Inactive)
REMARK    1  A    between atoms: N_1  and  S_2 
REMARK    2  A    between atoms: S_2  and  C_5 
REMARK    3  A    between atoms: C_8  and  N_9 
REMARK    4  A    between atoms: N_9  and  C_10 
ROOT
HETATM    1  C   UNK N   1      35.068  16.585   9.260  0.00  0.00     0.079 A 
HETATM    2  C   UNK N   1      35.360  16.853  10.604  0.00  0.00     0.027 A 
HETATM    3  C   UNK N   1      35.857  15.834  11.428  0.00  0.00     0.031 A 
HETATM    4  C   UNK N   1      36.063  14.548  10.911  0.00  0.00     0.033 A 
HETATM    5  C   UNK N   1      35.767  14.298   9.562  0.00  0.00     0.031 A 
HETATM    6  C   UNK N   1      35.271  15.307   8.744  0.00  0.00     0.027 A 
ENDROOT
BRANCH   4   7
HETATM    7  N   UNK N   1      36.529  13.510  11.767  0.00  0.00    -0.341 N 
HETATM    8  H   UNK N   1      37.271  12.947  11.449  0.00  0.00     0.167 HD
BRANCH   7   9
HETATM    9  C   UNK N   1      35.990  13.237  13.054  0.00  0.00     0.122 A 
HETATM   10  C   UNK N   1      36.448  13.938  14.171  0.00  0.00     0.136 A 
HETATM   11  N   UNK N   1      35.941  13.649  15.399  0.00  0.00    -0.369 N 
HETATM   12  C   UNK N   1      35.002  12.678  15.562  0.00  0.00     0.130 A 
ATOM     13  HN  UNK N   1      36.271  14.168  16.213  1.00  0.00     0.164 HD
HETATM   14  C   UNK N   1      34.549  11.972  14.449  0.00  0.00     0.120 A 
HETATM   15 Cl   UNK N   1      33.353  10.705  14.617  0.00  0.00    -0.063 Cl
HETATM   16  N   UNK N   1      35.051  12.264  13.225  0.00  0.00    -0.331 N 
ATOM     17  HN  UNK N   1      34.717  11.744  12.413  1.00  0.00     0.168 HD
ENDBRANCH   7   9
ENDBRANCH   4   7
BRANCH   1  18
HETATM   18  S   UNK N   1      34.317  17.829   8.225  0.00  0.00     0.256 S 
HETATM   19  O   UNK N   1      34.962  19.212   8.404  0.00  0.00    -0.201 OA
HETATM   20  O   UNK N   1      34.584  17.552   6.738  0.00  0.00    -0.201 OA
BRANCH  18  21
HETATM   21  N   UNK N   1      32.579  18.115   8.335  0.00  0.00    -0.324 N 
HETATM   22  H   UNK N   1      31.902  18.421   9.034  0.00  0.00     0.169 HD
HETATM   23  H   UNK N   1      32.120  17.917   7.445  0.00  0.00     0.169 HD
ENDBRANCH  18  21
ENDBRANCH   1  18
TORSDOF 4
ENDMDL
MODEL 4
REMARK VINA RESULT:      -6.2      7.238     10.354
REMARK  4 active torsions:
REMARK  status: ('A' for Active; 'I' for Inactive)
REMARK    1  A    between atoms: N_1  and  S_2 
REMARK    2  A    between atoms: S_2  and  C_5 
REMARK    3  A    between atoms: C_8  and  N_9 
REMARK    4  A    between atoms: N_9  and  C_10 
ROOT
HETATM    1  C   UNK N   1      32.377  17.637   7.810  0.00  0.00     0.079 A 
HETATM    2  C   UNK N   1      31.939  17.174   6.562  0.00  0.00     0.027 A 
HETATM    3  C   UNK N   1      30.568  17.129   6.273  0.00  0.00     0.031 A 
HETATM    4  C   UNK N   1      29.634  17.548   7.230  0.00  0.00     0.033 A 
HETATM    5  C   UNK N   1      30.090  18.012   8.474  0.00  0.00     0.031 A 
HETATM    6  C   UNK N   1      31.450  18.053   8.762  0.00  0.00     0.027 A 
ENDROOT
BRANCH   4   7
HETATM    7  N   UNK N   1      28.243  17.460   6.942  0.00  0.00    -0.341 N 
HETATM    8  H   UNK N   1      27.762  16.648   7.223  0.00  0.00     0.167 HD
BRANCH   7   9
HETATM    9  C   UNK N   1      27.503  18.474   6.274  0.00  0.00     0.122 A 
HETATM   10  C   UNK N   1      27.873  19.814   6.402  0.00  0.00     0.136 A 
HETATM   11  N   UNK N   1      27.141  20.776   5.778  0.00  0.00    -0.369 N 
HETATM   12  C   UNK N   1      26.046  20.455   5.036  0.00  0.00     0.130 A 
ATOM     13  HN  UNK N   1      27.418  21.753   5.866  1.00  0.00     0.164 HD
HETATM   14  C   UNK N   1      25.671  19.118   4.913  0.00  0.00     0.120 A 
HETATM   15 Cl   UNK N   1      24.260  18.665   3.982  0.00  0.00    -0.063 Cl
HETATM   16  N   UNK N   1      26.403  18.162   5.532  0.00  0.00    -0.331 N 
ATOM     17  HN  UNK N   1      26.125  17.184   5.440  1.00  0.00     0.168 HD
ENDBRANCH   7   9
ENDBRANCH   4   7
BRANCH   1  18
HETATM   18  S   UNK N   1      34.106  17.584   8.247  0.00  0.00     0.256 S 
HETATM   19  O   UNK N   1      34.919  16.667   7.321  0.00  0.00    -0.201 OA
HETATM   20  O   UNK N   1      34.781  18.943   8.011  0.00  0.00    -0.201 OA
BRANCH  18  21
HETATM   21  N   UNK N   1      34.572  17.116   9.883  0.00  0.00    -0.324 N 
HETATM   22  H   UNK N   1      34.366  16.370  10.548  0.00  0.00     0.169 HD
HETATM   23  H   UNK N   1      35.238  17.781  10.277  0.00  0.00     0.169 HD
ENDBRANCH  18  21
ENDBRANCH   1  18
TORSDOF 4
ENDMDL
MODEL 5
REMARK VINA RESULT:      -6.1     11.325     13.592
REMARK  4 active torsions:
REMARK  status: ('A' for Active; 'I' for Inactive)
REMARK    1  A    between atoms: N_1  and  S_2 
REMARK    2  A    between atoms: S_2  and  C_5 
REMARK    3  A    between atoms: C_8  and  N_9 
REMARK    4  A    between atoms: N_9  and  C_10 
ROOT
HETATM    1  C   UNK N   1      22.744  19.623   3.287  0.00  0.00     0.079 A 
HETATM    2  C   UNK N   1      23.594  20.605   2.761  0.00  0.00     0.027 A 
HETATM    3  C   UNK N   1      24.959  20.593   3.080  0.00  0.00     0.031 A 
HETATM    4  C   UNK N   1      25.476  19.601   3.924  0.00  0.00     0.033 A 
HETATM    5  C   UNK N   1      24.610  18.624   4.440  0.00  0.00     0.031 A 
HETATM    6  C   UNK N   1      23.256  18.637   4.126  0.00  0.00     0.027 A 
ENDROOT
BRANCH   4   7
HETATM    7  N   UNK N   1      26.855  19.622   4.274  0.00  0.00    -0.341 N 
HETATM    8  H   UNK N   1      27.506  19.863   3.576  0.00  0.00     0.167 HD
BRANCH   7   9
HETATM    9  C   UNK N   1      27.352  19.319   5.571  0.00  0.00     0.122 A 
HETATM   10  C   UNK N   1      26.935  20.064   6.676  0.00  0.00     0.136 A 
HETATM   11  N   UNK N   1      27.437  19.779   7.907  0.00  0.00    -0.369 N 
HETATM   12  C   UNK N   1      28.350  18.785   8.081  0.00  0.00     0.130 A 
ATOM     13  HN  UNK N   1      27.125  20.319   8.713  1.00  0.00     0.164 HD
HETATM   14  C   UNK N   1      28.773  18.045   6.978  0.00  0.00     0.120 A 
HETATM   15 Cl   UNK N   1      29.957  16.767   7.157  0.00  0.00    -0.063 Cl
HETATM   16  N   UNK N   1      28.268  18.327   5.753  0.00  0.00    -0.331 N 
ATOM     17  HN  UNK N   1      28.581  17.783   4.949  1.00  0.00     0.168 HD
ENDBRANCH   7   9
ENDBRANCH   4   7
BRANCH   1  18
HETATM   18  S   UNK N   1      20.985  19.690   2.999  0.00  0.00     0.256 S 
HETATM   19  O   UNK N   1      20.265  18.412   3.458  0.00  0.00    -0.201 OA
HETATM   20  O   UNK N   1      20.316  20.756   3.878  0.00  0.00    -0.201 OA
BRANCH  18  21
HETATM   21  N   UNK N   1      20.385  19.995   1.368  0.00  0.00    -0.324 N 
HETATM   22  H   UNK N   1      19.992  19.463   0.591  0.00  0.00     0.169 HD
HETATM   23  H   UNK N   1      20.448  20.986   1.135  0.00  0.00     0.169 HD
ENDBRANCH  18  21
ENDBRANCH   1  18
TORSDOF 4
ENDMDL
MODEL 6
REMARK VINA RESULT:      -6.0     21.238     22.304
REMARK  4 active torsions:
REMARK  status: ('A' for Active; 'I' for Inactive)
REMARK    1  A    between atoms: N_1  and  S_2 
REMARK    2  A    between atoms: S_2  and  C_5 
REMARK    3  A    between atoms: C_8  and  N_9 
REMARK    4  A    between atoms: N_9  and  C_10 
ROOT
HETATM    1  C   UNK N   1      25.940  25.054  -5.920  0.00  0.00     0.079 A 
HETATM    2  C   UNK N   1      25.247  26.204  -6.320  0.00  0.00     0.027 A 
HETATM    3  C   UNK N   1      25.189  27.318  -5.471  0.00  0.00     0.031 A 
HETATM    4  C   UNK N   1      25.824  27.284  -4.222  0.00  0.00     0.033 A 
HETATM    5  C   UNK N   1      26.517  26.125  -3.839  0.00  0.00     0.031 A 
HETATM    6  C   UNK N   1      26.572  25.019  -4.679  0.00  0.00     0.027 A 
ENDROOT
BRANCH   4   7
HETATM    7  N   UNK N   1      25.725  28.405  -3.350  0.00  0.00    -0.341 N 
HETATM    8  H   UNK N   1      24.863  28.569  -2.904  0.00  0.00     0.167 HD
BRANCH   7   9
HETATM    9  C   UNK N   1      26.794  29.303  -3.084  0.00  0.00     0.122 A 
HETATM   10  C   UNK N   1      27.194  30.226  -4.054  0.00  0.00     0.136 A 
HETATM   11  N   UNK N   1      28.235  31.062  -3.795  0.00  0.00    -0.369 N 
HETATM   12  C   UNK N   1      28.902  31.009  -2.610  0.00  0.00     0.130 A 
ATOM     13  HN  UNK N   1      28.520  31.741  -4.501  1.00  0.00     0.164 HD
HETATM   14  C   UNK N   1      28.508  30.084  -1.645  0.00  0.00     0.120 A 
HETATM   15 Cl   UNK N   1      29.350  29.973  -0.114  0.00  0.00    -0.063 Cl
HETATM   16  N   UNK N   1      27.469  29.255  -1.902  0.00  0.00    -0.331 N 
ATOM     17  HN  UNK N   1      27.185  28.578  -1.193  1.00  0.00     0.168 HD
ENDBRANCH   7   9
ENDBRANCH   4   7
BRANCH   1  18
HETATM   18  S   UNK N   1      25.922  23.581  -6.927  0.00  0.00     0.256 S 
HETATM   19  O   UNK N   1      25.107  22.444  -6.290  0.00  0.00    -0.201 OA
HETATM   20  O   UNK N   1      25.160  23.813  -8.239  0.00  0.00    -0.201 OA
BRANCH  18  21
HETATM   21  N   UNK N   1      27.450  22.839  -7.405  0.00  0.00    -0.324 N 
HETATM   22  H   UNK N   1      27.769  22.071  -7.994  0.00  0.00     0.169 HD
HETATM   23  H   UNK N   1      28.239  23.316  -6.968  0.00  0.00     0.169 HD
ENDBRANCH  18  21
ENDBRANCH   1  18
TORSDOF 4
ENDMDL
MODEL 7
REMARK VINA RESULT:      -5.9      5.978      8.101
REMARK  4 active torsions:
REMARK  status: ('A' for Active; 'I' for Inactive)
REMARK    1  A    between atoms: N_1  and  S_2 
REMARK    2  A    between atoms: S_2  and  C_5 
REMARK    3  A    between atoms: C_8  and  N_9 
REMARK    4  A    between atoms: N_9  and  C_10 
ROOT
HETATM    1  C   UNK N   1      35.890  12.362  15.698  0.00  0.00     0.079 A 
HETATM    2  C   UNK N   1      36.437  11.082  15.857  0.00  0.00     0.027 A 
HETATM    3  C   UNK N   1      36.377  10.445  17.104  0.00  0.00     0.031 A 
HETATM    4  C   UNK N   1      35.769  11.084  18.192  0.00  0.00     0.033 A 
HETATM    5  C   UNK N   1      35.224  12.365  18.014  0.00  0.00     0.031 A 
HETATM    6  C   UNK N   1      35.286  13.000  16.779  0.00  0.00     0.027 A 
ENDROOT
BRANCH   4   7
HETATM    7  N   UNK N   1      35.749  10.445  19.464  0.00  0.00    -0.341 N 
HETATM    8  H   UNK N   1      36.609  10.289  19.917  0.00  0.00     0.167 HD
BRANCH   7   9
HETATM    9  C   UNK N   1      34.564  10.019  20.122  0.00  0.00     0.122 A 
HETATM   10  C   UNK N   1      33.668   9.167  19.472  0.00  0.00     0.136 A 
HETATM   11  N   UNK N   1      32.525   8.786  20.103  0.00  0.00    -0.369 N 
HETATM   12  C   UNK N   1      32.232   9.231  21.356  0.00  0.00     0.130 A 
ATOM     13  HN  UNK N   1      31.876   8.157  19.631  1.00  0.00     0.164 HD
HETATM   14  C   UNK N   1      33.122  10.087  22.003  0.00  0.00     0.120 A 
HETATM   15 Cl   UNK N   1      32.776  10.693  23.608  0.00  0.00    -0.063 Cl
HETATM   16  N   UNK N   1      34.262  10.461  21.374  0.00  0.00    -0.331 N 
ATOM     17  HN  UNK N   1      34.910  11.089  21.851  1.00  0.00     0.168 HD
ENDBRANCH   7   9
ENDBRANCH   4   7
BRANCH   1  18
HETATM   18  S   UNK N   1      36.066  13.245  14.158  0.00  0.00     0.256 S 
HETATM   19  O   UNK N   1      36.823  12.431  13.096  0.00  0.00    -0.201 OA
HETATM   20  O   UNK N   1      34.706  13.453  13.477  0.00  0.00    -0.201 OA
BRANCH  18  21
HETATM   21  N   UNK N   1      36.833  14.834  14.152  0.00  0.00    -0.324 N 
HETATM   22  H   UNK N   1      36.714  15.736  14.611  0.00  0.00     0.169 HD
HETATM   23  H   UNK N   1      37.621  14.856  13.504  0.00  0.00     0.169 HD
ENDBRANCH  18  21
ENDBRANCH   1  18
TORSDOF 4
ENDMDL
MODEL 8
REMARK VINA RESULT:      -5.9     12.225     14.300
REMARK  4 active torsions:
REMARK  status: ('A' for Active; 'I' for Inactive)
REMARK    1  A    between atoms: N_1  and  S_2 
REMARK    2  A    between atoms: S_2  and  C_5 
REMARK    3  A    between atoms: C_8  and  N_9 
REMARK    4  A    between atoms: N_9  and  C_10 
ROOT
HETATM    1  C   UNK N   1      22.634  19.668   3.294  0.00  0.00     0.079 A 
HETATM    2  C   UNK N   1      23.791  20.413   3.031  0.00  0.00     0.027 A 
HETATM    3  C   UNK N   1      25.009  20.046   3.619  0.00  0.00     0.031 A 
HETATM    4  C   UNK N   1      25.073  18.935   4.470  0.00  0.00     0.033 A 
HETATM    5  C   UNK N   1      23.904  18.198   4.720  0.00  0.00     0.031 A 
HETATM    6  C   UNK N   1      22.695  18.564   4.140  0.00  0.00     0.027 A 
ENDROOT
BRANCH   4   7
HETATM    7  N   UNK N   1      26.306  18.595   5.095  0.00  0.00    -0.341 N 
HETATM    8  H   UNK N   1      26.449  18.886   6.024  0.00  0.00     0.167 HD
BRANCH   7   9
HETATM    9  C   UNK N   1      27.344  17.861   4.460  0.00  0.00     0.122 A 
HETATM   10  C   UNK N   1      28.680  18.218   4.658  0.00  0.00     0.136 A 
HETATM   11  N   UNK N   1      29.662  17.523   4.024  0.00  0.00    -0.369 N 
HETATM   12  C   UNK N   1      29.365  16.489   3.189  0.00  0.00     0.130 A 
ATOM     13  HN  UNK N   1      30.637  17.779   4.176  1.00  0.00     0.164 HD
HETATM   14  C   UNK N   1      28.032  16.136   2.985  0.00  0.00     0.120 A 
HETATM   15 Cl   UNK N   1      27.608  14.823   1.908  0.00  0.00    -0.063 Cl
HETATM   16  N   UNK N   1      27.056  16.827   3.620  0.00  0.00    -0.331 N 
ATOM     17  HN  UNK N   1      26.081  16.565   3.467  1.00  0.00     0.168 HD
ENDBRANCH   7   9
ENDBRANCH   4   7
BRANCH   1  18
HETATM   18  S   UNK N   1      21.050  20.188   2.659  0.00  0.00     0.256 S 
HETATM   19  O   UNK N   1      20.175  20.851   3.734  0.00  0.00    -0.201 OA
HETATM   20  O   UNK N   1      21.204  21.326   1.640  0.00  0.00    -0.201 OA
BRANCH  18  21
HETATM   21  N   UNK N   1      20.000  19.006   1.876  0.00  0.00    -0.324 N 
HETATM   22  H   UNK N   1      19.378  18.960   1.069  0.00  0.00     0.169 HD
HETATM   23  H   UNK N   1      20.021  18.115   2.372  0.00  0.00     0.169 HD
ENDBRANCH  18  21
ENDBRANCH   1  18
TORSDOF 4
ENDMDL
MODEL 9
REMARK VINA RESULT:      -5.9     17.301     20.216
REMARK  4 active torsions:
REMARK  status: ('A' for Active; 'I' for Inactive)
REMARK    1  A    between atoms: N_1  and  S_2 
REMARK    2  A    between atoms: S_2  and  C_5 
REMARK    3  A    between atoms: C_8  and  N_9 
REMARK    4  A    between atoms: N_9  and  C_10 
ROOT
HETATM    1  C   UNK N   1      30.786  22.388  -3.419  0.00  0.00     0.079 A 
HETATM    2  C   UNK N   1      30.146  22.799  -4.595  0.00  0.00     0.027 A 
HETATM    3  C   UNK N   1      28.928  23.489  -4.524  0.00  0.00     0.031 A 
HETATM    4  C   UNK N   1      28.349  23.769  -3.279  0.00  0.00     0.033 A 
HETATM    5  C   UNK N   1      29.006  23.351  -2.111  0.00  0.00     0.031 A 
HETATM    6  C   UNK N   1      30.212  22.664  -2.180  0.00  0.00     0.027 A 
ENDROOT
BRANCH   4   7
HETATM    7  N   UNK N   1      27.092  24.434  -3.219  0.00  0.00    -0.341 N 
HETATM    8  H   UNK N   1      26.544  24.315  -2.410  0.00  0.00     0.167 HD
BRANCH   7   9
HETATM    9  C   UNK N   1      26.578  25.260  -4.255  0.00  0.00     0.122 A 
HETATM   10  C   UNK N   1      25.637  24.755  -5.155  0.00  0.00     0.136 A 
HETATM   11  N   UNK N   1      25.172  25.549  -6.156  0.00  0.00    -0.369 N 
HETATM   12  C   UNK N   1      25.618  26.827  -6.305  0.00  0.00     0.130 A 
ATOM     13  HN  UNK N   1      24.479  25.182  -6.807  1.00  0.00     0.164 HD
HETATM   14  C   UNK N   1      26.563  27.329  -5.413  0.00  0.00     0.120 A 
HETATM   15 Cl   UNK N   1      27.174  28.961  -5.579  0.00  0.00    -0.063 Cl
HETATM   16  N   UNK N   1      27.021  26.539  -4.413  0.00  0.00    -0.331 N 
ATOM     17  HN  UNK N   1      27.714  26.911  -3.762  1.00  0.00     0.168 HD
ENDBRANCH   7   9
ENDBRANCH   4   7
BRANCH   1  18
HETATM   18  S   UNK N   1      32.270  21.400  -3.486  0.00  0.00     0.256 S 
HETATM   19  O   UNK N   1      33.384  22.066  -4.309  0.00  0.00    -0.201 OA
HETATM   20  O   UNK N   1      32.929  21.290  -2.104  0.00  0.00    -0.201 OA
BRANCH  18  21
HETATM   21  N   UNK N   1      32.183  19.743  -4.088  0.00  0.00    -0.324 N 
HETATM   22  H   UNK N   1      32.490  19.215  -4.904  0.00  0.00     0.169 HD
HETATM   23  H   UNK N   1      31.681  19.143  -3.433  0.00  0.00     0.169 HD
ENDBRANCH  18  21
ENDBRANCH   1  18
TORSDOF 4
ENDMDL
