REMARK  4 active torsions:
REMARK  status: ('A' for Active; 'I' for Inactive)
REMARK    1  A    between atoms: N_1  and  S_2 
REMARK    2  A    between atoms: S_2  and  C_5 
REMARK    3  A    between atoms: C_8  and  N_9 
REMARK    4  A    between atoms: N_9  and  C_10 
ROOT
HETATM    1  C   UNK N   1      17.159   6.599  -0.040  0.00  0.00     0.079 A 
HETATM    2  C   UNK N   1      18.289   5.876  -0.442  0.00  0.00     0.027 A 
HETATM    3  C   UNK N   1      18.241   4.476  -0.499  0.00  0.00     0.031 A 
HETATM    4  C   UNK N   1      17.064   3.798  -0.155  0.00  0.00     0.033 A 
HETATM    5  C   UNK N   1      15.940   4.539   0.243  0.00  0.00     0.031 A 
HETATM    6  C   UNK N   1      15.988   5.927   0.303  0.00  0.00     0.027 A 
ENDROOT
BRANCH   4   7
HETATM    7  N   UNK N   1      17.038   2.375  -0.177  0.00  0.00    -0.341 N 
HETATM    8  H   UNK N   1      17.895   1.898  -0.263  0.00  0.00     0.167 HD
BRANCH   7   9
HETATM    9  C   UNK N   1      15.851   1.599  -0.082  0.00  0.00     0.122 A 
HETATM   10  C   UNK N   1      15.928   0.218   0.112  0.00  0.00     0.136 A 
HETATM   11  N   UNK N   1      14.785  -0.516   0.176  0.00  0.00    -0.369 N 
HETATM   12  C   UNK N   1      13.564   0.071   0.043  0.00  0.00     0.130 A 
ATOM     13  HN  UNK N   1      14.843  -1.523   0.326  1.00  0.00     0.164 HD
HETATM   14  C   UNK N   1      13.486   1.448  -0.158  0.00  0.00     0.120 A 
HETATM   15 Cl   UNK N   1      11.936   2.239  -0.349  0.00  0.00    -0.063 Cl
HETATM   16  N   UNK N   1      14.625   2.178  -0.217  0.00  0.00    -0.331 N 
ATOM     17  HN  UNK N   1      14.563   3.186  -0.365  1.00  0.00     0.168 HD
ENDBRANCH   7   9
ENDBRANCH   4   7
BRANCH   1  18
HETATM   18  S   UNK N   1      17.233   8.370   0.162  0.00  0.00     0.256 S 
HETATM   19  O   UNK N   1      15.843   9.000   0.342  0.00  0.00    -0.201 OA
HETATM   20  O   UNK N   1      17.920   8.752   1.481  0.00  0.00    -0.201 OA
BRANCH  18  21
HETATM   21  N   UNK N   1      18.026   9.351  -1.072  0.00  0.00    -0.324 N 
HETATM   22  H   UNK N   1      18.746   9.238  -1.785  0.00  0.00     0.169 HD
HETATM   23  H   UNK N   1      17.659  10.303  -1.072  0.00  0.00     0.169 HD
ENDBRANCH  18  21
ENDBRANCH   1  18
TORSDOF 4
