REMARK  2 active torsions:
REMARK  status: ('A' for Active; 'I' for Inactive)
REMARK       I    between atoms: C_2  and  N_3 
REMARK    1  A    between atoms: C_2  and  C_10 
REMARK    2  A    between atoms: N_3  and  C_4 
ROOT
HETATM    1  O   UNK N   1      17.513   3.306   0.006  0.00  0.00    -0.266 OA
HETATM    2  C   UNK N   1      16.418   2.765   0.003  0.00  0.00     0.274 C 
HETATM    3  N   UNK N   1      15.268   3.492   0.007  0.00  0.00    -0.322 N 
HETATM    4  H   UNK N   1      14.427   2.980   0.013  0.00  0.00     0.169 HD
ENDROOT
BRANCH   2   5
HETATM    5  C   UNK N   1      16.314   1.300   0.001  0.00  0.00     0.117 A 
HETATM    6  C   UNK N   1      17.356   0.396   0.003  0.00  0.00     0.055 A 
HETATM    7  C   UNK N   1      16.732  -0.840  -0.001  0.00  0.00     0.109 A 
HETATM    8  N   UNK N   1      15.396  -0.654  -0.006  0.00  0.00    -0.311 N 
HETATM    9  N   UNK N   1      15.144   0.642  -0.005  0.00  0.00    -0.296 N 
HETATM   10  H   UNK N   1      14.719  -1.369  -0.009  0.00  0.00     0.186 HD
ATOM     11  HN  UNK N   1      14.219   1.071  -0.008  1.00  0.00     0.187 HD
ENDBRANCH   2   5
BRANCH   3  12
HETATM   12  C   UNK N   1      15.144   4.908   0.002  0.00  0.00     0.035 A 
HETATM   13  C   UNK N   1      13.857   5.456   0.054  0.00  0.00     0.029 A 
HETATM   14  C   UNK N   1      13.675   6.840   0.052  0.00  0.00     0.002 A 
HETATM   15  C   UNK N   1      14.783   7.689  -0.004  0.00  0.00     0.000 A 
HETATM   16  C   UNK N   1      16.073   7.152  -0.058  0.00  0.00     0.002 A 
HETATM   17  C   UNK N   1      16.255   5.765  -0.054  0.00  0.00     0.029 A 
ENDBRANCH   3  12
TORSDOF 2
