MODEL 1
REMARK VINA RESULT:      -5.9      0.000      0.000
REMARK  2 active torsions:
REMARK  status: ('A' for Active; 'I' for Inactive)
REMARK       I    between atoms: C_2  and  N_3 
REMARK    1  A    between atoms: C_2  and  C_10 
REMARK    2  A    between atoms: N_3  and  C_4 
ROOT
HETATM    1  O   UNK N   1      37.412  13.916  15.453  0.00  0.00    -0.266 OA
HETATM    2  C   UNK N   1      36.315  13.734  14.949  0.00  0.00     0.274 C 
HETATM    3  N   UNK N   1      35.311  13.125  15.636  0.00  0.00    -0.322 N 
HETATM    4  H   UNK N   1      34.460  13.008  15.155  0.00  0.00     0.169 HD
ENDROOT
BRANCH   2   5
HETATM    5  C   UNK N   1      36.050  14.168  13.571  0.00  0.00     0.117 A 
HETATM    6  C   UNK N   1      35.270  13.521  12.635  0.00  0.00     0.055 A 
HETATM    7  C   UNK N   1      35.346  14.330  11.514  0.00  0.00     0.109 A 
HETATM    8  N   UNK N   1      36.132  15.390  11.793  0.00  0.00    -0.311 N 
HETATM    9  N   UNK N   1      36.558  15.290  13.039  0.00  0.00    -0.296 N 
HETATM   10  H   UNK N   1      36.352  16.119  11.169  0.00  0.00     0.186 HD
ATOM     11  HN  UNK N   1      37.169  15.953  13.516  1.00  0.00     0.187 HD
ENDBRANCH   2   5
BRANCH   3  12
HETATM   12  C   UNK N   1      35.353  12.639  16.971  0.00  0.00     0.035 A 
HETATM   13  C   UNK N   1      35.631  11.281  17.169  0.00  0.00     0.029 A 
HETATM   14  C   UNK N   1      35.685  10.749  18.458  0.00  0.00     0.002 A 
HETATM   15  C   UNK N   1      35.458  11.573  19.563  0.00  0.00     0.000 A 
HETATM   16  C   UNK N   1      35.177  12.930  19.377  0.00  0.00     0.002 A 
HETATM   17  C   UNK N   1      35.126  13.463  18.085  0.00  0.00     0.029 A 
ENDBRANCH   3  12
TORSDOF 2
ENDMDL
MODEL 2
REMARK VINA RESULT:      -5.8     21.947     24.052
REMARK  2 active torsions:
REMARK  status: ('A' for Active; 'I' for Inactive)
REMARK       I    between atoms: C_2  and  N_3 
REMARK    1  A    between atoms: C_2  and  C_10 
REMARK    2  A    between atoms: N_3  and  C_4 
ROOT
HETATM    1  O   UNK N   1      26.490  24.040  -3.008  0.00  0.00    -0.266 OA
HETATM    2  C   UNK N   1      27.077  24.983  -3.517  0.00  0.00     0.274 C 
HETATM    3  N   UNK N   1      28.376  24.882  -3.908  0.00  0.00    -0.322 N 
HETATM    4  H   UNK N   1      28.778  25.690  -4.302  0.00  0.00     0.169 HD
ENDROOT
BRANCH   2   5
HETATM    5  C   UNK N   1      26.388  26.265  -3.717  0.00  0.00     0.117 A 
HETATM    6  C   UNK N   1      25.801  26.716  -4.881  0.00  0.00     0.055 A 
HETATM    7  C   UNK N   1      25.299  27.963  -4.546  0.00  0.00     0.109 A 
HETATM    8  N   UNK N   1      25.586  28.214  -3.252  0.00  0.00    -0.311 N 
HETATM    9  N   UNK N   1      26.245  27.186  -2.751  0.00  0.00    -0.296 N 
HETATM   10  H   UNK N   1      25.342  29.032  -2.761  0.00  0.00     0.186 HD
ATOM     11  HN  UNK N   1      26.588  27.104  -1.794  1.00  0.00     0.187 HD
ENDBRANCH   2   5
BRANCH   3  12
HETATM   12  C   UNK N   1      29.218  23.741  -3.813  0.00  0.00     0.035 A 
HETATM   13  C   UNK N   1      29.287  22.881  -4.915  0.00  0.00     0.029 A 
HETATM   14  C   UNK N   1      30.097  21.745  -4.878  0.00  0.00     0.002 A 
HETATM   15  C   UNK N   1      30.847  21.460  -3.734  0.00  0.00     0.000 A 
HETATM   16  C   UNK N   1      30.784  22.312  -2.627  0.00  0.00     0.002 A 
HETATM   17  C   UNK N   1      29.973  23.451  -2.665  0.00  0.00     0.029 A 
ENDBRANCH   3  12
TORSDOF 2
ENDMDL
MODEL 3
REMARK VINA RESULT:      -5.7      1.712      2.319
REMARK  2 active torsions:
REMARK  status: ('A' for Active; 'I' for Inactive)
REMARK       I    between atoms: C_2  and  N_3 
REMARK    1  A    between atoms: C_2  and  C_10 
REMARK    2  A    between atoms: N_3  and  C_4 
ROOT
HETATM    1  O   UNK N   1      34.554  13.090  13.400  0.00  0.00    -0.266 OA
HETATM    2  C   UNK N   1      35.753  13.321  13.379  0.00  0.00     0.274 C 
HETATM    3  N   UNK N   1      36.533  13.118  14.475  0.00  0.00    -0.322 N 
HETATM    4  H   UNK N   1      37.488  13.337  14.378  0.00  0.00     0.169 HD
ENDROOT
BRANCH   2   5
HETATM    5  C   UNK N   1      36.388  13.834  12.158  0.00  0.00     0.117 A 
HETATM    6  C   UNK N   1      35.876  14.778  11.292  0.00  0.00     0.055 A 
HETATM    7  C   UNK N   1      36.851  14.906  10.317  0.00  0.00     0.109 A 
HETATM    8  N   UNK N   1      37.872  14.075  10.609  0.00  0.00    -0.311 N 
HETATM    9  N   UNK N   1      37.591  13.427  11.724  0.00  0.00    -0.296 N 
HETATM   10  H   UNK N   1      38.694  13.971  10.077  0.00  0.00     0.186 HD
ATOM     11  HN  UNK N   1      38.186  12.734  12.178  1.00  0.00     0.187 HD
ENDBRANCH   2   5
BRANCH   3  12
HETATM   12  C   UNK N   1      36.125  12.625  15.744  0.00  0.00     0.035 A 
HETATM   13  C   UNK N   1      35.547  13.527  16.645  0.00  0.00     0.029 A 
HETATM   14  C   UNK N   1      35.127  13.098  17.906  0.00  0.00     0.002 A 
HETATM   15  C   UNK N   1      35.284  11.760  18.275  0.00  0.00     0.000 A 
HETATM   16  C   UNK N   1      35.862  10.852  17.383  0.00  0.00     0.002 A 
HETATM   17  C   UNK N   1      36.281  11.281  16.119  0.00  0.00     0.029 A 
ENDBRANCH   3  12
TORSDOF 2
ENDMDL
MODEL 4
REMARK VINA RESULT:      -5.6      6.959      9.864
REMARK  2 active torsions:
REMARK  status: ('A' for Active; 'I' for Inactive)
REMARK       I    between atoms: C_2  and  N_3 
REMARK    1  A    between atoms: C_2  and  C_10 
REMARK    2  A    between atoms: N_3  and  C_4 
ROOT
HETATM    1  O   UNK N   1      33.478  18.260   7.961  0.00  0.00    -0.266 OA
HETATM    2  C   UNK N   1      33.275  17.336   8.734  0.00  0.00     0.274 C 
HETATM    3  N   UNK N   1      32.014  16.899   9.001  0.00  0.00    -0.322 N 
HETATM    4  H   UNK N   1      31.936  16.155   9.641  0.00  0.00     0.169 HD
ENDROOT
BRANCH   2   5
HETATM    5  C   UNK N   1      34.398  16.670   9.405  0.00  0.00     0.117 A 
HETATM    6  C   UNK N   1      35.049  15.525   8.993  0.00  0.00     0.055 A 
HETATM    7  C   UNK N   1      36.017  15.318   9.961  0.00  0.00     0.109 A 
HETATM    8  N   UNK N   1      35.925  16.297  10.885  0.00  0.00    -0.311 N 
HETATM    9  N   UNK N   1      34.945  17.114  10.548  0.00  0.00    -0.296 N 
HETATM   10  H   UNK N   1      36.497  16.387  11.681  0.00  0.00     0.186 HD
ATOM     11  HN  UNK N   1      34.652  17.942  11.066  1.00  0.00     0.187 HD
ENDBRANCH   2   5
BRANCH   3  12
HETATM   12  C   UNK N   1      30.797  17.395   8.458  0.00  0.00     0.035 A 
HETATM   13  C   UNK N   1      30.005  18.220   9.264  0.00  0.00     0.029 A 
HETATM   14  C   UNK N   1      28.800  18.736   8.784  0.00  0.00     0.002 A 
HETATM   15  C   UNK N   1      28.377  18.427   7.489  0.00  0.00     0.000 A 
HETATM   16  C   UNK N   1      29.160  17.602   6.676  0.00  0.00     0.002 A 
HETATM   17  C   UNK N   1      30.368  17.087   7.157  0.00  0.00     0.029 A 
ENDBRANCH   3  12
TORSDOF 2
ENDMDL
MODEL 5
REMARK VINA RESULT:      -5.4      6.583     10.957
REMARK  2 active torsions:
REMARK  status: ('A' for Active; 'I' for Inactive)
REMARK       I    between atoms: C_2  and  N_3 
REMARK    1  A    between atoms: C_2  and  C_10 
REMARK    2  A    between atoms: N_3  and  C_4 
ROOT
HETATM    1  O   UNK N   1      32.717  15.520   7.887  0.00  0.00    -0.266 OA
HETATM    2  C   UNK N   1      33.832  16.017   7.884  0.00  0.00     0.274 C 
HETATM    3  N   UNK N   1      34.405  16.465   6.734  0.00  0.00    -0.322 N 
HETATM    4  H   UNK N   1      35.311  16.844   6.816  0.00  0.00     0.169 HD
ENDROOT
BRANCH   2   5
HETATM    5  C   UNK N   1      34.595  16.138   9.133  0.00  0.00     0.117 A 
HETATM    6  C   UNK N   1      35.571  15.280   9.594  0.00  0.00     0.055 A 
HETATM    7  C   UNK N   1      35.968  15.834  10.799  0.00  0.00     0.109 A 
HETATM    8  N   UNK N   1      35.253  16.956  11.020  0.00  0.00    -0.311 N 
HETATM    9  N   UNK N   1      34.421  17.139  10.011  0.00  0.00    -0.296 N 
HETATM   10  H   UNK N   1      35.338  17.543  11.805  0.00  0.00     0.186 HD
ATOM     11  HN  UNK N   1      33.760  17.909   9.913  1.00  0.00     0.187 HD
ENDBRANCH   2   5
BRANCH   3  12
HETATM   12  C   UNK N   1      33.843  16.450   5.429  0.00  0.00     0.035 A 
HETATM   13  C   UNK N   1      33.058  17.541   5.037  0.00  0.00     0.029 A 
HETATM   14  C   UNK N   1      32.482  17.580   3.767  0.00  0.00     0.002 A 
HETATM   15  C   UNK N   1      32.685  16.523   2.876  0.00  0.00     0.000 A 
HETATM   16  C   UNK N   1      33.466  15.428   3.257  0.00  0.00     0.002 A 
HETATM   17  C   UNK N   1      34.045  15.390   4.530  0.00  0.00     0.029 A 
ENDBRANCH   3  12
TORSDOF 2
ENDMDL
MODEL 6
REMARK VINA RESULT:      -5.2     17.320     19.396
REMARK  2 active torsions:
REMARK  status: ('A' for Active; 'I' for Inactive)
REMARK       I    between atoms: C_2  and  N_3 
REMARK    1  A    between atoms: C_2  and  C_10 
REMARK    2  A    between atoms: N_3  and  C_4 
ROOT
HETATM    1  O   UNK N   1      43.733  23.717   0.488  0.00  0.00    -0.266 OA
HETATM    2  C   UNK N   1      43.159  23.411   1.522  0.00  0.00     0.274 C 
HETATM    3  N   UNK N   1      41.811  23.539   1.649  0.00  0.00    -0.322 N 
HETATM    4  H   UNK N   1      41.427  23.278   2.518  0.00  0.00     0.169 HD
ENDROOT
BRANCH   2   5
HETATM    5  C   UNK N   1      43.920  22.898   2.668  0.00  0.00     0.117 A 
HETATM    6  C   UNK N   1      43.446  22.094   3.684  0.00  0.00     0.055 A 
HETATM    7  C   UNK N   1      44.545  21.897   4.502  0.00  0.00     0.109 A 
HETATM    8  N   UNK N   1      45.600  22.558   3.982  0.00  0.00    -0.311 N 
HETATM    9  N   UNK N   1      45.220  23.164   2.872  0.00  0.00    -0.296 N 
HETATM   10  H   UNK N   1      46.505  22.584   4.367  0.00  0.00     0.186 HD
ATOM     11  HN  UNK N   1      45.813  23.736   2.271  1.00  0.00     0.187 HD
ENDBRANCH   2   5
BRANCH   3  12
HETATM   12  C   UNK N   1      40.893  24.004   0.668  0.00  0.00     0.035 A 
HETATM   13  C   UNK N   1      40.318  23.063  -0.193  0.00  0.00     0.029 A 
HETATM   14  C   UNK N   1      39.410  23.463  -1.175  0.00  0.00     0.002 A 
HETATM   15  C   UNK N   1      39.071  24.812  -1.304  0.00  0.00     0.000 A 
HETATM   16  C   UNK N   1      39.642  25.760  -0.450  0.00  0.00     0.002 A 
HETATM   17  C   UNK N   1      40.550  25.359   0.536  0.00  0.00     0.029 A 
ENDBRANCH   3  12
TORSDOF 2
ENDMDL
MODEL 7
REMARK VINA RESULT:      -5.2     25.556     26.703
REMARK  2 active torsions:
REMARK  status: ('A' for Active; 'I' for Inactive)
REMARK       I    between atoms: C_2  and  N_3 
REMARK    1  A    between atoms: C_2  and  C_10 
REMARK    2  A    between atoms: N_3  and  C_4 
ROOT
HETATM    1  O   UNK N   1      27.202  24.670  -7.254  0.00  0.00    -0.266 OA
HETATM    2  C   UNK N   1      26.225  24.032  -6.891  0.00  0.00     0.274 C 
HETATM    3  N   UNK N   1      25.417  24.481  -5.893  0.00  0.00    -0.322 N 
HETATM    4  H   UNK N   1      24.655  23.904  -5.654  0.00  0.00     0.169 HD
ENDROOT
BRANCH   2   5
HETATM    5  C   UNK N   1      25.898  22.749  -7.526  0.00  0.00     0.117 A 
HETATM    6  C   UNK N   1      26.627  22.098  -8.500  0.00  0.00     0.055 A 
HETATM    7  C   UNK N   1      25.900  20.947  -8.754  0.00  0.00     0.109 A 
HETATM    8  N   UNK N   1      24.806  20.939  -7.965  0.00  0.00    -0.311 N 
HETATM    9  N   UNK N   1      24.806  22.030  -7.222  0.00  0.00    -0.296 N 
HETATM   10  H   UNK N   1      24.120  20.233  -7.945  0.00  0.00     0.186 HD
ATOM     11  HN  UNK N   1      24.098  22.285  -6.534  1.00  0.00     0.187 HD
ENDBRANCH   2   5
BRANCH   3  12
HETATM   12  C   UNK N   1      25.547  25.690  -5.157  0.00  0.00     0.035 A 
HETATM   13  C   UNK N   1      26.259  25.653  -3.952  0.00  0.00     0.029 A 
HETATM   14  C   UNK N   1      26.419  26.809  -3.187  0.00  0.00     0.002 A 
HETATM   15  C   UNK N   1      25.864  28.016  -3.622  0.00  0.00     0.000 A 
HETATM   16  C   UNK N   1      25.150  28.063  -4.824  0.00  0.00     0.002 A 
HETATM   17  C   UNK N   1      24.991  26.904  -5.591  0.00  0.00     0.029 A 
ENDBRANCH   3  12
TORSDOF 2
ENDMDL
MODEL 8
REMARK VINA RESULT:      -5.2      2.235      2.696
REMARK  2 active torsions:
REMARK  status: ('A' for Active; 'I' for Inactive)
REMARK       I    between atoms: C_2  and  N_3 
REMARK    1  A    between atoms: C_2  and  C_10 
REMARK    2  A    between atoms: N_3  and  C_4 
ROOT
HETATM    1  O   UNK N   1      33.610  11.004  14.881  0.00  0.00    -0.266 OA
HETATM    2  C   UNK N   1      34.489  11.764  14.507  0.00  0.00     0.274 C 
HETATM    3  N   UNK N   1      35.354  12.337  15.388  0.00  0.00    -0.322 N 
HETATM    4  H   UNK N   1      36.028  12.945  15.006  0.00  0.00     0.169 HD
ENDROOT
BRANCH   2   5
HETATM    5  C   UNK N   1      34.633  12.088  13.082  0.00  0.00     0.117 A 
HETATM    6  C   UNK N   1      35.269  13.187  12.543  0.00  0.00     0.055 A 
HETATM    7  C   UNK N   1      35.125  13.025  11.175  0.00  0.00     0.109 A 
HETATM    8  N   UNK N   1      34.438  11.887  10.941  0.00  0.00    -0.311 N 
HETATM    9  N   UNK N   1      34.141  11.321  12.096  0.00  0.00    -0.296 N 
HETATM   10  H   UNK N   1      34.199  11.536  10.053  0.00  0.00     0.186 HD
ATOM     11  HN  UNK N   1      33.626  10.450  12.220  1.00  0.00     0.187 HD
ENDBRANCH   2   5
BRANCH   3  12
HETATM   12  C   UNK N   1      35.394  12.155  16.797  0.00  0.00     0.035 A 
HETATM   13  C   UNK N   1      35.087  13.252  17.611  0.00  0.00     0.029 A 
HETATM   14  C   UNK N   1      35.111  13.132  19.001  0.00  0.00     0.002 A 
HETATM   15  C   UNK N   1      35.444  11.909  19.590  0.00  0.00     0.000 A 
HETATM   16  C   UNK N   1      35.754  10.808  18.786  0.00  0.00     0.002 A 
HETATM   17  C   UNK N   1      35.728  10.928  17.393  0.00  0.00     0.029 A 
ENDBRANCH   3  12
TORSDOF 2
ENDMDL
MODEL 9
REMARK VINA RESULT:      -5.0      1.876      2.677
REMARK  2 active torsions:
REMARK  status: ('A' for Active; 'I' for Inactive)
REMARK       I    between atoms: C_2  and  N_3 
REMARK    1  A    between atoms: C_2  and  C_10 
REMARK    2  A    between atoms: N_3  and  C_4 
ROOT
HETATM    1  O   UNK N   1      36.539  12.743  12.846  0.00  0.00    -0.266 OA
HETATM    2  C   UNK N   1      35.521  13.404  12.980  0.00  0.00     0.274 C 
HETATM    3  N   UNK N   1      34.662  13.182  14.011  0.00  0.00    -0.322 N 
HETATM    4  H   UNK N   1      33.860  13.752  14.043  0.00  0.00     0.169 HD
ENDROOT
BRANCH   2   5
HETATM    5  C   UNK N   1      35.192  14.464  12.018  0.00  0.00     0.117 A 
HETATM    6  C   UNK N   1      35.941  15.588  11.737  0.00  0.00     0.055 A 
HETATM    7  C   UNK N   1      35.202  16.255  10.774  0.00  0.00     0.109 A 
HETATM    8  N   UNK N   1      34.083  15.547  10.515  0.00  0.00    -0.311 N 
HETATM    9  N   UNK N   1      34.078  14.463  11.269  0.00  0.00    -0.296 N 
HETATM   10  H   UNK N   1      33.384  15.798   9.869  0.00  0.00     0.186 HD
ATOM     11  HN  UNK N   1      33.352  13.747  11.281  1.00  0.00     0.187 HD
ENDBRANCH   2   5
BRANCH   3  12
HETATM   12  C   UNK N   1      34.792  12.219  15.049  0.00  0.00     0.035 A 
HETATM   13  C   UNK N   1      35.318  12.641  16.275  0.00  0.00     0.029 A 
HETATM   14  C   UNK N   1      35.468  11.739  17.330  0.00  0.00     0.002 A 
HETATM   15  C   UNK N   1      35.094  10.403  17.164  0.00  0.00     0.000 A 
HETATM   16  C   UNK N   1      34.569   9.971  15.942  0.00  0.00     0.002 A 
HETATM   17  C   UNK N   1      34.417  10.875  14.886  0.00  0.00     0.029 A 
ENDBRANCH   3  12
TORSDOF 2
ENDMDL
