REMARK  3 active torsions:
REMARK  status: ('A' for Active; 'I' for Inactive)
REMARK       I    between atoms: C_2  and  N_4 
REMARK    1  A    between atoms: N_4  and  C_5 
REMARK    2  A    between atoms: C_10  and  C_11 
REMARK       I    between atoms: C_11  and  N_13 
REMARK    3  A    between atoms: N_13  and  C_14 
ROOT
HETATM    1  C   UNK N   1      17.853   2.977  -0.000  0.00  0.00     0.085 A 
HETATM    2  C   UNK N   1      18.876   2.052   0.000  0.00  0.00     0.139 A 
HETATM    3  N   UNK N   1      18.310   0.823   0.000  0.00  0.00    -0.309 N 
HETATM    4  N   UNK N   1      16.987   0.947   0.000  0.00  0.00    -0.294 N 
ATOM      5  HN  UNK N   1      16.314   0.180   0.000  1.00  0.00     0.187 HD
HETATM    6  C   UNK N   1      16.686   2.258  -0.000  0.00  0.00     0.144 A 
HETATM    7  H   UNK N   1      18.801  -0.030   0.000  0.00  0.00     0.186 HD
ENDROOT
BRANCH   6   8
HETATM    8  C   UNK N   1      15.326   2.825  -0.000  0.00  0.00     0.276 C 
HETATM    9  O   UNK N   1      15.196   4.040  -0.000  0.00  0.00    -0.266 OA
HETATM   10  N   UNK N   1      14.235   2.009  -0.000  0.00  0.00    -0.322 N 
HETATM   11  H   UNK N   1      14.391   1.037  -0.000  0.00  0.00     0.169 HD
BRANCH  10  12
HETATM   12  C   UNK N   1      12.879   2.463  -0.000  0.00  0.00     0.035 A 
HETATM   13  C   UNK N   1      11.843   1.521  -0.000  0.00  0.00     0.032 A 
HETATM   14  C   UNK N   1      10.507   1.940  -0.000  0.00  0.00     0.044 A 
HETATM   15  C   UNK N   1      10.200   3.305   0.000  0.00  0.00     0.116 A 
HETATM   16  F   UNK N   1       8.908   3.713   0.000  0.00  0.00    -0.206 F 
HETATM   17  C   UNK N   1      11.224   4.250   0.000  0.00  0.00     0.044 A 
HETATM   18  C   UNK N   1      12.554   3.832   0.000  0.00  0.00     0.032 A 
ENDBRANCH  10  12
ENDBRANCH   6   8
BRANCH   1  19
HETATM   19  N   UNK N   1      17.934   4.398  -0.000  0.00  0.00    -0.324 N 
HETATM   20  C   UNK N   1      19.076   5.126  -0.000  0.00  0.00     0.218 C 
HETATM   21  C   UNK N   1      18.987   6.612   0.000  0.00  0.00     0.117 C 
HETATM   22  O   UNK N   1      20.171   4.586   0.000  0.00  0.00    -0.274 OA
HETATM   23  H   UNK N   1      17.085   4.896  -0.000  0.00  0.00     0.169 HD
ENDBRANCH   1  19
TORSDOF 3
