MODEL 1
REMARK VINA RESULT:      -6.6      0.000      0.000
REMARK  3 active torsions:
REMARK  status: ('A' for Active; 'I' for Inactive)
REMARK       I    between atoms: C_2  and  N_4 
REMARK    1  A    between atoms: N_4  and  C_5 
REMARK    2  A    between atoms: C_10  and  C_11 
REMARK       I    between atoms: C_11  and  N_13 
REMARK    3  A    between atoms: N_13  and  C_14 
ROOT
HETATM    1  C   UNK N   1      35.219  13.551  12.457  0.00  0.00     0.085 A 
HETATM    2  C   UNK N   1      35.351  14.488  11.453  0.00  0.00     0.139 A 
HETATM    3  N   UNK N   1      36.157  15.469  11.918  0.00  0.00    -0.309 N 
HETATM    4  N   UNK N   1      36.529  15.182  13.161  0.00  0.00    -0.294 N 
ATOM      5  HN  UNK N   1      37.138  15.752  13.750  1.00  0.00     0.187 HD
HETATM    6  C   UNK N   1      35.966  14.012  13.511  0.00  0.00     0.144 A 
HETATM    7  H   UNK N   1      36.427  16.271  11.415  0.00  0.00     0.186 HD
ENDROOT
BRANCH   6   8
HETATM    8  C   UNK N   1      36.126  13.339  14.811  0.00  0.00     0.276 C 
HETATM    9  O   UNK N   1      37.210  12.847  15.089  0.00  0.00    -0.266 OA
HETATM   10  N   UNK N   1      35.085  13.266  15.687  0.00  0.00    -0.322 N 
HETATM   11  H   UNK N   1      34.232  13.678  15.419  0.00  0.00     0.169 HD
BRANCH  10  12
HETATM   12  C   UNK N   1      35.142  12.636  16.969  0.00  0.00     0.035 A 
HETATM   13  C   UNK N   1      35.148  11.238  17.044  0.00  0.00     0.032 A 
HETATM   14  C   UNK N   1      35.204  10.596  18.287  0.00  0.00     0.044 A 
HETATM   15  C   UNK N   1      35.254  11.351  19.464  0.00  0.00     0.116 A 
HETATM   16  F   UNK N   1      35.308  10.733  20.668  0.00  0.00    -0.206 F 
HETATM   17  C   UNK N   1      35.249  12.743  19.400  0.00  0.00     0.044 A 
HETATM   18  C   UNK N   1      35.193  13.381  18.162  0.00  0.00     0.032 A 
ENDBRANCH  10  12
ENDBRANCH   6   8
BRANCH   1  19
HETATM   19  N   UNK N   1      34.475  12.338  12.456  0.00  0.00    -0.324 N 
HETATM   20  C   UNK N   1      34.955  11.115  12.126  0.00  0.00     0.218 C 
HETATM   21  C   UNK N   1      34.040   9.942  12.176  0.00  0.00     0.117 C 
HETATM   22  O   UNK N   1      36.119  10.961  11.791  0.00  0.00    -0.274 OA
HETATM   23  H   UNK N   1      33.528  12.393  12.717  0.00  0.00     0.169 HD
ENDBRANCH   1  19
TORSDOF 3
ENDMDL
MODEL 2
REMARK VINA RESULT:      -6.5      4.832      7.999
REMARK  3 active torsions:
REMARK  status: ('A' for Active; 'I' for Inactive)
REMARK       I    between atoms: C_2  and  N_4 
REMARK    1  A    between atoms: N_4  and  C_5 
REMARK    2  A    between atoms: C_10  and  C_11 
REMARK       I    between atoms: C_11  and  N_13 
REMARK    3  A    between atoms: N_13  and  C_14 
ROOT
HETATM    1  C   UNK N   1      35.377  13.275  12.974  0.00  0.00     0.085 A 
HETATM    2  C   UNK N   1      36.200  13.226  14.080  0.00  0.00     0.139 A 
HETATM    3  N   UNK N   1      36.847  14.412  14.154  0.00  0.00    -0.309 N 
HETATM    4  N   UNK N   1      36.463  15.189  13.147  0.00  0.00    -0.294 N 
ATOM      5  HN  UNK N   1      36.793  16.136  12.961  1.00  0.00     0.187 HD
HETATM    6  C   UNK N   1      35.562  14.511  12.412  0.00  0.00     0.144 A 
HETATM    7  H   UNK N   1      37.502  14.661  14.846  0.00  0.00     0.186 HD
ENDROOT
BRANCH   6   8
HETATM    8  C   UNK N   1      34.888  15.016  11.203  0.00  0.00     0.276 C 
HETATM    9  O   UNK N   1      33.685  14.841  11.085  0.00  0.00    -0.266 OA
HETATM   10  N   UNK N   1      35.595  15.667  10.236  0.00  0.00    -0.322 N 
HETATM   11  H   UNK N   1      36.562  15.783  10.377  0.00  0.00     0.169 HD
BRANCH  10  12
HETATM   12  C   UNK N   1      35.032  16.192   9.031  0.00  0.00     0.035 A 
HETATM   13  C   UNK N   1      34.560  17.510   9.016  0.00  0.00     0.032 A 
HETATM   14  C   UNK N   1      34.004  18.048   7.848  0.00  0.00     0.044 A 
HETATM   15  C   UNK N   1      33.918  17.269   6.689  0.00  0.00     0.116 A 
HETATM   16  F   UNK N   1      33.381  17.787   5.558  0.00  0.00    -0.206 F 
HETATM   17  C   UNK N   1      34.385  15.956   6.695  0.00  0.00     0.044 A 
HETATM   18  C   UNK N   1      34.938  15.422   7.858  0.00  0.00     0.032 A 
ENDBRANCH  10  12
ENDBRANCH   6   8
BRANCH   1  19
HETATM   19  N   UNK N   1      34.496  12.276  12.472  0.00  0.00    -0.324 N 
HETATM   20  C   UNK N   1      34.837  11.265  11.638  0.00  0.00     0.218 C 
HETATM   21  C   UNK N   1      33.790  10.300  11.205  0.00  0.00     0.117 C 
HETATM   22  O   UNK N   1      35.983  11.135  11.237  0.00  0.00    -0.274 OA
HETATM   23  H   UNK N   1      33.555  12.324  12.757  0.00  0.00     0.169 HD
ENDBRANCH   1  19
TORSDOF 3
ENDMDL
MODEL 3
REMARK VINA RESULT:      -6.4     22.065     24.584
REMARK  3 active torsions:
REMARK  status: ('A' for Active; 'I' for Inactive)
REMARK       I    between atoms: C_2  and  N_4 
REMARK    1  A    between atoms: N_4  and  C_5 
REMARK    2  A    between atoms: C_10  and  C_11 
REMARK       I    between atoms: C_11  and  N_13 
REMARK    3  A    between atoms: N_13  and  C_14 
ROOT
HETATM    1  C   UNK N   1      25.653  26.605  -4.797  0.00  0.00     0.085 A 
HETATM    2  C   UNK N   1      25.183  27.869  -4.509  0.00  0.00     0.139 A 
HETATM    3  N   UNK N   1      25.703  28.230  -3.313  0.00  0.00    -0.309 N 
HETATM    4  N   UNK N   1      26.471  27.249  -2.851  0.00  0.00    -0.294 N 
ATOM      5  HN  UNK N   1      26.985  27.255  -1.970  1.00  0.00     0.187 HD
HETATM    6  C   UNK N   1      26.454  26.244  -3.745  0.00  0.00     0.144 A 
HETATM    7  H   UNK N   1      25.538  29.086  -2.855  0.00  0.00     0.186 HD
ENDROOT
BRANCH   6   8
HETATM    8  C   UNK N   1      27.178  24.967  -3.613  0.00  0.00     0.276 C 
HETATM    9  O   UNK N   1      26.682  24.079  -2.936  0.00  0.00    -0.266 OA
HETATM   10  N   UNK N   1      28.376  24.783  -4.234  0.00  0.00    -0.322 N 
HETATM   11  H   UNK N   1      28.734  25.528  -4.768  0.00  0.00     0.169 HD
BRANCH  10  12
HETATM   12  C   UNK N   1      29.152  23.583  -4.166  0.00  0.00     0.035 A 
HETATM   13  C   UNK N   1      29.284  22.789  -5.311  0.00  0.00     0.032 A 
HETATM   14  C   UNK N   1      30.038  21.610  -5.270  0.00  0.00     0.044 A 
HETATM   15  C   UNK N   1      30.665  21.219  -4.082  0.00  0.00     0.116 A 
HETATM   16  F   UNK N   1      31.395  20.078  -4.040  0.00  0.00    -0.206 F 
HETATM   17  C   UNK N   1      30.540  22.003  -2.937  0.00  0.00     0.044 A 
HETATM   18  C   UNK N   1      29.789  23.177  -2.978  0.00  0.00     0.032 A 
ENDBRANCH  10  12
ENDBRANCH   6   8
BRANCH   1  19
HETATM   19  N   UNK N   1      25.393  25.795  -5.938  0.00  0.00    -0.324 N 
HETATM   20  C   UNK N   1      26.234  25.605  -6.983  0.00  0.00     0.218 C 
HETATM   21  C   UNK N   1      25.808  24.722  -8.103  0.00  0.00     0.117 C 
HETATM   22  O   UNK N   1      27.329  26.144  -7.020  0.00  0.00    -0.274 OA
HETATM   23  H   UNK N   1      24.526  25.331  -5.971  0.00  0.00     0.169 HD
ENDBRANCH   1  19
TORSDOF 3
ENDMDL
MODEL 4
REMARK VINA RESULT:      -6.2      3.251      4.575
REMARK  3 active torsions:
REMARK  status: ('A' for Active; 'I' for Inactive)
REMARK       I    between atoms: C_2  and  N_4 
REMARK    1  A    between atoms: N_4  and  C_5 
REMARK    2  A    between atoms: C_10  and  C_11 
REMARK       I    between atoms: C_11  and  N_13 
REMARK    3  A    between atoms: N_13  and  C_14 
ROOT
HETATM    1  C   UNK N   1      34.693  15.613   8.908  0.00  0.00     0.085 A 
HETATM    2  C   UNK N   1      34.607  16.836   8.276  0.00  0.00     0.139 A 
HETATM    3  N   UNK N   1      34.785  17.791   9.217  0.00  0.00    -0.309 N 
HETATM    4  N   UNK N   1      34.976  17.214  10.399  0.00  0.00    -0.294 N 
ATOM      5  HN  UNK N   1      35.136  17.699  11.283  1.00  0.00     0.187 HD
HETATM    6  C   UNK N   1      34.924  15.881  10.232  0.00  0.00     0.144 A 
HETATM    7  H   UNK N   1      34.774  18.761   9.053  0.00  0.00     0.186 HD
ENDROOT
BRANCH   6   8
HETATM    8  C   UNK N   1      35.089  14.876  11.297  0.00  0.00     0.276 C 
HETATM    9  O   UNK N   1      34.120  14.211  11.632  0.00  0.00    -0.266 OA
HETATM   10  N   UNK N   1      36.298  14.694  11.897  0.00  0.00    -0.322 N 
HETATM   11  H   UNK N   1      37.048  15.254  11.593  0.00  0.00     0.169 HD
BRANCH  10  12
HETATM   12  C   UNK N   1      36.556  13.747  12.937  0.00  0.00     0.035 A 
HETATM   13  C   UNK N   1      36.973  12.454  12.596  0.00  0.00     0.032 A 
HETATM   14  C   UNK N   1      37.232  11.509  13.596  0.00  0.00     0.044 A 
HETATM   15  C   UNK N   1      37.076  11.852  14.943  0.00  0.00     0.116 A 
HETATM   16  F   UNK N   1      37.326  10.939  15.912  0.00  0.00    -0.206 F 
HETATM   17  C   UNK N   1      36.662  13.136  15.292  0.00  0.00     0.044 A 
HETATM   18  C   UNK N   1      36.404  14.077  14.297  0.00  0.00     0.032 A 
ENDBRANCH  10  12
ENDBRANCH   6   8
BRANCH   1  19
HETATM   19  N   UNK N   1      34.575  14.309   8.349  0.00  0.00    -0.324 N 
HETATM   20  C   UNK N   1      33.423  13.611   8.205  0.00  0.00     0.218 C 
HETATM   21  C   UNK N   1      33.471  12.252   7.599  0.00  0.00     0.117 C 
HETATM   22  O   UNK N   1      32.352  14.076   8.563  0.00  0.00    -0.274 OA
HETATM   23  H   UNK N   1      35.403  13.876   8.041  0.00  0.00     0.169 HD
ENDBRANCH   1  19
TORSDOF 3
ENDMDL
MODEL 5
REMARK VINA RESULT:      -6.1     16.640     18.318
REMARK  3 active torsions:
REMARK  status: ('A' for Active; 'I' for Inactive)
REMARK       I    between atoms: C_2  and  N_4 
REMARK    1  A    between atoms: N_4  and  C_5 
REMARK    2  A    between atoms: C_10  and  C_11 
REMARK       I    between atoms: C_11  and  N_13 
REMARK    3  A    between atoms: N_13  and  C_14 
ROOT
HETATM    1  C   UNK N   1      21.147  18.574   2.929  0.00  0.00     0.085 A 
HETATM    2  C   UNK N   1      20.385  18.941   1.840  0.00  0.00     0.139 A 
HETATM    3  N   UNK N   1      19.159  18.390   1.999  0.00  0.00    -0.309 N 
HETATM    4  N   UNK N   1      19.130  17.701   3.134  0.00  0.00    -0.294 N 
ATOM      5  HN  UNK N   1      18.330  17.184   3.500  1.00  0.00     0.187 HD
HETATM    6  C   UNK N   1      20.337  17.800   3.720  0.00  0.00     0.144 A 
HETATM    7  H   UNK N   1      18.407  18.485   1.372  0.00  0.00     0.186 HD
ENDROOT
BRANCH   6   8
HETATM    8  C   UNK N   1      20.723  17.179   4.999  0.00  0.00     0.276 C 
HETATM    9  O   UNK N   1      21.714  17.596   5.579  0.00  0.00    -0.266 OA
HETATM   10  N   UNK N   1      19.987  16.160   5.524  0.00  0.00    -0.322 N 
HETATM   11  H   UNK N   1      19.198  15.859   5.020  0.00  0.00     0.169 HD
BRANCH  10  12
HETATM   12  C   UNK N   1      20.281  15.495   6.756  0.00  0.00     0.035 A 
HETATM   13  C   UNK N   1      19.811  16.042   7.956  0.00  0.00     0.032 A 
HETATM   14  C   UNK N   1      20.085  15.410   9.175  0.00  0.00     0.044 A 
HETATM   15  C   UNK N   1      20.830  14.226   9.200  0.00  0.00     0.116 A 
HETATM   16  F   UNK N   1      21.096  13.613  10.379  0.00  0.00    -0.206 F 
HETATM   17  C   UNK N   1      21.302  13.674   8.011  0.00  0.00     0.044 A 
HETATM   18  C   UNK N   1      21.029  14.304   6.797  0.00  0.00     0.032 A 
ENDBRANCH  10  12
ENDBRANCH   6   8
BRANCH   1  19
HETATM   19  N   UNK N   1      22.500  18.902   3.224  0.00  0.00    -0.324 N 
HETATM   20  C   UNK N   1      23.052  20.135   3.140  0.00  0.00     0.218 C 
HETATM   21  C   UNK N   1      24.490  20.310   3.485  0.00  0.00     0.117 C 
HETATM   22  O   UNK N   1      22.394  21.101   2.787  0.00  0.00    -0.274 OA
HETATM   23  H   UNK N   1      23.087  18.167   3.515  0.00  0.00     0.169 HD
ENDBRANCH   1  19
TORSDOF 3
ENDMDL
MODEL 6
REMARK VINA RESULT:      -6.0      2.177      3.279
REMARK  3 active torsions:
REMARK  status: ('A' for Active; 'I' for Inactive)
REMARK       I    between atoms: C_2  and  N_4 
REMARK    1  A    between atoms: N_4  and  C_5 
REMARK    2  A    between atoms: C_10  and  C_11 
REMARK       I    between atoms: C_11  and  N_13 
REMARK    3  A    between atoms: N_13  and  C_14 
ROOT
HETATM    1  C   UNK N   1      35.843  14.895  10.439  0.00  0.00     0.085 A 
HETATM    2  C   UNK N   1      35.015  15.439   9.479  0.00  0.00     0.139 A 
HETATM    3  N   UNK N   1      33.781  15.549  10.023  0.00  0.00    -0.309 N 
HETATM    4  N   UNK N   1      33.810  15.099  11.273  0.00  0.00    -0.294 N 
ATOM      5  HN  UNK N   1      33.018  15.066  11.916  1.00  0.00     0.187 HD
HETATM    6  C   UNK N   1      35.063  14.694  11.548  0.00  0.00     0.144 A 
HETATM    7  H   UNK N   1      32.987  15.907   9.566  0.00  0.00     0.186 HD
ENDROOT
BRANCH   6   8
HETATM    8  C   UNK N   1      35.519  14.128  12.829  0.00  0.00     0.276 C 
HETATM    9  O   UNK N   1      36.391  14.713  13.453  0.00  0.00    -0.266 OA
HETATM   10  N   UNK N   1      34.978  12.973  13.308  0.00  0.00    -0.322 N 
HETATM   11  H   UNK N   1      34.278  12.538  12.769  0.00  0.00     0.169 HD
BRANCH  10  12
HETATM   12  C   UNK N   1      35.353  12.347  14.538  0.00  0.00     0.035 A 
HETATM   13  C   UNK N   1      34.751  12.766  15.730  0.00  0.00     0.032 A 
HETATM   14  C   UNK N   1      35.101  12.169  16.947  0.00  0.00     0.044 A 
HETATM   15  C   UNK N   1      36.057  11.148  16.978  0.00  0.00     0.116 A 
HETATM   16  F   UNK N   1      36.398  10.568  18.154  0.00  0.00    -0.206 F 
HETATM   17  C   UNK N   1      36.662  10.723  15.797  0.00  0.00     0.044 A 
HETATM   18  C   UNK N   1      36.313  11.319  14.585  0.00  0.00     0.032 A 
ENDBRANCH  10  12
ENDBRANCH   6   8
BRANCH   1  19
HETATM   19  N   UNK N   1      37.229  14.586  10.351  0.00  0.00    -0.324 N 
HETATM   20  C   UNK N   1      37.752  13.378  10.029  0.00  0.00     0.218 C 
HETATM   21  C   UNK N   1      39.231  13.220   9.981  0.00  0.00     0.117 C 
HETATM   22  O   UNK N   1      37.033  12.423   9.780  0.00  0.00    -0.274 OA
HETATM   23  H   UNK N   1      37.864  15.313  10.541  0.00  0.00     0.169 HD
ENDBRANCH   1  19
TORSDOF 3
ENDMDL
MODEL 7
REMARK VINA RESULT:      -6.0      1.706      2.045
REMARK  3 active torsions:
REMARK  status: ('A' for Active; 'I' for Inactive)
REMARK       I    between atoms: C_2  and  N_4 
REMARK    1  A    between atoms: N_4  and  C_5 
REMARK    2  A    between atoms: C_10  and  C_11 
REMARK       I    between atoms: C_11  and  N_13 
REMARK    3  A    between atoms: N_13  and  C_14 
ROOT
HETATM    1  C   UNK N   1      35.381  13.783  11.362  0.00  0.00     0.085 A 
HETATM    2  C   UNK N   1      35.915  14.751  10.537  0.00  0.00     0.139 A 
HETATM    3  N   UNK N   1      36.556  15.645  11.325  0.00  0.00    -0.309 N 
HETATM    4  N   UNK N   1      36.441  15.274  12.596  0.00  0.00    -0.294 N 
ATOM      5  HN  UNK N   1      36.829  15.767  13.401  1.00  0.00     0.187 HD
HETATM    6  C   UNK N   1      35.725  14.136  12.641  0.00  0.00     0.144 A 
HETATM    7  H   UNK N   1      37.032  16.445  11.007  0.00  0.00     0.186 HD
ENDROOT
BRANCH   6   8
HETATM    8  C   UNK N   1      35.371  13.394  13.863  0.00  0.00     0.276 C 
HETATM    9  O   UNK N   1      34.399  12.653  13.841  0.00  0.00    -0.266 OA
HETATM   10  N   UNK N   1      36.114  13.531  14.997  0.00  0.00    -0.322 N 
HETATM   11  H   UNK N   1      36.888  14.139  14.966  0.00  0.00     0.169 HD
BRANCH  10  12
HETATM   12  C   UNK N   1      35.851  12.855  16.230  0.00  0.00     0.035 A 
HETATM   13  C   UNK N   1      35.348  13.584  17.315  0.00  0.00     0.032 A 
HETATM   14  C   UNK N   1      35.083  12.945  18.532  0.00  0.00     0.044 A 
HETATM   15  C   UNK N   1      35.318  11.573  18.671  0.00  0.00     0.116 A 
HETATM   16  F   UNK N   1      35.062  10.953  19.848  0.00  0.00    -0.206 F 
HETATM   17  C   UNK N   1      35.819  10.840  17.596  0.00  0.00     0.044 A 
HETATM   18  C   UNK N   1      36.083  11.476  16.385  0.00  0.00     0.032 A 
ENDBRANCH  10  12
ENDBRANCH   6   8
BRANCH   1  19
HETATM   19  N   UNK N   1      34.619  12.633  11.012  0.00  0.00    -0.324 N 
HETATM   20  C   UNK N   1      34.199  12.311   9.766  0.00  0.00     0.218 C 
HETATM   21  C   UNK N   1      33.407  11.065   9.568  0.00  0.00     0.117 C 
HETATM   22  O   UNK N   1      34.457  13.021   8.807  0.00  0.00    -0.274 OA
HETATM   23  H   UNK N   1      34.377  12.016  11.740  0.00  0.00     0.169 HD
ENDBRANCH   1  19
TORSDOF 3
ENDMDL
MODEL 8
REMARK VINA RESULT:      -5.9     17.225     18.709
REMARK  3 active torsions:
REMARK  status: ('A' for Active; 'I' for Inactive)
REMARK       I    between atoms: C_2  and  N_4 
REMARK    1  A    between atoms: N_4  and  C_5 
REMARK    2  A    between atoms: C_10  and  C_11 
REMARK       I    between atoms: C_11  and  N_13 
REMARK    3  A    between atoms: N_13  and  C_14 
ROOT
HETATM    1  C   UNK N   1      20.268  18.400   2.027  0.00  0.00     0.085 A 
HETATM    2  C   UNK N   1      20.687  19.517   1.335  0.00  0.00     0.139 A 
HETATM    3  N   UNK N   1      21.341  20.314   2.211  0.00  0.00    -0.309 N 
HETATM    4  N   UNK N   1      21.346  19.740   3.410  0.00  0.00    -0.294 N 
ATOM      5  HN  UNK N   1      21.771  20.124   4.255  1.00  0.00     0.187 HD
HETATM    6  C   UNK N   1      20.694  18.567   3.319  0.00  0.00     0.144 A 
HETATM    7  H   UNK N   1      21.750  21.182   1.995  0.00  0.00     0.186 HD
ENDROOT
BRANCH   6   8
HETATM    8  C   UNK N   1      20.476  17.621   4.427  0.00  0.00     0.276 C 
HETATM    9  O   UNK N   1      19.566  16.810   4.336  0.00  0.00    -0.266 OA
HETATM   10  N   UNK N   1      21.273  17.650   5.531  0.00  0.00    -0.322 N 
HETATM   11  H   UNK N   1      21.993  18.321   5.558  0.00  0.00     0.169 HD
BRANCH  10  12
HETATM   12  C   UNK N   1      21.141  16.775   6.654  0.00  0.00     0.035 A 
HETATM   13  C   UNK N   1      21.941  15.628   6.726  0.00  0.00     0.032 A 
HETATM   14  C   UNK N   1      21.830  14.756   7.815  0.00  0.00     0.044 A 
HETATM   15  C   UNK N   1      20.917  15.026   8.840  0.00  0.00     0.116 A 
HETATM   16  F   UNK N   1      20.808  14.184   9.896  0.00  0.00    -0.206 F 
HETATM   17  C   UNK N   1      20.116  16.165   8.778  0.00  0.00     0.044 A 
HETATM   18  C   UNK N   1      20.227  17.033   7.693  0.00  0.00     0.032 A 
ENDBRANCH  10  12
ENDBRANCH   6   8
BRANCH   1  19
HETATM   19  N   UNK N   1      19.541  17.273   1.549  0.00  0.00    -0.324 N 
HETATM   20  C   UNK N   1      20.077  16.172   0.971  0.00  0.00     0.218 C 
HETATM   21  C   UNK N   1      19.173  15.077   0.524  0.00  0.00     0.117 C 
HETATM   22  O   UNK N   1      21.282  16.063   0.812  0.00  0.00    -0.274 OA
HETATM   23  H   UNK N   1      18.562  17.297   1.647  0.00  0.00     0.169 HD
ENDBRANCH   1  19
TORSDOF 3
ENDMDL
MODEL 9
REMARK VINA RESULT:      -5.9     18.435     21.551
REMARK  3 active torsions:
REMARK  status: ('A' for Active; 'I' for Inactive)
REMARK       I    between atoms: C_2  and  N_4 
REMARK    1  A    between atoms: N_4  and  C_5 
REMARK    2  A    between atoms: C_10  and  C_11 
REMARK       I    between atoms: C_11  and  N_13 
REMARK    3  A    between atoms: N_13  and  C_14 
ROOT
HETATM    1  C   UNK N   1      43.445  22.999   3.082  0.00  0.00     0.085 A 
HETATM    2  C   UNK N   1      43.375  21.889   3.896  0.00  0.00     0.139 A 
HETATM    3  N   UNK N   1      44.642  21.550   4.230  0.00  0.00    -0.309 N 
HETATM    4  N   UNK N   1      45.489  22.399   3.659  0.00  0.00    -0.294 N 
ATOM      5  HN  UNK N   1      46.506  22.377   3.742  1.00  0.00     0.187 HD
HETATM    6  C   UNK N   1      44.778  23.295   2.951  0.00  0.00     0.144 A 
HETATM    7  H   UNK N   1      44.896  20.793   4.805  0.00  0.00     0.186 HD
ENDROOT
BRANCH   6   8
HETATM    8  C   UNK N   1      45.339  24.408   2.167  0.00  0.00     0.276 C 
HETATM    9  O   UNK N   1      45.321  25.532   2.645  0.00  0.00    -0.266 OA
HETATM   10  N   UNK N   1      45.868  24.188   0.931  0.00  0.00    -0.322 N 
HETATM   11  H   UNK N   1      45.860  23.265   0.588  0.00  0.00     0.169 HD
BRANCH  10  12
HETATM   12  C   UNK N   1      46.435  25.200   0.095  0.00  0.00     0.035 A 
HETATM   13  C   UNK N   1      45.584  26.047  -0.626  0.00  0.00     0.032 A 
HETATM   14  C   UNK N   1      46.114  27.046  -1.451  0.00  0.00     0.044 A 
HETATM   15  C   UNK N   1      47.500  27.204  -1.559  0.00  0.00     0.116 A 
HETATM   16  F   UNK N   1      48.016  28.170  -2.357  0.00  0.00    -0.206 F 
HETATM   17  C   UNK N   1      48.355  26.367  -0.846  0.00  0.00     0.044 A 
HETATM   18  C   UNK N   1      47.826  25.372  -0.024  0.00  0.00     0.032 A 
ENDBRANCH  10  12
ENDBRANCH   6   8
BRANCH   1  19
HETATM   19  N   UNK N   1      42.386  23.729   2.473  0.00  0.00    -0.324 N 
HETATM   20  C   UNK N   1      41.918  23.546   1.216  0.00  0.00     0.218 C 
HETATM   21  C   UNK N   1      40.798  24.398   0.729  0.00  0.00     0.117 C 
HETATM   22  O   UNK N   1      42.397  22.698   0.479  0.00  0.00    -0.274 OA
HETATM   23  H   UNK N   1      41.955  24.430   3.014  0.00  0.00     0.169 HD
ENDBRANCH   1  19
TORSDOF 3
ENDMDL
