MODEL 1
REMARK VINA RESULT:      -7.6      0.000      0.000
REMARK  4 active torsions:
REMARK  status: ('A' for Active; 'I' for Inactive)
REMARK    1  A    between atoms: C_5  and  N_6 
REMARK       I    between atoms: N_6  and  C_7 
REMARK    2  A    between atoms: C_7  and  C_9 
REMARK    3  A    between atoms: C_14  and  N_15 
REMARK       I    between atoms: N_15  and  C_16 
REMARK    4  A    between atoms: C_16  and  C_18 
ROOT
HETATM    1  C   UNK N   1      20.321  17.541   3.867  0.00  0.00     0.144 A 
HETATM    2  N   UNK N   1      19.132  17.378   3.261  0.00  0.00    -0.294 N 
ATOM      3  HN  UNK N   1      18.406  16.714   3.532  1.00  0.00     0.187 HD
HETATM    4  N   UNK N   1      19.070  18.234   2.245  0.00  0.00    -0.309 N 
HETATM    5  C   UNK N   1      20.231  18.937   2.172  0.00  0.00     0.139 A 
HETATM    6  C   UNK N   1      21.027  18.499   3.202  0.00  0.00     0.086 A 
HETATM    7  H   UNK N   1      18.301  18.343   1.639  0.00  0.00     0.186 HD
ENDROOT
BRANCH   1   8
HETATM    8  C   UNK N   1      20.881  16.792   5.007  0.00  0.00     0.276 C 
HETATM    9  N   UNK N   1      20.141  16.464   6.100  0.00  0.00    -0.322 N 
HETATM   10  H   UNK N   1      19.301  16.945   6.276  0.00  0.00     0.169 HD
HETATM   11  O   UNK N   1      22.033  16.386   4.910  0.00  0.00    -0.266 OA
BRANCH   9  12
HETATM   12  C   UNK N   1      20.560  15.431   6.999  0.00  0.00     0.035 A 
HETATM   13  C   UNK N   1      20.762  15.707   8.354  0.00  0.00     0.032 A 
HETATM   14  C   UNK N   1      21.110  14.670   9.235  0.00  0.00     0.044 A 
HETATM   15  C   UNK N   1      21.239  13.355   8.767  0.00  0.00     0.116 A 
HETATM   16  F   UNK N   1      21.567  12.353   9.615  0.00  0.00    -0.206 F 
HETATM   17  C   UNK N   1      21.021  13.072   7.423  0.00  0.00     0.044 A 
HETATM   18  C   UNK N   1      20.680  14.097   6.552  0.00  0.00     0.032 A 
ENDBRANCH   9  12
ENDBRANCH   1   8
BRANCH   6  19
HETATM   19  N   UNK N   1      22.379  18.787   3.517  0.00  0.00    -0.320 N 
HETATM   20  C   UNK N   1      23.118  19.889   3.291  0.00  0.00     0.256 C 
HETATM   21  O   UNK N   1      22.620  20.895   2.809  0.00  0.00    -0.267 OA
HETATM   22  H   UNK N   1      22.857  18.059   3.975  0.00  0.00     0.169 HD
BRANCH  20  23
HETATM   23  C   UNK N   1      24.551  19.837   3.665  0.00  0.00     0.032 A 
HETATM   24  C   UNK N   1      25.521  20.557   2.959  0.00  0.00     0.017 A 
HETATM   25  C   UNK N   1      26.866  20.487   3.346  0.00  0.00     0.001 A 
HETATM   26  C   UNK N   1      27.248  19.691   4.431  0.00  0.00     0.000 A 
HETATM   27  C   UNK N   1      26.287  18.965   5.136  0.00  0.00     0.001 A 
HETATM   28  C   UNK N   1      24.946  19.041   4.758  0.00  0.00     0.017 A 
ENDBRANCH  20  23
ENDBRANCH   6  19
TORSDOF 4
ENDMDL
MODEL 2
REMARK VINA RESULT:      -7.6      9.134     11.944
REMARK  4 active torsions:
REMARK  status: ('A' for Active; 'I' for Inactive)
REMARK    1  A    between atoms: C_5  and  N_6 
REMARK       I    between atoms: N_6  and  C_7 
REMARK    2  A    between atoms: C_7  and  C_9 
REMARK    3  A    between atoms: C_14  and  N_15 
REMARK       I    between atoms: N_15  and  C_16 
REMARK    4  A    between atoms: C_16  and  C_18 
ROOT
HETATM    1  C   UNK N   1      33.907  15.705   9.822  0.00  0.00     0.144 A 
HETATM    2  N   UNK N   1      34.546  15.645  11.003  0.00  0.00    -0.294 N 
ATOM      3  HN  UNK N   1      34.133  15.822  11.919  1.00  0.00     0.187 HD
HETATM    4  N   UNK N   1      35.813  15.314  10.766  0.00  0.00    -0.309 N 
HETATM    5  C   UNK N   1      36.006  15.186   9.428  0.00  0.00     0.139 A 
HETATM    6  C   UNK N   1      34.797  15.433   8.825  0.00  0.00     0.086 A 
HETATM    7  H   UNK N   1      36.504  15.182  11.455  0.00  0.00     0.186 HD
ENDROOT
BRANCH   1   8
HETATM    8  C   UNK N   1      32.508  16.081   9.553  0.00  0.00     0.276 C 
HETATM    9  N   UNK N   1      32.151  17.329   9.147  0.00  0.00    -0.322 N 
HETATM   10  H   UNK N   1      32.777  18.077   9.282  0.00  0.00     0.169 HD
HETATM   11  O   UNK N   1      31.659  15.201   9.622  0.00  0.00    -0.266 OA
BRANCH   9  12
HETATM   12  C   UNK N   1      30.885  17.577   8.526  0.00  0.00     0.035 A 
HETATM   13  C   UNK N   1      29.880  18.267   9.211  0.00  0.00     0.032 A 
HETATM   14  C   UNK N   1      28.667  18.557   8.566  0.00  0.00     0.044 A 
HETATM   15  C   UNK N   1      28.464  18.175   7.233  0.00  0.00     0.116 A 
HETATM   16  F   UNK N   1      27.298  18.461   6.607  0.00  0.00    -0.206 F 
HETATM   17  C   UNK N   1      29.466  17.505   6.542  0.00  0.00     0.044 A 
HETATM   18  C   UNK N   1      30.664  17.216   7.180  0.00  0.00     0.032 A 
ENDBRANCH   9  12
ENDBRANCH   1   8
BRANCH   6  19
HETATM   19  N   UNK N   1      34.452  15.567   7.457  0.00  0.00    -0.320 N 
HETATM   20  C   UNK N   1      34.339  16.664   6.683  0.00  0.00     0.256 C 
HETATM   21  O   UNK N   1      34.633  17.770   7.110  0.00  0.00    -0.267 OA
HETATM   22  H   UNK N   1      34.263  14.719   6.996  0.00  0.00     0.169 HD
BRANCH  20  23
HETATM   23  C   UNK N   1      33.864  16.470   5.293  0.00  0.00     0.032 A 
HETATM   24  C   UNK N   1      33.124  17.453   4.626  0.00  0.00     0.017 A 
HETATM   25  C   UNK N   1      32.695  17.237   3.311  0.00  0.00     0.001 A 
HETATM   26  C   UNK N   1      32.994  16.035   2.659  0.00  0.00     0.000 A 
HETATM   27  C   UNK N   1      33.726  15.047   3.319  0.00  0.00     0.001 A 
HETATM   28  C   UNK N   1      34.162  15.266   4.627  0.00  0.00     0.017 A 
ENDBRANCH  20  23
ENDBRANCH   6  19
TORSDOF 4
ENDMDL
MODEL 3
REMARK VINA RESULT:      -7.4     13.123     15.168
REMARK  4 active torsions:
REMARK  status: ('A' for Active; 'I' for Inactive)
REMARK    1  A    between atoms: C_5  and  N_6 
REMARK       I    between atoms: N_6  and  C_7 
REMARK    2  A    between atoms: C_7  and  C_9 
REMARK    3  A    between atoms: C_14  and  N_15 
REMARK       I    between atoms: N_15  and  C_16 
REMARK    4  A    between atoms: C_16  and  C_18 
ROOT
HETATM    1  C   UNK N   1      25.788  26.916  -4.783  0.00  0.00     0.144 A 
HETATM    2  N   UNK N   1      25.154  28.075  -4.530  0.00  0.00    -0.294 N 
ATOM      3  HN  UNK N   1      24.411  28.488  -5.094  1.00  0.00     0.187 HD
HETATM    4  N   UNK N   1      25.667  28.587  -3.414  0.00  0.00    -0.309 N 
HETATM    5  C   UNK N   1      26.655  27.775  -2.955  0.00  0.00     0.139 A 
HETATM    6  C   UNK N   1      26.733  26.713  -3.822  0.00  0.00     0.086 A 
HETATM    7  H   UNK N   1      25.375  29.424  -2.987  0.00  0.00     0.186 HD
ENDROOT
BRANCH   1   8
HETATM    8  C   UNK N   1      25.614  26.006  -5.929  0.00  0.00     0.276 C 
HETATM    9  N   UNK N   1      26.123  26.276  -7.161  0.00  0.00    -0.322 N 
HETATM   10  H   UNK N   1      26.382  27.199  -7.383  0.00  0.00     0.169 HD
HETATM   11  O   UNK N   1      25.062  24.931  -5.724  0.00  0.00    -0.266 OA
BRANCH   9  12
HETATM   12  C   UNK N   1      26.290  25.245  -8.140  0.00  0.00     0.035 A 
HETATM   13  C   UNK N   1      25.533  25.251  -9.316  0.00  0.00     0.032 A 
HETATM   14  C   UNK N   1      25.753  24.269 -10.295  0.00  0.00     0.044 A 
HETATM   15  C   UNK N   1      26.741  23.292 -10.109  0.00  0.00     0.116 A 
HETATM   16  F   UNK N   1      26.960  22.349 -11.055  0.00  0.00    -0.206 F 
HETATM   17  C   UNK N   1      27.509  23.292  -8.950  0.00  0.00     0.044 A 
HETATM   18  C   UNK N   1      27.289  24.261  -7.982  0.00  0.00     0.032 A 
ENDBRANCH   9  12
ENDBRANCH   1   8
BRANCH   6  19
HETATM   19  N   UNK N   1      27.665  25.647  -3.903  0.00  0.00    -0.320 N 
HETATM   20  C   UNK N   1      27.628  24.407  -3.382  0.00  0.00     0.256 C 
HETATM   21  O   UNK N   1      26.642  24.001  -2.787  0.00  0.00    -0.267 OA
HETATM   22  H   UNK N   1      28.474  25.849  -4.426  0.00  0.00     0.169 HD
BRANCH  20  23
HETATM   23  C   UNK N   1      28.823  23.551  -3.575  0.00  0.00     0.032 A 
HETATM   24  C   UNK N   1      29.633  23.167  -2.500  0.00  0.00     0.017 A 
HETATM   25  C   UNK N   1      30.751  22.353  -2.721  0.00  0.00     0.001 A 
HETATM   26  C   UNK N   1      31.072  21.929  -4.015  0.00  0.00     0.000 A 
HETATM   27  C   UNK N   1      30.273  22.313  -5.093  0.00  0.00     0.001 A 
HETATM   28  C   UNK N   1      29.153  23.116  -4.873  0.00  0.00     0.017 A 
ENDBRANCH  20  23
ENDBRANCH   6  19
TORSDOF 4
ENDMDL
MODEL 4
REMARK VINA RESULT:      -7.3      1.514      2.107
REMARK  4 active torsions:
REMARK  status: ('A' for Active; 'I' for Inactive)
REMARK    1  A    between atoms: C_5  and  N_6 
REMARK       I    between atoms: N_6  and  C_7 
REMARK    2  A    between atoms: C_7  and  C_9 
REMARK    3  A    between atoms: C_14  and  N_15 
REMARK       I    between atoms: N_15  and  C_16 
REMARK    4  A    between atoms: C_16  and  C_18 
ROOT
HETATM    1  C   UNK N   1      20.758  19.285   3.413  0.00  0.00     0.144 A 
HETATM    2  N   UNK N   1      19.719  19.529   2.595  0.00  0.00    -0.294 N 
ATOM      3  HN  UNK N   1      18.765  19.190   2.719  1.00  0.00     0.187 HD
HETATM    4  N   UNK N   1      20.156  20.291   1.596  0.00  0.00    -0.309 N 
HETATM    5  C   UNK N   1      21.487  20.520   1.748  0.00  0.00     0.139 A 
HETATM    6  C   UNK N   1      21.871  19.883   2.902  0.00  0.00     0.086 A 
HETATM    7  H   UNK N   1      19.601  20.636   0.859  0.00  0.00     0.186 HD
ENDROOT
BRANCH   1   8
HETATM    8  C   UNK N   1      20.793  18.450   4.628  0.00  0.00     0.276 C 
HETATM    9  N   UNK N   1      20.606  17.104   4.595  0.00  0.00    -0.322 N 
HETATM   10  H   UNK N   1      20.178  16.696   3.808  0.00  0.00     0.169 HD
HETATM   11  O   UNK N   1      21.089  18.995   5.685  0.00  0.00    -0.266 OA
BRANCH   9  12
HETATM   12  C   UNK N   1      21.018  16.268   5.681  0.00  0.00     0.035 A 
HETATM   13  C   UNK N   1      22.359  15.898   5.825  0.00  0.00     0.032 A 
HETATM   14  C   UNK N   1      22.759  15.131   6.930  0.00  0.00     0.044 A 
HETATM   15  C   UNK N   1      21.824  14.747   7.902  0.00  0.00     0.116 A 
HETATM   16  F   UNK N   1      22.208  14.014   8.973  0.00  0.00    -0.206 F 
HETATM   17  C   UNK N   1      20.493  15.127   7.774  0.00  0.00     0.044 A 
HETATM   18  C   UNK N   1      20.098  15.883   6.680  0.00  0.00     0.032 A 
ENDBRANCH   9  12
ENDBRANCH   1   8
BRANCH   6  19
HETATM   19  N   UNK N   1      23.156  19.678   3.465  0.00  0.00    -0.320 N 
HETATM   20  C   UNK N   1      24.362  20.149   3.096  0.00  0.00     0.256 C 
HETATM   21  O   UNK N   1      24.473  20.953   2.183  0.00  0.00    -0.267 OA
HETATM   22  H   UNK N   1      23.169  19.094   4.257  0.00  0.00     0.169 HD
BRANCH  20  23
HETATM   23  C   UNK N   1      25.542  19.665   3.851  0.00  0.00     0.032 A 
HETATM   24  C   UNK N   1      25.522  18.451   4.547  0.00  0.00     0.017 A 
HETATM   25  C   UNK N   1      26.658  18.025   5.246  0.00  0.00     0.001 A 
HETATM   26  C   UNK N   1      27.815  18.811   5.260  0.00  0.00     0.000 A 
HETATM   27  C   UNK N   1      27.842  20.026   4.573  0.00  0.00     0.001 A 
HETATM   28  C   UNK N   1      26.713  20.447   3.869  0.00  0.00     0.017 A 
ENDBRANCH  20  23
ENDBRANCH   6  19
TORSDOF 4
ENDMDL
MODEL 5
REMARK VINA RESULT:      -7.3     17.002     18.854
REMARK  4 active torsions:
REMARK  status: ('A' for Active; 'I' for Inactive)
REMARK    1  A    between atoms: C_5  and  N_6 
REMARK       I    between atoms: N_6  and  C_7 
REMARK    2  A    between atoms: C_7  and  C_9 
REMARK    3  A    between atoms: C_14  and  N_15 
REMARK       I    between atoms: N_15  and  C_16 
REMARK    4  A    between atoms: C_16  and  C_18 
ROOT
HETATM    1  C   UNK N   1      36.532  14.182  13.304  0.00  0.00     0.144 A 
HETATM    2  N   UNK N   1      36.060  15.229  12.604  0.00  0.00    -0.294 N 
ATOM      3  HN  UNK N   1      35.593  16.049  12.992  1.00  0.00     0.187 HD
HETATM    4  N   UNK N   1      36.311  15.006  11.317  0.00  0.00    -0.309 N 
HETATM    5  C   UNK N   1      36.921  13.800  11.175  0.00  0.00     0.139 A 
HETATM    6  C   UNK N   1      37.063  13.275  12.437  0.00  0.00     0.086 A 
HETATM    7  H   UNK N   1      36.089  15.620  10.580  0.00  0.00     0.186 HD
ENDROOT
BRANCH   1   8
HETATM    8  C   UNK N   1      36.449  13.936  14.756  0.00  0.00     0.276 C 
HETATM    9  N   UNK N   1      35.359  13.371  15.340  0.00  0.00    -0.322 N 
HETATM   10  H   UNK N   1      34.503  13.362  14.855  0.00  0.00     0.169 HD
HETATM   11  O   UNK N   1      37.443  14.178  15.431  0.00  0.00    -0.266 OA
BRANCH   9  12
HETATM   12  C   UNK N   1      35.433  12.789  16.646  0.00  0.00     0.035 A 
HETATM   13  C   UNK N   1      35.119  13.544  17.780  0.00  0.00     0.032 A 
HETATM   14  C   UNK N   1      35.135  12.942  19.048  0.00  0.00     0.044 A 
HETATM   15  C   UNK N   1      35.445  11.581  19.183  0.00  0.00     0.116 A 
HETATM   16  F   UNK N   1      35.453  10.996  20.404  0.00  0.00    -0.206 F 
HETATM   17  C   UNK N   1      35.740  10.821  18.057  0.00  0.00     0.044 A 
HETATM   18  C   UNK N   1      35.728  11.418  16.804  0.00  0.00     0.032 A 
ENDBRANCH   9  12
ENDBRANCH   1   8
BRANCH   6  19
HETATM   19  N   UNK N   1      37.505  11.998  12.866  0.00  0.00    -0.320 N 
HETATM   20  C   UNK N   1      36.809  10.912  13.251  0.00  0.00     0.256 C 
HETATM   21  O   UNK N   1      35.590  10.888  13.185  0.00  0.00    -0.267 OA
HETATM   22  H   UNK N   1      38.483  11.888  12.888  0.00  0.00     0.169 HD
BRANCH  20  23
HETATM   23  C   UNK N   1      37.583   9.745  13.737  0.00  0.00     0.032 A 
HETATM   24  C   UNK N   1      38.624   9.888  14.661  0.00  0.00     0.017 A 
HETATM   25  C   UNK N   1      39.330   8.761  15.102  0.00  0.00     0.001 A 
HETATM   26  C   UNK N   1      39.007   7.490  14.616  0.00  0.00     0.000 A 
HETATM   27  C   UNK N   1      37.973   7.340  13.690  0.00  0.00     0.001 A 
HETATM   28  C   UNK N   1      37.263   8.461  13.257  0.00  0.00     0.017 A 
ENDBRANCH  20  23
ENDBRANCH   6  19
TORSDOF 4
ENDMDL
MODEL 6
REMARK VINA RESULT:      -7.2      3.276      5.496
REMARK  4 active torsions:
REMARK  status: ('A' for Active; 'I' for Inactive)
REMARK    1  A    between atoms: C_5  and  N_6 
REMARK       I    between atoms: N_6  and  C_7 
REMARK    2  A    between atoms: C_7  and  C_9 
REMARK    3  A    between atoms: C_14  and  N_15 
REMARK       I    between atoms: N_15  and  C_16 
REMARK    4  A    between atoms: C_16  and  C_18 
ROOT
HETATM    1  C   UNK N   1      20.687  18.471   3.710  0.00  0.00     0.144 A 
HETATM    2  N   UNK N   1      20.856  19.792   3.897  0.00  0.00    -0.294 N 
ATOM      3  HN  UNK N   1      21.050  20.252   4.786  1.00  0.00     0.187 HD
HETATM    4  N   UNK N   1      20.725  20.392   2.716  0.00  0.00    -0.309 N 
HETATM    5  C   UNK N   1      20.443  19.464   1.764  0.00  0.00     0.139 A 
HETATM    6  C   UNK N   1      20.420  18.243   2.393  0.00  0.00     0.086 A 
HETATM    7  H   UNK N   1      20.819  21.359   2.557  0.00  0.00     0.186 HD
ENDROOT
BRANCH   1   8
HETATM    8  C   UNK N   1      20.687  17.394   4.716  0.00  0.00     0.276 C 
HETATM    9  N   UNK N   1      21.598  17.336   5.725  0.00  0.00    -0.322 N 
HETATM   10  H   UNK N   1      22.432  17.852   5.650  0.00  0.00     0.169 HD
HETATM   11  O   UNK N   1      19.773  16.578   4.677  0.00  0.00    -0.266 OA
BRANCH   9  12
HETATM   12  C   UNK N   1      21.366  16.541   6.892  0.00  0.00     0.035 A 
HETATM   13  C   UNK N   1      20.402  16.920   7.831  0.00  0.00     0.032 A 
HETATM   14  C   UNK N   1      20.141  16.097   8.938  0.00  0.00     0.044 A 
HETATM   15  C   UNK N   1      20.830  14.887   9.100  0.00  0.00     0.116 A 
HETATM   16  F   UNK N   1      20.576  14.087  10.162  0.00  0.00    -0.206 F 
HETATM   17  C   UNK N   1      21.777  14.496   8.160  0.00  0.00     0.044 A 
HETATM   18  C   UNK N   1      22.036  15.311   7.067  0.00  0.00     0.032 A 
ENDBRANCH   9  12
ENDBRANCH   1   8
BRANCH   6  19
HETATM   19  N   UNK N   1      20.047  16.961   1.915  0.00  0.00    -0.320 N 
HETATM   20  C   UNK N   1      19.973  16.478   0.661  0.00  0.00     0.256 C 
HETATM   21  O   UNK N   1      20.337  17.147  -0.295  0.00  0.00    -0.267 OA
HETATM   22  H   UNK N   1      19.801  16.317   2.618  0.00  0.00     0.169 HD
BRANCH  20  23
HETATM   23  C   UNK N   1      19.452  15.102   0.490  0.00  0.00     0.032 A 
HETATM   24  C   UNK N   1      18.169  14.860  -0.015  0.00  0.00     0.017 A 
HETATM   25  C   UNK N   1      17.712  13.544  -0.166  0.00  0.00     0.001 A 
HETATM   26  C   UNK N   1      18.528  12.467   0.194  0.00  0.00     0.000 A 
HETATM   27  C   UNK N   1      19.807  12.700   0.705  0.00  0.00     0.001 A 
HETATM   28  C   UNK N   1      20.266  14.010   0.847  0.00  0.00     0.017 A 
ENDBRANCH  20  23
ENDBRANCH   6  19
TORSDOF 4
ENDMDL
MODEL 7
REMARK VINA RESULT:      -7.2      6.544      9.495
REMARK  4 active torsions:
REMARK  status: ('A' for Active; 'I' for Inactive)
REMARK    1  A    between atoms: C_5  and  N_6 
REMARK       I    between atoms: N_6  and  C_7 
REMARK    2  A    between atoms: C_7  and  C_9 
REMARK    3  A    between atoms: C_14  and  N_15 
REMARK       I    between atoms: N_15  and  C_16 
REMARK    4  A    between atoms: C_16  and  C_18 
ROOT
HETATM    1  C   UNK N   1      29.072  18.193   8.019  0.00  0.00     0.144 A 
HETATM    2  N   UNK N   1      28.708  18.711   9.206  0.00  0.00    -0.294 N 
ATOM      3  HN  UNK N   1      27.834  19.197   9.407  1.00  0.00     0.187 HD
HETATM    4  N   UNK N   1      29.691  18.477  10.071  0.00  0.00    -0.309 N 
HETATM    5  C   UNK N   1      30.707  17.832   9.441  0.00  0.00     0.139 A 
HETATM    6  C   UNK N   1      30.316  17.649   8.138  0.00  0.00     0.086 A 
HETATM    7  H   UNK N   1      29.684  18.732  11.022  0.00  0.00     0.186 HD
ENDROOT
BRANCH   1   8
HETATM    8  C   UNK N   1      28.346  18.241   6.736  0.00  0.00     0.276 C 
HETATM    9  N   UNK N   1      27.090  18.749   6.626  0.00  0.00    -0.322 N 
HETATM   10  H   UNK N   1      26.537  18.846   7.434  0.00  0.00     0.169 HD
HETATM   11  O   UNK N   1      28.947  17.884   5.729  0.00  0.00    -0.266 OA
BRANCH   9  12
HETATM   12  C   UNK N   1      26.556  19.146   5.358  0.00  0.00     0.035 A 
HETATM   13  C   UNK N   1      25.423  18.516   4.834  0.00  0.00     0.032 A 
HETATM   14  C   UNK N   1      24.874  18.958   3.621  0.00  0.00     0.044 A 
HETATM   15  C   UNK N   1      25.445  20.041   2.938  0.00  0.00     0.116 A 
HETATM   16  F   UNK N   1      24.913  20.475   1.771  0.00  0.00    -0.206 F 
HETATM   17  C   UNK N   1      26.560  20.683   3.463  0.00  0.00     0.044 A 
HETATM   18  C   UNK N   1      27.104  20.244   4.661  0.00  0.00     0.032 A 
ENDBRANCH   9  12
ENDBRANCH   1   8
BRANCH   6  19
HETATM   19  N   UNK N   1      31.029  17.159   7.014  0.00  0.00    -0.320 N 
HETATM   20  C   UNK N   1      32.299  17.369   6.621  0.00  0.00     0.256 C 
HETATM   21  O   UNK N   1      33.076  18.010   7.311  0.00  0.00    -0.267 OA
HETATM   22  H   UNK N   1      30.508  16.569   6.424  0.00  0.00     0.169 HD
BRANCH  20  23
HETATM   23  C   UNK N   1      32.718  16.776   5.329  0.00  0.00     0.032 A 
HETATM   24  C   UNK N   1      33.514  15.626   5.272  0.00  0.00     0.017 A 
HETATM   25  C   UNK N   1      33.887  15.091   4.032  0.00  0.00     0.001 A 
HETATM   26  C   UNK N   1      33.475  15.707   2.845  0.00  0.00     0.000 A 
HETATM   27  C   UNK N   1      32.686  16.858   2.893  0.00  0.00     0.001 A 
HETATM   28  C   UNK N   1      32.307  17.386   4.128  0.00  0.00     0.017 A 
ENDBRANCH  20  23
ENDBRANCH   6  19
TORSDOF 4
ENDMDL
MODEL 8
REMARK VINA RESULT:      -7.1     14.124     16.979
REMARK  4 active torsions:
REMARK  status: ('A' for Active; 'I' for Inactive)
REMARK    1  A    between atoms: C_5  and  N_6 
REMARK       I    between atoms: N_6  and  C_7 
REMARK    2  A    between atoms: C_7  and  C_9 
REMARK    3  A    between atoms: C_14  and  N_15 
REMARK       I    between atoms: N_15  and  C_16 
REMARK    4  A    between atoms: C_16  and  C_18 
ROOT
HETATM    1  C   UNK N   1      36.203  14.292  13.527  0.00  0.00     0.144 A 
HETATM    2  N   UNK N   1      36.903  15.083  14.359  0.00  0.00    -0.294 N 
ATOM      3  HN  UNK N   1      37.084  16.079  14.232  1.00  0.00     0.187 HD
HETATM    4  N   UNK N   1      37.319  14.336  15.379  0.00  0.00    -0.309 N 
HETATM    5  C   UNK N   1      36.913  13.052  15.197  0.00  0.00     0.139 A 
HETATM    6  C   UNK N   1      36.203  13.022  14.021  0.00  0.00     0.086 A 
HETATM    7  H   UNK N   1      37.840  14.663  16.148  0.00  0.00     0.186 HD
ENDROOT
BRANCH   1   8
HETATM    8  C   UNK N   1      35.584  14.640  12.235  0.00  0.00     0.276 C 
HETATM    9  N   UNK N   1      36.256  15.307  11.259  0.00  0.00    -0.322 N 
HETATM   10  H   UNK N   1      37.071  15.807  11.491  0.00  0.00     0.169 HD
HETATM   11  O   UNK N   1      34.451  14.228  12.018  0.00  0.00    -0.266 OA
BRANCH   9  12
HETATM   12  C   UNK N   1      35.800  15.298   9.902  0.00  0.00     0.035 A 
HETATM   13  C   UNK N   1      34.973  16.317   9.422  0.00  0.00     0.032 A 
HETATM   14  C   UNK N   1      34.587  16.328   8.072  0.00  0.00     0.044 A 
HETATM   15  C   UNK N   1      35.040  15.331   7.197  0.00  0.00     0.116 A 
HETATM   16  F   UNK N   1      34.676  15.343   5.893  0.00  0.00    -0.206 F 
HETATM   17  C   UNK N   1      35.878  14.325   7.664  0.00  0.00     0.044 A 
HETATM   18  C   UNK N   1      36.258  14.313   8.999  0.00  0.00     0.032 A 
ENDBRANCH   9  12
ENDBRANCH   1   8
BRANCH   6  19
HETATM   19  N   UNK N   1      35.672  11.932  13.286  0.00  0.00    -0.320 N 
HETATM   20  C   UNK N   1      34.609  11.143  13.532  0.00  0.00     0.256 C 
HETATM   21  O   UNK N   1      33.866  11.360  14.476  0.00  0.00    -0.267 OA
HETATM   22  H   UNK N   1      36.161  11.717  12.461  0.00  0.00     0.169 HD
BRANCH  20  23
HETATM   23  C   UNK N   1      34.370  10.015  12.601  0.00  0.00     0.032 A 
HETATM   24  C   UNK N   1      33.479  10.125  11.527  0.00  0.00     0.017 A 
HETATM   25  C   UNK N   1      33.282   9.039  10.665  0.00  0.00     0.001 A 
HETATM   26  C   UNK N   1      33.965   7.837  10.876  0.00  0.00     0.000 A 
HETATM   27  C   UNK N   1      34.851   7.716  11.949  0.00  0.00     0.001 A 
HETATM   28  C   UNK N   1      35.054   8.801  12.803  0.00  0.00     0.017 A 
ENDBRANCH  20  23
ENDBRANCH   6  19
TORSDOF 4
ENDMDL
MODEL 9
REMARK VINA RESULT:      -7.1      6.724      9.955
REMARK  4 active torsions:
REMARK  status: ('A' for Active; 'I' for Inactive)
REMARK    1  A    between atoms: C_5  and  N_6 
REMARK       I    between atoms: N_6  and  C_7 
REMARK    2  A    between atoms: C_7  and  C_9 
REMARK    3  A    between atoms: C_14  and  N_15 
REMARK       I    between atoms: N_15  and  C_16 
REMARK    4  A    between atoms: C_16  and  C_18 
ROOT
HETATM    1  C   UNK N   1      30.066  17.441   7.965  0.00  0.00     0.144 A 
HETATM    2  N   UNK N   1      30.514  17.190   9.208  0.00  0.00    -0.294 N 
ATOM      3  HN  UNK N   1      31.375  16.698   9.448  1.00  0.00     0.187 HD
HETATM    4  N   UNK N   1      29.635  17.695  10.070  0.00  0.00    -0.309 N 
HETATM    5  C   UNK N   1      28.600  18.252   9.388  0.00  0.00     0.139 A 
HETATM    6  C   UNK N   1      28.872  18.093   8.051  0.00  0.00     0.086 A 
HETATM    7  H   UNK N   1      29.721  17.670  11.050  0.00  0.00     0.186 HD
ENDROOT
BRANCH   1   8
HETATM    8  C   UNK N   1      30.658  17.039   6.677  0.00  0.00     0.276 C 
HETATM    9  N   UNK N   1      31.927  17.371   6.321  0.00  0.00    -0.322 N 
HETATM   10  H   UNK N   1      32.382  18.108   6.789  0.00  0.00     0.169 HD
HETATM   11  O   UNK N   1      29.997  16.305   5.951  0.00  0.00    -0.266 OA
BRANCH   9  12
HETATM   12  C   UNK N   1      32.616  16.670   5.279  0.00  0.00     0.035 A 
HETATM   13  C   UNK N   1      33.329  15.501   5.559  0.00  0.00     0.032 A 
HETATM   14  C   UNK N   1      33.946  14.791   4.518  0.00  0.00     0.044 A 
HETATM   15  C   UNK N   1      33.836  15.237   3.193  0.00  0.00     0.116 A 
HETATM   16  F   UNK N   1      34.423  14.550   2.185  0.00  0.00    -0.206 F 
HETATM   17  C   UNK N   1      33.113  16.389   2.906  0.00  0.00     0.044 A 
HETATM   18  C   UNK N   1      32.506  17.093   3.937  0.00  0.00     0.032 A 
ENDBRANCH   9  12
ENDBRANCH   1   8
BRANCH   6  19
HETATM   19  N   UNK N   1      28.081  18.360   6.905  0.00  0.00    -0.320 N 
HETATM   20  C   UNK N   1      27.659  19.527   6.382  0.00  0.00     0.256 C 
HETATM   21  O   UNK N   1      28.022  20.596   6.849  0.00  0.00    -0.267 OA
HETATM   22  H   UNK N   1      27.791  17.560   6.411  0.00  0.00     0.169 HD
BRANCH  20  23
HETATM   23  C   UNK N   1      26.754  19.460   5.210  0.00  0.00     0.032 A 
HETATM   24  C   UNK N   1      25.899  18.370   5.004  0.00  0.00     0.017 A 
HETATM   25  C   UNK N   1      25.055  18.344   3.887  0.00  0.00     0.001 A 
HETATM   26  C   UNK N   1      25.066  19.398   2.967  0.00  0.00     0.000 A 
HETATM   27  C   UNK N   1      25.920  20.485   3.163  0.00  0.00     0.001 A 
HETATM   28  C   UNK N   1      26.755  20.517   4.280  0.00  0.00     0.017 A 
ENDBRANCH  20  23
ENDBRANCH   6  19
TORSDOF 4
ENDMDL
