MODEL 1
REMARK VINA RESULT:      -7.6      0.000      0.000
REMARK  4 active torsions:
REMARK  status: ('A' for Active; 'I' for Inactive)
REMARK    1  A    between atoms: C_5  and  N_6 
REMARK       I    between atoms: N_6  and  C_7 
REMARK    2  A    between atoms: C_7  and  C_9 
REMARK    3  A    between atoms: C_14  and  N_15 
REMARK       I    between atoms: N_15  and  C_16 
REMARK    4  A    between atoms: C_16  and  C_18 
ROOT
HETATM    1  C   UNK N   1      28.857  18.145   8.107  0.00  0.00     0.144 A 
HETATM    2  N   UNK N   1      28.512  18.541   9.345  0.00  0.00    -0.294 N 
ATOM      3  HN  UNK N   1      27.645  19.009   9.604  1.00  0.00     0.187 HD
HETATM    4  N   UNK N   1      29.502  18.217  10.172  0.00  0.00    -0.309 N 
HETATM    5  C   UNK N   1      30.499  17.620   9.472  0.00  0.00     0.139 A 
HETATM    6  C   UNK N   1      30.097  17.569   8.158  0.00  0.00     0.086 A 
HETATM    7  H   UNK N   1      29.509  18.384  11.142  0.00  0.00     0.186 HD
ENDROOT
BRANCH   6   8
HETATM    8  N   UNK N   1      30.787  17.107   7.006  0.00  0.00    -0.319 N 
HETATM    9  C   UNK N   1      32.081  17.284   6.664  0.00  0.00     0.262 C 
HETATM   10  O   UNK N   1      32.843  17.879   7.412  0.00  0.00    -0.267 OA
HETATM   11  H   UNK N   1      30.247  16.585   6.369  0.00  0.00     0.169 HD
BRANCH   9  12
HETATM   12  C   UNK N   1      32.559  16.738   5.350  0.00  0.00     0.109 A 
HETATM   13  C   UNK N   1      33.450  15.644   5.299  0.00  0.00     0.135 A 
HETATM   14  F   UNK N   1      33.898  15.052   6.433  0.00  0.00    -0.205 F 
HETATM   15  C   UNK N   1      33.886  15.146   4.066  0.00  0.00     0.043 A 
HETATM   16  C   UNK N   1      33.450  15.723   2.874  0.00  0.00     0.006 A 
HETATM   17  C   UNK N   1      32.577  16.804   2.905  0.00  0.00     0.043 A 
HETATM   18  C   UNK N   1      32.128  17.315   4.124  0.00  0.00     0.135 A 
HETATM   19  F   UNK N   1      31.288  18.374   4.092  0.00  0.00    -0.205 F 
ENDBRANCH   9  12
ENDBRANCH   6   8
BRANCH   1  20
HETATM   20  C   UNK N   1      28.079  18.318   6.865  0.00  0.00     0.276 C 
HETATM   21  N   UNK N   1      27.227  19.364   6.679  0.00  0.00    -0.322 N 
HETATM   22  H   UNK N   1      27.035  19.959   7.440  0.00  0.00     0.169 HD
HETATM   23  O   UNK N   1      28.225  17.489   5.980  0.00  0.00    -0.266 OA
BRANCH  21  24
HETATM   24  C   UNK N   1      26.601  19.632   5.419  0.00  0.00     0.035 A 
HETATM   25  C   UNK N   1      27.287  20.354   4.437  0.00  0.00     0.032 A 
HETATM   26  C   UNK N   1      26.673  20.619   3.203  0.00  0.00     0.044 A 
HETATM   27  C   UNK N   1      25.378  20.153   2.944  0.00  0.00     0.116 A 
HETATM   28  F   UNK N   1      24.782  20.414   1.757  0.00  0.00    -0.206 F 
HETATM   29  C   UNK N   1      24.698  19.415   3.907  0.00  0.00     0.044 A 
HETATM   30  C   UNK N   1      25.305  19.156   5.132  0.00  0.00     0.032 A 
ENDBRANCH  21  24
ENDBRANCH   1  20
TORSDOF 4
ENDMDL
MODEL 2
REMARK VINA RESULT:      -7.4     11.459     14.087
REMARK  4 active torsions:
REMARK  status: ('A' for Active; 'I' for Inactive)
REMARK    1  A    between atoms: C_5  and  N_6 
REMARK       I    between atoms: N_6  and  C_7 
REMARK    2  A    between atoms: C_7  and  C_9 
REMARK    3  A    between atoms: C_14  and  N_15 
REMARK       I    between atoms: N_15  and  C_16 
REMARK    4  A    between atoms: C_16  and  C_18 
ROOT
HETATM    1  C   UNK N   1      25.818  26.919  -4.892  0.00  0.00     0.144 A 
HETATM    2  N   UNK N   1      25.142  28.024  -4.530  0.00  0.00    -0.294 N 
ATOM      3  HN  UNK N   1      24.397  28.472  -5.062  1.00  0.00     0.187 HD
HETATM    4  N   UNK N   1      25.617  28.432  -3.356  0.00  0.00    -0.309 N 
HETATM    5  C   UNK N   1      26.612  27.600  -2.958  0.00  0.00     0.139 A 
HETATM    6  C   UNK N   1      26.746  26.634  -3.928  0.00  0.00     0.086 A 
HETATM    7  H   UNK N   1      25.296  29.215  -2.855  0.00  0.00     0.186 HD
ENDROOT
BRANCH   6   8
HETATM    8  N   UNK N   1      27.677  25.568  -4.037  0.00  0.00    -0.319 N 
HETATM    9  C   UNK N   1      27.607  24.324  -3.513  0.00  0.00     0.262 C 
HETATM   10  O   UNK N   1      26.623  23.975  -2.878  0.00  0.00    -0.267 OA
HETATM   11  H   UNK N   1      28.483  25.761  -4.566  0.00  0.00     0.169 HD
BRANCH   9  12
HETATM   12  C   UNK N   1      28.761  23.389  -3.727  0.00  0.00     0.109 A 
HETATM   13  C   UNK N   1      29.131  22.977  -5.025  0.00  0.00     0.135 A 
HETATM   14  F   UNK N   1      28.458  23.415  -6.118  0.00  0.00    -0.205 F 
HETATM   15  C   UNK N   1      30.209  22.105  -5.209  0.00  0.00     0.043 A 
HETATM   16  C   UNK N   1      30.931  21.629  -4.115  0.00  0.00     0.006 A 
HETATM   17  C   UNK N   1      30.578  22.020  -2.829  0.00  0.00     0.043 A 
HETATM   18  C   UNK N   1      29.507  22.891  -2.624  0.00  0.00     0.135 A 
HETATM   19  F   UNK N   1      29.203  23.228  -1.349  0.00  0.00    -0.205 F 
ENDBRANCH   9  12
ENDBRANCH   6   8
BRANCH   1  20
HETATM   20  C   UNK N   1      25.649  26.135  -6.131  0.00  0.00     0.276 C 
HETATM   21  N   UNK N   1      26.061  26.595  -7.345  0.00  0.00    -0.322 N 
HETATM   22  H   UNK N   1      26.373  27.526  -7.418  0.00  0.00     0.169 HD
HETATM   23  O   UNK N   1      25.130  25.034  -6.043  0.00  0.00    -0.266 OA
BRANCH  21  24
HETATM   24  C   UNK N   1      26.057  25.775  -8.519  0.00  0.00     0.035 A 
HETATM   25  C   UNK N   1      25.184  26.067  -9.573  0.00  0.00     0.032 A 
HETATM   26  C   UNK N   1      25.178  25.263 -10.723  0.00  0.00     0.044 A 
HETATM   27  C   UNK N   1      26.050  24.172 -10.827  0.00  0.00     0.116 A 
HETATM   28  F   UNK N   1      26.039  23.391 -11.932  0.00  0.00    -0.206 F 
HETATM   29  C   UNK N   1      26.935  23.888  -9.793  0.00  0.00     0.044 A 
HETATM   30  C   UNK N   1      26.939  24.684  -8.651  0.00  0.00     0.032 A 
ENDBRANCH  21  24
ENDBRANCH   1  20
TORSDOF 4
ENDMDL
MODEL 3
REMARK VINA RESULT:      -7.4      5.961      9.233
REMARK  4 active torsions:
REMARK  status: ('A' for Active; 'I' for Inactive)
REMARK    1  A    between atoms: C_5  and  N_6 
REMARK       I    between atoms: N_6  and  C_7 
REMARK    2  A    between atoms: C_7  and  C_9 
REMARK    3  A    between atoms: C_14  and  N_15 
REMARK       I    between atoms: N_15  and  C_16 
REMARK    4  A    between atoms: C_16  and  C_18 
ROOT
HETATM    1  C   UNK N   1      20.431  16.998   4.320  0.00  0.00     0.144 A 
HETATM    2  N   UNK N   1      19.216  16.853   3.760  0.00  0.00    -0.294 N 
ATOM      3  HN  UNK N   1      18.413  16.389   4.183  1.00  0.00     0.187 HD
HETATM    4  N   UNK N   1      19.246  17.420   2.557  0.00  0.00    -0.309 N 
HETATM    5  C   UNK N   1      20.484  17.924   2.326  0.00  0.00     0.139 A 
HETATM    6  C   UNK N   1      21.244  17.661   3.442  0.00  0.00     0.086 A 
HETATM    7  H   UNK N   1      18.488  17.466   1.932  0.00  0.00     0.186 HD
ENDROOT
BRANCH   6   8
HETATM    8  N   UNK N   1      22.617  17.915   3.696  0.00  0.00    -0.319 N 
HETATM    9  C   UNK N   1      23.270  19.097   3.730  0.00  0.00     0.262 C 
HETATM   10  O   UNK N   1      22.661  20.144   3.568  0.00  0.00    -0.267 OA
HETATM   11  H   UNK N   1      23.170  17.119   3.872  0.00  0.00     0.169 HD
BRANCH   9  12
HETATM   12  C   UNK N   1      24.752  19.093   3.966  0.00  0.00     0.109 A 
HETATM   13  C   UNK N   1      25.593  20.025   3.320  0.00  0.00     0.135 A 
HETATM   14  F   UNK N   1      25.088  20.952   2.470  0.00  0.00    -0.205 F 
HETATM   15  C   UNK N   1      26.973  20.010   3.551  0.00  0.00     0.043 A 
HETATM   16  C   UNK N   1      27.536  19.075   4.418  0.00  0.00     0.006 A 
HETATM   17  C   UNK N   1      26.725  18.147   5.060  0.00  0.00     0.043 A 
HETATM   18  C   UNK N   1      25.346  18.146   4.844  0.00  0.00     0.135 A 
HETATM   19  F   UNK N   1      24.608  17.212   5.488  0.00  0.00    -0.205 F 
ENDBRANCH   9  12
ENDBRANCH   6   8
BRANCH   1  20
HETATM   20  C   UNK N   1      20.869  16.505   5.640  0.00  0.00     0.276 C 
HETATM   21  N   UNK N   1      20.550  15.262   6.096  0.00  0.00    -0.322 N 
HETATM   22  H   UNK N   1      19.909  14.720   5.582  0.00  0.00     0.169 HD
HETATM   23  O   UNK N   1      21.551  17.247   6.328  0.00  0.00    -0.266 OA
BRANCH  21  24
HETATM   24  C   UNK N   1      21.111  14.715   7.294  0.00  0.00     0.035 A 
HETATM   25  C   UNK N   1      20.404  14.797   8.499  0.00  0.00     0.032 A 
HETATM   26  C   UNK N   1      20.954  14.264   9.674  0.00  0.00     0.044 A 
HETATM   27  C   UNK N   1      22.207  13.639   9.647  0.00  0.00     0.116 A 
HETATM   28  F   UNK N   1      22.743  13.131  10.782  0.00  0.00    -0.206 F 
HETATM   29  C   UNK N   1      22.907  13.534   8.450  0.00  0.00     0.044 A 
HETATM   30  C   UNK N   1      22.363  14.066   7.284  0.00  0.00     0.032 A 
ENDBRANCH  21  24
ENDBRANCH   1  20
TORSDOF 4
ENDMDL
MODEL 4
REMARK VINA RESULT:      -7.4      5.387      8.470
REMARK  4 active torsions:
REMARK  status: ('A' for Active; 'I' for Inactive)
REMARK    1  A    between atoms: C_5  and  N_6 
REMARK       I    between atoms: N_6  and  C_7 
REMARK    2  A    between atoms: C_7  and  C_9 
REMARK    3  A    between atoms: C_14  and  N_15 
REMARK       I    between atoms: N_15  and  C_16 
REMARK    4  A    between atoms: C_16  and  C_18 
ROOT
HETATM    1  C   UNK N   1      21.049  18.916   4.144  0.00  0.00     0.144 A 
HETATM    2  N   UNK N   1      19.933  19.173   3.438  0.00  0.00    -0.294 N 
ATOM      3  HN  UNK N   1      18.985  18.902   3.696  1.00  0.00     0.187 HD
HETATM    4  N   UNK N   1      20.283  19.844   2.344  0.00  0.00    -0.309 N 
HETATM    5  C   UNK N   1      21.629  20.014   2.329  0.00  0.00     0.139 A 
HETATM    6  C   UNK N   1      22.124  19.427   3.470  0.00  0.00     0.086 A 
HETATM    7  H   UNK N   1      19.662  20.168   1.653  0.00  0.00     0.186 HD
ENDROOT
BRANCH   6   8
HETATM    8  N   UNK N   1      23.464  19.265   3.910  0.00  0.00    -0.319 N 
HETATM    9  C   UNK N   1      24.572  19.932   3.520  0.00  0.00     0.262 C 
HETATM   10  O   UNK N   1      24.492  20.843   2.709  0.00  0.00    -0.267 OA
HETATM   11  H   UNK N   1      23.606  18.570   4.593  0.00  0.00     0.169 HD
BRANCH   9  12
HETATM   12  C   UNK N   1      25.896  19.528   4.100  0.00  0.00     0.109 A 
HETATM   13  C   UNK N   1      26.522  18.324   3.712  0.00  0.00     0.135 A 
HETATM   14  F   UNK N   1      25.948  17.498   2.803  0.00  0.00    -0.205 F 
HETATM   15  C   UNK N   1      27.757  17.961   4.261  0.00  0.00     0.043 A 
HETATM   16  C   UNK N   1      28.384  18.780   5.198  0.00  0.00     0.006 A 
HETATM   17  C   UNK N   1      27.781  19.968   5.595  0.00  0.00     0.043 A 
HETATM   18  C   UNK N   1      26.550  20.349   5.058  0.00  0.00     0.135 A 
HETATM   19  F   UNK N   1      26.007  21.510   5.491  0.00  0.00    -0.205 F 
ENDBRANCH   9  12
ENDBRANCH   6   8
BRANCH   1  20
HETATM   20  C   UNK N   1      21.149  18.174   5.416  0.00  0.00     0.276 C 
HETATM   21  N   UNK N   1      20.581  16.949   5.591  0.00  0.00    -0.322 N 
HETATM   22  H   UNK N   1      19.986  16.598   4.889  0.00  0.00     0.169 HD
HETATM   23  O   UNK N   1      21.776  18.688   6.329  0.00  0.00    -0.266 OA
BRANCH  21  24
HETATM   24  C   UNK N   1      20.816  16.152   6.757  0.00  0.00     0.035 A 
HETATM   25  C   UNK N   1      19.966  16.260   7.863  0.00  0.00     0.032 A 
HETATM   26  C   UNK N   1      20.198  15.482   9.006  0.00  0.00     0.044 A 
HETATM   27  C   UNK N   1      21.272  14.585   9.044  0.00  0.00     0.116 A 
HETATM   28  F   UNK N   1      21.502  13.838  10.150  0.00  0.00    -0.206 F 
HETATM   29  C   UNK N   1      22.110  14.455   7.942  0.00  0.00     0.044 A 
HETATM   30  C   UNK N   1      21.882  15.230   6.808  0.00  0.00     0.032 A 
ENDBRANCH  21  24
ENDBRANCH   1  20
TORSDOF 4
ENDMDL
MODEL 5
REMARK VINA RESULT:      -7.4     11.075     14.810
REMARK  4 active torsions:
REMARK  status: ('A' for Active; 'I' for Inactive)
REMARK    1  A    between atoms: C_5  and  N_6 
REMARK       I    between atoms: N_6  and  C_7 
REMARK    2  A    between atoms: C_7  and  C_9 
REMARK    3  A    between atoms: C_14  and  N_15 
REMARK       I    between atoms: N_15  and  C_16 
REMARK    4  A    between atoms: C_16  and  C_18 
ROOT
HETATM    1  C   UNK N   1      28.308  21.957  -7.936  0.00  0.00     0.144 A 
HETATM    2  N   UNK N   1      28.284  21.093  -8.967  0.00  0.00    -0.294 N 
ATOM      3  HN  UNK N   1      28.964  20.354  -9.146  1.00  0.00     0.187 HD
HETATM    4  N   UNK N   1      27.218  21.370  -9.712  0.00  0.00    -0.309 N 
HETATM    5  C   UNK N   1      26.553  22.424  -9.175  0.00  0.00     0.139 A 
HETATM    6  C   UNK N   1      27.239  22.803  -8.045  0.00  0.00     0.086 A 
HETATM    7  H   UNK N   1      26.952  20.886 -10.527  0.00  0.00     0.186 HD
ENDROOT
BRANCH   6   8
HETATM    8  N   UNK N   1      27.010  23.884  -7.153  0.00  0.00    -0.319 N 
HETATM    9  C   UNK N   1      26.031  24.033  -6.236  0.00  0.00     0.262 C 
HETATM   10  O   UNK N   1      25.210  23.146  -6.057  0.00  0.00    -0.267 OA
HETATM   11  H   UNK N   1      27.655  24.626  -7.212  0.00  0.00     0.169 HD
BRANCH   9  12
HETATM   12  C   UNK N   1      25.974  25.309  -5.447  0.00  0.00     0.109 A 
HETATM   13  C   UNK N   1      26.325  25.335  -4.080  0.00  0.00     0.135 A 
HETATM   14  F   UNK N   1      26.727  24.210  -3.439  0.00  0.00    -0.205 F 
HETATM   15  C   UNK N   1      26.267  26.532  -3.359  0.00  0.00     0.043 A 
HETATM   16  C   UNK N   1      25.860  27.714  -3.977  0.00  0.00     0.006 A 
HETATM   17  C   UNK N   1      25.507  27.707  -5.321  0.00  0.00     0.043 A 
HETATM   18  C   UNK N   1      25.559  26.524  -6.059  0.00  0.00     0.135 A 
HETATM   19  F   UNK N   1      25.193  26.576  -7.360  0.00  0.00    -0.205 F 
ENDBRANCH   9  12
ENDBRANCH   6   8
BRANCH   1  20
HETATM   20  C   UNK N   1      29.322  22.041  -6.867  0.00  0.00     0.276 C 
HETATM   21  N   UNK N   1      29.563  21.011  -6.009  0.00  0.00    -0.322 N 
HETATM   22  H   UNK N   1      28.964  20.230  -6.027  0.00  0.00     0.169 HD
HETATM   23  O   UNK N   1      29.964  23.075  -6.770  0.00  0.00    -0.266 OA
BRANCH  21  24
HETATM   24  C   UNK N   1      30.656  21.021  -5.084  0.00  0.00     0.035 A 
HETATM   25  C   UNK N   1      31.874  20.426  -5.432  0.00  0.00     0.032 A 
HETATM   26  C   UNK N   1      32.944  20.433  -4.525  0.00  0.00     0.044 A 
HETATM   27  C   UNK N   1      32.804  21.044  -3.273  0.00  0.00     0.116 A 
HETATM   28  F   UNK N   1      33.834  21.046  -2.394  0.00  0.00    -0.206 F 
HETATM   29  C   UNK N   1      31.605  21.657  -2.927  0.00  0.00     0.044 A 
HETATM   30  C   UNK N   1      30.542  21.646  -3.826  0.00  0.00     0.032 A 
ENDBRANCH  21  24
ENDBRANCH   1  20
TORSDOF 4
ENDMDL
MODEL 6
REMARK VINA RESULT:      -7.4     11.068     14.912
REMARK  4 active torsions:
REMARK  status: ('A' for Active; 'I' for Inactive)
REMARK    1  A    between atoms: C_5  and  N_6 
REMARK       I    between atoms: N_6  and  C_7 
REMARK    2  A    between atoms: C_7  and  C_9 
REMARK    3  A    between atoms: C_14  and  N_15 
REMARK       I    between atoms: N_15  and  C_16 
REMARK    4  A    between atoms: C_16  and  C_18 
ROOT
HETATM    1  C   UNK N   1      28.320  21.962  -7.959  0.00  0.00     0.144 A 
HETATM    2  N   UNK N   1      28.296  21.099  -8.990  0.00  0.00    -0.294 N 
ATOM      3  HN  UNK N   1      28.976  20.360  -9.168  1.00  0.00     0.187 HD
HETATM    4  N   UNK N   1      27.231  21.377  -9.737  0.00  0.00    -0.309 N 
HETATM    5  C   UNK N   1      26.566  22.431  -9.201  0.00  0.00     0.139 A 
HETATM    6  C   UNK N   1      27.251  22.809  -8.070  0.00  0.00     0.086 A 
HETATM    7  H   UNK N   1      26.967  20.892 -10.551  0.00  0.00     0.186 HD
ENDROOT
BRANCH   6   8
HETATM    8  N   UNK N   1      27.021  23.890  -7.178  0.00  0.00    -0.319 N 
HETATM    9  C   UNK N   1      26.035  24.045  -6.270  0.00  0.00     0.262 C 
HETATM   10  O   UNK N   1      25.206  23.163  -6.100  0.00  0.00    -0.267 OA
HETATM   11  H   UNK N   1      27.671  24.628  -7.230  0.00  0.00     0.169 HD
BRANCH   9  12
HETATM   12  C   UNK N   1      25.979  25.320  -5.480  0.00  0.00     0.109 A 
HETATM   13  C   UNK N   1      25.595  26.535  -6.088  0.00  0.00     0.135 A 
HETATM   14  F   UNK N   1      25.263  26.587  -7.401  0.00  0.00    -0.205 F 
HETATM   15  C   UNK N   1      25.547  27.716  -5.338  0.00  0.00     0.043 A 
HETATM   16  C   UNK N   1      25.879  27.710  -3.984  0.00  0.00     0.006 A 
HETATM   17  C   UNK N   1      26.263  26.524  -3.369  0.00  0.00     0.043 A 
HETATM   18  C   UNK N   1      26.316  25.335  -4.099  0.00  0.00     0.135 A 
HETATM   19  F   UNK N   1      26.707  24.215  -3.449  0.00  0.00    -0.205 F 
ENDBRANCH   9  12
ENDBRANCH   6   8
BRANCH   1  20
HETATM   20  C   UNK N   1      29.332  22.047  -6.888  0.00  0.00     0.276 C 
HETATM   21  N   UNK N   1      29.548  21.029  -6.009  0.00  0.00    -0.322 N 
HETATM   22  H   UNK N   1      28.932  20.261  -6.013  0.00  0.00     0.169 HD
HETATM   23  O   UNK N   1      29.996  23.068  -6.810  0.00  0.00    -0.266 OA
BRANCH  21  24
HETATM   24  C   UNK N   1      30.638  21.034  -5.081  0.00  0.00     0.035 A 
HETATM   25  C   UNK N   1      30.490  21.645  -3.831  0.00  0.00     0.032 A 
HETATM   26  C   UNK N   1      31.558  21.653  -2.922  0.00  0.00     0.044 A 
HETATM   27  C   UNK N   1      32.773  21.041  -3.254  0.00  0.00     0.116 A 
HETATM   28  F   UNK N   1      33.808  21.055  -2.381  0.00  0.00    -0.206 F 
HETATM   29  C   UNK N   1      32.922  20.413  -4.486  0.00  0.00     0.044 A 
HETATM   30  C   UNK N   1      31.863  20.408  -5.390  0.00  0.00     0.032 A 
ENDBRANCH  21  24
ENDBRANCH   1  20
TORSDOF 4
ENDMDL
MODEL 7
REMARK VINA RESULT:      -7.2     10.733     13.863
REMARK  4 active torsions:
REMARK  status: ('A' for Active; 'I' for Inactive)
REMARK    1  A    between atoms: C_5  and  N_6 
REMARK       I    between atoms: N_6  and  C_7 
REMARK    2  A    between atoms: C_7  and  C_9 
REMARK    3  A    between atoms: C_14  and  N_15 
REMARK       I    between atoms: N_15  and  C_16 
REMARK    4  A    between atoms: C_16  and  C_18 
ROOT
HETATM    1  C   UNK N   1      36.417  14.071  13.393  0.00  0.00     0.144 A 
HETATM    2  N   UNK N   1      36.363  15.314  12.880  0.00  0.00    -0.294 N 
ATOM      3  HN  UNK N   1      36.318  16.181  13.414  1.00  0.00     0.187 HD
HETATM    4  N   UNK N   1      36.377  15.214  11.554  0.00  0.00    -0.309 N 
HETATM    5  C   UNK N   1      36.427  13.905  11.200  0.00  0.00     0.139 A 
HETATM    6  C   UNK N   1      36.453  13.171  12.363  0.00  0.00     0.086 A 
HETATM    7  H   UNK N   1      36.355  15.972  10.927  0.00  0.00     0.186 HD
ENDROOT
BRANCH   6   8
HETATM    8  N   UNK N   1      36.441  11.766  12.560  0.00  0.00    -0.319 N 
HETATM    9  C   UNK N   1      35.422  10.973  12.957  0.00  0.00     0.262 C 
HETATM   10  O   UNK N   1      34.313  11.446  13.158  0.00  0.00    -0.267 OA
HETATM   11  H   UNK N   1      37.293  11.305  12.383  0.00  0.00     0.169 HD
BRANCH   9  12
HETATM   12  C   UNK N   1      35.684   9.507  13.148  0.00  0.00     0.109 A 
HETATM   13  C   UNK N   1      36.602   9.054  14.119  0.00  0.00     0.135 A 
HETATM   14  F   UNK N   1      37.272   9.926  14.911  0.00  0.00    -0.205 F 
HETATM   15  C   UNK N   1      36.834   7.684  14.286  0.00  0.00     0.043 A 
HETATM   16  C   UNK N   1      36.166   6.750  13.495  0.00  0.00     0.006 A 
HETATM   17  C   UNK N   1      35.262   7.178  12.530  0.00  0.00     0.043 A 
HETATM   18  C   UNK N   1      35.014   8.540  12.350  0.00  0.00     0.135 A 
HETATM   19  F   UNK N   1      34.132   8.898  11.388  0.00  0.00    -0.205 F 
ENDBRANCH   9  12
ENDBRANCH   6   8
BRANCH   1  20
HETATM   20  C   UNK N   1      36.399  13.693  14.819  0.00  0.00     0.276 C 
HETATM   21  N   UNK N   1      35.265  13.280  15.449  0.00  0.00    -0.322 N 
HETATM   22  H   UNK N   1      34.407  13.347  14.971  0.00  0.00     0.169 HD
HETATM   23  O   UNK N   1      37.451  13.749  15.436  0.00  0.00    -0.266 OA
BRANCH  21  24
HETATM   24  C   UNK N   1      35.274  12.750  16.780  0.00  0.00     0.035 A 
HETATM   25  C   UNK N   1      35.143  13.610  17.876  0.00  0.00     0.032 A 
HETATM   26  C   UNK N   1      35.155  13.093  19.179  0.00  0.00     0.044 A 
HETATM   27  C   UNK N   1      35.286  11.715  19.392  0.00  0.00     0.116 A 
HETATM   28  F   UNK N   1      35.306  11.215  20.650  0.00  0.00    -0.206 F 
HETATM   29  C   UNK N   1      35.396  10.851  18.307  0.00  0.00     0.044 A 
HETATM   30  C   UNK N   1      35.388  11.365  17.014  0.00  0.00     0.032 A 
ENDBRANCH  21  24
ENDBRANCH   1  20
TORSDOF 4
ENDMDL
MODEL 8
REMARK VINA RESULT:      -7.2      6.490      8.976
REMARK  4 active torsions:
REMARK  status: ('A' for Active; 'I' for Inactive)
REMARK    1  A    between atoms: C_5  and  N_6 
REMARK       I    between atoms: N_6  and  C_7 
REMARK    2  A    between atoms: C_7  and  C_9 
REMARK    3  A    between atoms: C_14  and  N_15 
REMARK       I    between atoms: N_15  and  C_16 
REMARK    4  A    between atoms: C_16  and  C_18 
ROOT
HETATM    1  C   UNK N   1      35.601  14.577  12.063  0.00  0.00     0.144 A 
HETATM    2  N   UNK N   1      36.397  15.322  12.850  0.00  0.00    -0.294 N 
ATOM      3  HN  UNK N   1      36.737  16.260  12.643  1.00  0.00     0.187 HD
HETATM    4  N   UNK N   1      36.663  14.620  13.948  0.00  0.00    -0.309 N 
HETATM    5  C   UNK N   1      36.053  13.411  13.872  0.00  0.00     0.139 A 
HETATM    6  C   UNK N   1      35.374  13.375  12.676  0.00  0.00     0.086 A 
HETATM    7  H   UNK N   1      37.218  14.930  14.700  0.00  0.00     0.186 HD
ENDROOT
BRANCH   6   8
HETATM    8  N   UNK N   1      34.628  12.326  12.077  0.00  0.00    -0.319 N 
HETATM    9  C   UNK N   1      35.067  11.301  11.316  0.00  0.00     0.262 C 
HETATM   10  O   UNK N   1      36.261  11.161  11.097  0.00  0.00    -0.267 OA
HETATM   11  H   UNK N   1      33.657  12.349  12.239  0.00  0.00     0.169 HD
BRANCH   9  12
HETATM   12  C   UNK N   1      34.060  10.345  10.747  0.00  0.00     0.109 A 
HETATM   13  C   UNK N   1      33.197  10.737   9.700  0.00  0.00     0.135 A 
HETATM   14  F   UNK N   1      33.254  11.985   9.176  0.00  0.00    -0.205 F 
HETATM   15  C   UNK N   1      32.264   9.834   9.179  0.00  0.00     0.043 A 
HETATM   16  C   UNK N   1      32.170   8.539   9.687  0.00  0.00     0.006 A 
HETATM   17  C   UNK N   1      33.008   8.136  10.720  0.00  0.00     0.043 A 
HETATM   18  C   UNK N   1      33.948   9.021  11.252  0.00  0.00     0.135 A 
HETATM   19  F   UNK N   1      34.729   8.577  12.264  0.00  0.00    -0.205 F 
ENDBRANCH   9  12
ENDBRANCH   6   8
BRANCH   1  20
HETATM   20  C   UNK N   1      35.071  14.937  10.733  0.00  0.00     0.276 C 
HETATM   21  N   UNK N   1      34.130  15.908  10.563  0.00  0.00    -0.322 N 
HETATM   22  H   UNK N   1      33.705  16.299  11.360  0.00  0.00     0.169 HD
HETATM   23  O   UNK N   1      35.511  14.342   9.763  0.00  0.00    -0.266 OA
BRANCH  21  24
HETATM   24  C   UNK N   1      33.739  16.380   9.269  0.00  0.00     0.035 A 
HETATM   25  C   UNK N   1      32.650  15.796   8.611  0.00  0.00     0.032 A 
HETATM   26  C   UNK N   1      32.267  16.256   7.343  0.00  0.00     0.044 A 
HETATM   27  C   UNK N   1      32.964  17.307   6.732  0.00  0.00     0.116 A 
HETATM   28  F   UNK N   1      32.600  17.747   5.504  0.00  0.00    -0.206 F 
HETATM   29  C   UNK N   1      34.033  17.906   7.388  0.00  0.00     0.044 A 
HETATM   30  C   UNK N   1      34.416  17.448   8.645  0.00  0.00     0.032 A 
ENDBRANCH  21  24
ENDBRANCH   1  20
TORSDOF 4
ENDMDL
MODEL 9
REMARK VINA RESULT:      -7.2      6.503      8.847
REMARK  4 active torsions:
REMARK  status: ('A' for Active; 'I' for Inactive)
REMARK    1  A    between atoms: C_5  and  N_6 
REMARK       I    between atoms: N_6  and  C_7 
REMARK    2  A    between atoms: C_7  and  C_9 
REMARK    3  A    between atoms: C_14  and  N_15 
REMARK       I    between atoms: N_15  and  C_16 
REMARK    4  A    between atoms: C_16  and  C_18 
ROOT
HETATM    1  C   UNK N   1      35.615  14.577  12.083  0.00  0.00     0.144 A 
HETATM    2  N   UNK N   1      36.410  15.320  12.874  0.00  0.00    -0.294 N 
ATOM      3  HN  UNK N   1      36.752  16.258  12.668  1.00  0.00     0.187 HD
HETATM    4  N   UNK N   1      36.672  14.617  13.972  0.00  0.00    -0.309 N 
HETATM    5  C   UNK N   1      36.060  13.410  13.893  0.00  0.00     0.139 A 
HETATM    6  C   UNK N   1      35.384  13.376  12.696  0.00  0.00     0.086 A 
HETATM    7  H   UNK N   1      37.226  14.926  14.725  0.00  0.00     0.186 HD
ENDROOT
BRANCH   6   8
HETATM    8  N   UNK N   1      34.638  12.328  12.094  0.00  0.00    -0.319 N 
HETATM    9  C   UNK N   1      35.080  11.290  11.352  0.00  0.00     0.262 C 
HETATM   10  O   UNK N   1      36.276  11.134  11.157  0.00  0.00    -0.267 OA
HETATM   11  H   UNK N   1      33.665  12.364  12.237  0.00  0.00     0.169 HD
BRANCH   9  12
HETATM   12  C   UNK N   1      34.073  10.339  10.774  0.00  0.00     0.109 A 
HETATM   13  C   UNK N   1      33.959   9.018  11.260  0.00  0.00     0.135 A 
HETATM   14  F   UNK N   1      34.751   8.571  12.264  0.00  0.00    -0.205 F 
HETATM   15  C   UNK N   1      33.014   8.144  10.712  0.00  0.00     0.043 A 
HETATM   16  C   UNK N   1      32.177   8.561   9.678  0.00  0.00     0.006 A 
HETATM   17  C   UNK N   1      32.278   9.856   9.184  0.00  0.00     0.043 A 
HETATM   18  C   UNK N   1      33.212  10.745   9.719  0.00  0.00     0.135 A 
HETATM   19  F   UNK N   1      33.272  11.989   9.190  0.00  0.00    -0.205 F 
ENDBRANCH   9  12
ENDBRANCH   6   8
BRANCH   1  20
HETATM   20  C   UNK N   1      35.090  14.939  10.753  0.00  0.00     0.276 C 
HETATM   21  N   UNK N   1      34.143  15.904  10.581  0.00  0.00    -0.322 N 
HETATM   22  H   UNK N   1      33.710  16.289  11.377  0.00  0.00     0.169 HD
HETATM   23  O   UNK N   1      35.539  14.351   9.782  0.00  0.00    -0.266 OA
BRANCH  21  24
HETATM   24  C   UNK N   1      33.755  16.378   9.287  0.00  0.00     0.035 A 
HETATM   25  C   UNK N   1      32.673  15.791   8.622  0.00  0.00     0.032 A 
HETATM   26  C   UNK N   1      32.294  16.253   7.353  0.00  0.00     0.044 A 
HETATM   27  C   UNK N   1      32.987  17.310   6.750  0.00  0.00     0.116 A 
HETATM   28  F   UNK N   1      32.627  17.752   5.522  0.00  0.00    -0.206 F 
HETATM   29  C   UNK N   1      34.050  17.914   7.414  0.00  0.00     0.044 A 
HETATM   30  C   UNK N   1      34.429  17.452   8.671  0.00  0.00     0.032 A 
ENDBRANCH  21  24
ENDBRANCH   1  20
TORSDOF 4
ENDMDL
