MODEL 1
REMARK VINA RESULT:      -6.0      0.000      0.000
REMARK  2 active torsions:
REMARK  status: ('A' for Active; 'I' for Inactive)
REMARK    1  A    between atoms: C_2  and  N_4 
REMARK    2  A    between atoms: N_4  and  C_5 
ROOT
HETATM    1  C   UNK N   1      36.010  12.765  14.343  0.00  0.00     0.128 A 
HETATM    2  C   UNK N   1      36.562  13.617  15.302  0.00  0.00     0.092 A 
HETATM    3  C   UNK N   1      36.813  14.943  14.988  0.00  0.00     0.108 A 
HETATM    4 Cl   UNK N   1      37.595  15.937  16.190  0.00  0.00    -0.064 Cl
HETATM    5  N   UNK N   1      36.496  15.423  13.753  0.00  0.00    -0.330 N 
ATOM      6  HN  UNK N   1      36.663  16.401  13.513  1.00  0.00     0.168 HD
HETATM    7  C   UNK N   1      35.949  14.568  12.850  0.00  0.00     0.152 A 
HETATM    8  C   UNK N   1      35.542  14.828  11.584  0.00  0.00     0.107 A 
HETATM    9  C   UNK N   1      35.607  16.116  10.969  0.00  0.00     0.105 C 
HETATM   10  N   UNK N   1      35.687  17.181  10.529  0.00  0.00    -0.191 NA
HETATM   11  C   UNK N   1      35.065  13.614  11.087  0.00  0.00     0.134 A 
HETATM   12  N   UNK N   1      35.196  12.681  12.071  0.00  0.00    -0.300 N 
ATOM     13  HN  UNK N   1      34.934  11.698  12.009  1.00  0.00     0.186 HD
HETATM   14  N   UNK N   1      35.728  13.283  13.125  0.00  0.00    -0.223 N 
ENDROOT
BRANCH   1  15
HETATM   15  N   UNK N   1      35.766  11.406  14.648  0.00  0.00    -0.371 N 
HETATM   16  H   UNK N   1      36.353  10.719  14.257  0.00  0.00     0.161 HD
BRANCH  15  17
HETATM   17  C   UNK N   1      34.680  10.989  15.518  0.00  0.00     0.075 C 
HETATM   18  C   UNK N   1      33.438  10.813  14.688  0.00  0.00     0.031 C 
HETATM   19  C   UNK N   1      34.937   9.673  16.241  0.00  0.00     0.031 C 
ENDBRANCH  15  17
ENDBRANCH   1  15
TORSDOF 2
ENDMDL
MODEL 2
REMARK VINA RESULT:      -5.7      8.094      9.751
REMARK  2 active torsions:
REMARK  status: ('A' for Active; 'I' for Inactive)
REMARK    1  A    between atoms: C_2  and  N_4 
REMARK    2  A    between atoms: N_4  and  C_5 
ROOT
HETATM    1  C   UNK N   1      30.402  16.769   6.544  0.00  0.00     0.128 A 
HETATM    2  C   UNK N   1      29.685  17.211   7.657  0.00  0.00     0.092 A 
HETATM    3  C   UNK N   1      30.339  17.870   8.686  0.00  0.00     0.108 A 
HETATM    4 Cl   UNK N   1      29.413  18.312  10.097  0.00  0.00    -0.064 Cl
HETATM    5  N   UNK N   1      31.678  18.110   8.600  0.00  0.00    -0.330 N 
ATOM      6  HN  UNK N   1      32.170  18.605   9.344  1.00  0.00     0.168 HD
HETATM    7  C   UNK N   1      32.340  17.676   7.495  0.00  0.00     0.152 A 
HETATM    8  C   UNK N   1      33.652  17.819   7.192  0.00  0.00     0.107 A 
HETATM    9  C   UNK N   1      34.597  18.505   8.016  0.00  0.00     0.105 C 
HETATM   10  N   UNK N   1      35.311  19.070   8.727  0.00  0.00    -0.191 NA
HETATM   11  C   UNK N   1      33.821  17.193   5.956  0.00  0.00     0.134 A 
HETATM   12  N   UNK N   1      32.609  16.707   5.566  0.00  0.00    -0.300 N 
ATOM     13  HN  UNK N   1      32.412  16.198   4.705  1.00  0.00     0.186 HD
HETATM   14  N   UNK N   1      31.733  17.016   6.511  0.00  0.00    -0.223 N 
ENDROOT
BRANCH   1  15
HETATM   15  N   UNK N   1      29.746  16.082   5.497  0.00  0.00    -0.371 N 
HETATM   16  H   UNK N   1      29.692  15.099   5.536  0.00  0.00     0.161 HD
BRANCH  15  17
HETATM   17  C   UNK N   1      29.152  16.774   4.367  0.00  0.00     0.075 C 
HETATM   18  C   UNK N   1      29.844  16.327   3.109  0.00  0.00     0.031 C 
HETATM   19  C   UNK N   1      27.663  16.504   4.191  0.00  0.00     0.031 C 
ENDBRANCH  15  17
ENDBRANCH   1  15
TORSDOF 2
ENDMDL
MODEL 3
REMARK VINA RESULT:      -5.5     10.104     12.436
REMARK  2 active torsions:
REMARK  status: ('A' for Active; 'I' for Inactive)
REMARK    1  A    between atoms: C_2  and  N_4 
REMARK    2  A    between atoms: N_4  and  C_5 
ROOT
HETATM    1  C   UNK N   1      28.760  17.790   6.389  0.00  0.00     0.128 A 
HETATM    2  C   UNK N   1      29.373  17.046   5.380  0.00  0.00     0.092 A 
HETATM    3  C   UNK N   1      29.034  17.265   4.054  0.00  0.00     0.108 A 
HETATM    4 Cl   UNK N   1      29.757  16.240   2.842  0.00  0.00    -0.064 Cl
HETATM    5  N   UNK N   1      28.121  18.225   3.733  0.00  0.00    -0.330 N 
ATOM      6  HN  UNK N   1      27.871  18.405   2.761  1.00  0.00     0.168 HD
HETATM    7  C   UNK N   1      27.553  18.937   4.742  0.00  0.00     0.152 A 
HETATM    8  C   UNK N   1      26.648  19.941   4.657  0.00  0.00     0.107 A 
HETATM    9  C   UNK N   1      26.131  20.453   3.427  0.00  0.00     0.105 C 
HETATM   10  N   UNK N   1      25.751  20.822   2.400  0.00  0.00    -0.191 NA
HETATM   11  C   UNK N   1      26.389  20.324   5.973  0.00  0.00     0.134 A 
HETATM   12  N   UNK N   1      27.151  19.545   6.792  0.00  0.00    -0.300 N 
ATOM     13  HN  UNK N   1      27.180  19.589   7.810  1.00  0.00     0.186 HD
HETATM   14  N   UNK N   1      27.847  18.720   6.023  0.00  0.00    -0.223 N 
ENDROOT
BRANCH   1  15
HETATM   15  N   UNK N   1      29.087  17.563   7.745  0.00  0.00    -0.371 N 
HETATM   16  H   UNK N   1      28.597  16.868   8.242  0.00  0.00     0.161 HD
BRANCH  15  17
HETATM   17  C   UNK N   1      30.121  18.318   8.432  0.00  0.00     0.075 C 
HETATM   18  C   UNK N   1      29.655  18.612   9.832  0.00  0.00     0.031 C 
HETATM   19  C   UNK N   1      31.454  17.589   8.537  0.00  0.00     0.031 C 
ENDBRANCH  15  17
ENDBRANCH   1  15
TORSDOF 2
ENDMDL
MODEL 4
REMARK VINA RESULT:      -5.5      8.942     11.559
REMARK  2 active torsions:
REMARK  status: ('A' for Active; 'I' for Inactive)
REMARK    1  A    between atoms: C_2  and  N_4 
REMARK    2  A    between atoms: N_4  and  C_5 
ROOT
HETATM    1  C   UNK N   1      29.407  17.828   4.870  0.00  0.00     0.128 A 
HETATM    2  C   UNK N   1      29.037  17.795   6.215  0.00  0.00     0.092 A 
HETATM    3  C   UNK N   1      29.965  17.437   7.180  0.00  0.00     0.108 A 
HETATM    4 Cl   UNK N   1      29.424  17.316   8.835  0.00  0.00    -0.064 Cl
HETATM    5  N   UNK N   1      31.247  17.144   6.820  0.00  0.00    -0.330 N 
ATOM      6  HN  UNK N   1      31.943  16.892   7.521  1.00  0.00     0.168 HD
HETATM    7  C   UNK N   1      31.573  17.199   5.501  0.00  0.00     0.152 A 
HETATM    8  C   UNK N   1      32.776  16.969   4.923  0.00  0.00     0.107 A 
HETATM    9  C   UNK N   1      33.962  16.635   5.645  0.00  0.00     0.105 C 
HETATM   10  N   UNK N   1      34.887  16.368   6.285  0.00  0.00    -0.191 NA
HETATM   11  C   UNK N   1      32.573  17.149   3.554  0.00  0.00     0.134 A 
HETATM   12  N   UNK N   1      31.266  17.485   3.367  0.00  0.00    -0.300 N 
ATOM     13  HN  UNK N   1      30.815  17.680   2.473  1.00  0.00     0.186 HD
HETATM   14  N   UNK N   1      30.686  17.512   4.558  0.00  0.00    -0.223 N 
ENDROOT
BRANCH   1  15
HETATM   15  N   UNK N   1      28.463  18.175   3.876  0.00  0.00    -0.371 N 
HETATM   16  H   UNK N   1      28.720  18.094   2.929  0.00  0.00     0.161 HD
BRANCH  15  17
HETATM   17  C   UNK N   1      27.129  18.646   4.204  0.00  0.00     0.075 C 
HETATM   18  C   UNK N   1      26.978  20.056   3.704  0.00  0.00     0.031 C 
HETATM   19  C   UNK N   1      26.010  17.819   3.584  0.00  0.00     0.031 C 
ENDBRANCH  15  17
ENDBRANCH   1  15
TORSDOF 2
ENDMDL
MODEL 5
REMARK VINA RESULT:      -5.4      2.620      5.416
REMARK  2 active torsions:
REMARK  status: ('A' for Active; 'I' for Inactive)
REMARK    1  A    between atoms: C_2  and  N_4 
REMARK    2  A    between atoms: N_4  and  C_5 
ROOT
HETATM    1  C   UNK N   1      36.304  13.483  12.537  0.00  0.00     0.128 A 
HETATM    2  C   UNK N   1      35.439  12.430  12.232  0.00  0.00     0.092 A 
HETATM    3  C   UNK N   1      34.761  11.774  13.247  0.00  0.00     0.108 A 
HETATM    4 Cl   UNK N   1      33.771  10.403  12.820  0.00  0.00    -0.064 Cl
HETATM    5  N   UNK N   1      34.918  12.173  14.541  0.00  0.00    -0.330 N 
ATOM      6  HN  UNK N   1      34.415  11.707  15.297  1.00  0.00     0.168 HD
HETATM    7  C   UNK N   1      35.759  13.209  14.798  0.00  0.00     0.152 A 
HETATM    8  C   UNK N   1      36.049  13.780  15.992  0.00  0.00     0.107 A 
HETATM    9  C   UNK N   1      35.472  13.378  17.235  0.00  0.00     0.105 C 
HETATM   10  N   UNK N   1      34.971  13.005  18.208  0.00  0.00    -0.191 NA
HETATM   11  C   UNK N   1      36.967  14.793  15.709  0.00  0.00     0.134 A 
HETATM   12  N   UNK N   1      37.185  14.794  14.364  0.00  0.00    -0.300 N 
ATOM     13  HN  UNK N   1      37.807  15.420  13.854  1.00  0.00     0.186 HD
HETATM   14  N   UNK N   1      36.440  13.832  13.838  0.00  0.00    -0.223 N 
ENDROOT
BRANCH   1  15
HETATM   15  N   UNK N   1      37.013  14.147  11.510  0.00  0.00    -0.371 N 
HETATM   16  H   UNK N   1      37.934  13.864  11.310  0.00  0.00     0.161 HD
BRANCH  15  17
HETATM   17  C   UNK N   1      36.429  15.232  10.741  0.00  0.00     0.075 C 
HETATM   18  C   UNK N   1      36.001  14.700   9.402  0.00  0.00     0.031 C 
HETATM   19  C   UNK N   1      35.207  15.865  11.394  0.00  0.00     0.031 C 
ENDBRANCH  15  17
ENDBRANCH   1  15
TORSDOF 2
ENDMDL
MODEL 6
REMARK VINA RESULT:      -5.3     10.339     11.801
REMARK  2 active torsions:
REMARK  status: ('A' for Active; 'I' for Inactive)
REMARK    1  A    between atoms: C_2  and  N_4 
REMARK    2  A    between atoms: N_4  and  C_5 
ROOT
HETATM    1  C   UNK N   1      29.236  17.633   5.957  0.00  0.00     0.128 A 
HETATM    2  C   UNK N   1      29.306  17.124   7.255  0.00  0.00     0.092 A 
HETATM    3  C   UNK N   1      28.655  17.775   8.290  0.00  0.00     0.108 A 
HETATM    4 Cl   UNK N   1      28.857  17.152   9.908  0.00  0.00    -0.064 Cl
HETATM    5  N   UNK N   1      27.923  18.897   8.038  0.00  0.00    -0.330 N 
ATOM      6  HN  UNK N   1      27.428  19.378   8.789  1.00  0.00     0.168 HD
HETATM    7  C   UNK N   1      27.868  19.356   6.760  0.00  0.00     0.152 A 
HETATM    8  C   UNK N   1      27.195  20.429   6.281  0.00  0.00     0.107 A 
HETATM    9  C   UNK N   1      26.373  21.283   7.079  0.00  0.00     0.105 C 
HETATM   10  N   UNK N   1      25.725  21.936   7.778  0.00  0.00    -0.191 NA
HETATM   11  C   UNK N   1      27.473  20.466   4.914  0.00  0.00     0.134 A 
HETATM   12  N   UNK N   1      28.293  19.415   4.628  0.00  0.00    -0.300 N 
ATOM     13  HN  UNK N   1      28.670  19.177   3.711  1.00  0.00     0.186 HD
HETATM   14  N   UNK N   1      28.512  18.760   5.758  0.00  0.00    -0.223 N 
ENDROOT
BRANCH   1  15
HETATM   15  N   UNK N   1      29.911  16.986   4.897  0.00  0.00    -0.371 N 
HETATM   16  H   UNK N   1      29.395  16.704   4.107  0.00  0.00     0.161 HD
BRANCH  15  17
HETATM   17  C   UNK N   1      31.339  16.722   4.933  0.00  0.00     0.075 C 
HETATM   18  C   UNK N   1      31.584  15.323   4.439  0.00  0.00     0.031 C 
HETATM   19  C   UNK N   1      32.165  17.664   4.066  0.00  0.00     0.031 C 
ENDBRANCH  15  17
ENDBRANCH   1  15
TORSDOF 2
ENDMDL
MODEL 7
REMARK VINA RESULT:      -5.3     15.296     17.050
REMARK  2 active torsions:
REMARK  status: ('A' for Active; 'I' for Inactive)
REMARK    1  A    between atoms: C_2  and  N_4 
REMARK    2  A    between atoms: N_4  and  C_5 
ROOT
HETATM    1  C   UNK N   1      23.367  18.305   4.851  0.00  0.00     0.128 A 
HETATM    2  C   UNK N   1      24.581  18.937   4.577  0.00  0.00     0.092 A 
HETATM    3  C   UNK N   1      24.650  19.911   3.594  0.00  0.00     0.108 A 
HETATM    4 Cl   UNK N   1      26.211  20.598   3.226  0.00  0.00    -0.064 Cl
HETATM    5  N   UNK N   1      23.526  20.272   2.912  0.00  0.00    -0.330 N 
ATOM      6  HN  UNK N   1      23.559  20.996   2.194  1.00  0.00     0.168 HD
HETATM    7  C   UNK N   1      22.360  19.642   3.213  0.00  0.00     0.152 A 
HETATM    8  C   UNK N   1      21.131  19.850   2.683  0.00  0.00     0.107 A 
HETATM    9  C   UNK N   1      20.844  20.829   1.683  0.00  0.00     0.105 C 
HETATM   10  N   UNK N   1      20.676  21.638   0.875  0.00  0.00    -0.191 NA
HETATM   11  C   UNK N   1      20.286  18.946   3.329  0.00  0.00     0.134 A 
HETATM   12  N   UNK N   1      21.037  18.241   4.222  0.00  0.00    -0.300 N 
ATOM     13  HN  UNK N   1      20.701  17.506   4.844  1.00  0.00     0.186 HD
HETATM   14  N   UNK N   1      22.282  18.684   4.135  0.00  0.00    -0.223 N 
ENDROOT
BRANCH   1  15
HETATM   15  N   UNK N   1      23.292  17.298   5.840  0.00  0.00    -0.371 N 
HETATM   16  H   UNK N   1      23.075  17.557   6.765  0.00  0.00     0.161 HD
BRANCH  15  17
HETATM   17  C   UNK N   1      23.523  15.896   5.539  0.00  0.00     0.075 C 
HETATM   18  C   UNK N   1      24.592  15.374   6.460  0.00  0.00     0.031 C 
HETATM   19  C   UNK N   1      22.294  15.013   5.719  0.00  0.00     0.031 C 
ENDBRANCH  15  17
ENDBRANCH   1  15
TORSDOF 2
ENDMDL
MODEL 8
REMARK VINA RESULT:      -5.3      1.482      5.117
REMARK  2 active torsions:
REMARK  status: ('A' for Active; 'I' for Inactive)
REMARK    1  A    between atoms: C_2  and  N_4 
REMARK    2  A    between atoms: N_4  and  C_5 
ROOT
HETATM    1  C   UNK N   1      35.514  13.701  12.941  0.00  0.00     0.128 A 
HETATM    2  C   UNK N   1      36.302  14.491  13.780  0.00  0.00     0.092 A 
HETATM    3  C   UNK N   1      36.511  14.110  15.095  0.00  0.00     0.108 A 
HETATM    4 Cl   UNK N   1      37.420  15.184  16.127  0.00  0.00    -0.064 Cl
HETATM    5  N   UNK N   1      35.971  12.949  15.563  0.00  0.00    -0.330 N 
ATOM      6  HN  UNK N   1      36.127  12.650  16.526  1.00  0.00     0.168 HD
HETATM    7  C   UNK N   1      35.220  12.200  14.714  0.00  0.00     0.152 A 
HETATM    8  C   UNK N   1      34.609  11.015  14.954  0.00  0.00     0.107 A 
HETATM    9  C   UNK N   1      34.676  10.315  16.198  0.00  0.00     0.105 C 
HETATM   10  N   UNK N   1      34.768   9.799  17.228  0.00  0.00    -0.191 NA
HETATM   11  C   UNK N   1      33.967  10.676  13.762  0.00  0.00     0.134 A 
HETATM   12  N   UNK N   1      34.224  11.662  12.856  0.00  0.00    -0.300 N 
ATOM     13  HN  UNK N   1      33.890  11.697  11.893  1.00  0.00     0.186 HD
HETATM   14  N   UNK N   1      34.985  12.566  13.455  0.00  0.00    -0.223 N 
ENDROOT
BRANCH   1  15
HETATM   15  N   UNK N   1      35.281  14.091  11.602  0.00  0.00    -0.371 N 
HETATM   16  H   UNK N   1      34.572  13.636  11.092  0.00  0.00     0.161 HD
BRANCH  15  17
HETATM   17  C   UNK N   1      36.052  15.137  10.953  0.00  0.00     0.075 C 
HETATM   18  C   UNK N   1      36.452  14.662   9.583  0.00  0.00     0.031 C 
HETATM   19  C   UNK N   1      35.294  16.447  10.780  0.00  0.00     0.031 C 
ENDBRANCH  15  17
ENDBRANCH   1  15
TORSDOF 2
ENDMDL
MODEL 9
REMARK VINA RESULT:      -5.2      6.562      8.961
REMARK  2 active torsions:
REMARK  status: ('A' for Active; 'I' for Inactive)
REMARK    1  A    between atoms: C_2  and  N_4 
REMARK    2  A    between atoms: N_4  and  C_5 
ROOT
HETATM    1  C   UNK N   1      33.301  17.375   7.488  0.00  0.00     0.128 A 
HETATM    2  C   UNK N   1      33.597  17.351   6.124  0.00  0.00     0.092 A 
HETATM    3  C   UNK N   1      32.573  17.288   5.193  0.00  0.00     0.108 A 
HETATM    4 Cl   UNK N   1      33.002  17.160   3.507  0.00  0.00    -0.064 Cl
HETATM    5  N   UNK N   1      31.274  17.277   5.608  0.00  0.00    -0.330 N 
ATOM      6  HN  UNK N   1      30.510  17.243   4.933  1.00  0.00     0.168 HD
HETATM    7  C   UNK N   1      31.024  17.313   6.943  0.00  0.00     0.152 A 
HETATM    8  C   UNK N   1      29.826  17.330   7.574  0.00  0.00     0.107 A 
HETATM    9  C   UNK N   1      28.565  17.332   6.901  0.00  0.00     0.105 C 
HETATM   10  N   UNK N   1      27.578  17.333   6.299  0.00  0.00    -0.191 NA
HETATM   11  C   UNK N   1      30.121  17.361   8.938  0.00  0.00     0.134 A 
HETATM   12  N   UNK N   1      31.477  17.370   9.070  0.00  0.00    -0.300 N 
ATOM     13  HN  UNK N   1      31.997  17.391   9.947  1.00  0.00     0.186 HD
HETATM   14  N   UNK N   1      31.997  17.345   7.852  0.00  0.00    -0.223 N 
ENDROOT
BRANCH   1  15
HETATM   15  N   UNK N   1      34.340  17.422   8.445  0.00  0.00    -0.371 N 
HETATM   16  H   UNK N   1      34.944  18.200   8.453  0.00  0.00     0.161 HD
BRANCH  15  17
HETATM   17  C   UNK N   1      34.549  16.363   9.417  0.00  0.00     0.075 C 
HETATM   18  C   UNK N   1      35.248  15.217   8.738  0.00  0.00     0.031 C 
HETATM   19  C   UNK N   1      35.401  16.776  10.610  0.00  0.00     0.031 C 
ENDBRANCH  15  17
ENDBRANCH   1  15
TORSDOF 2
ENDMDL
