MODEL 1
REMARK VINA RESULT:      -6.7      0.000      0.000
REMARK  5 active torsions:
REMARK  status: ('A' for Active; 'I' for Inactive)
REMARK    1  A    between atoms: C_2  and  N_4 
REMARK    2  A    between atoms: N_4  and  C_5 
REMARK    3  A    between atoms: C_7  and  N_8 
REMARK    4  A    between atoms: C_9  and  N_8 
REMARK    5  A    between atoms: C_12  and  N_13 
ROOT
HETATM    1  C   UNK N   1      26.217  24.257  -6.201  0.00  0.00     0.129 A 
HETATM    2  C   UNK N   1      27.308  23.625  -5.593  0.00  0.00     0.098 A 
HETATM    3  C   UNK N   1      28.067  24.326  -4.637  0.00  0.00     0.106 A 
HETATM    4  N   UNK N   1      27.718  25.595  -4.293  0.00  0.00    -0.326 N 
ATOM      5  HN  UNK N   1      28.274  26.120  -3.619  1.00  0.00     0.169 HD
HETATM    6  C   UNK N   1      26.626  26.144  -4.859  0.00  0.00     0.153 A 
HETATM    7  C   UNK N   1      26.015  27.310  -4.528  0.00  0.00     0.107 A 
HETATM    8  C   UNK N   1      26.462  28.213  -3.506  0.00  0.00     0.105 C 
HETATM    9  N   UNK N   1      26.865  28.906  -2.672  0.00  0.00    -0.191 NA
HETATM   10  C   UNK N   1      24.868  27.357  -5.315  0.00  0.00     0.134 A 
HETATM   11  N   UNK N   1      24.835  26.230  -6.072  0.00  0.00    -0.300 N 
ATOM     12  HN  UNK N   1      24.116  25.986  -6.754  1.00  0.00     0.186 HD
HETATM   13  N   UNK N   1      25.898  25.504  -5.771  0.00  0.00    -0.223 N 
ENDROOT
BRANCH   3  14
HETATM   14  N   UNK N   1      28.773  23.564  -3.695  0.00  0.00    -0.371 N 
HETATM   15  H   UNK N   1      28.300  22.985  -3.055  0.00  0.00     0.161 HD
BRANCH  14  16
HETATM   16  C   UNK N   1      30.229  23.654  -3.691  0.00  0.00     0.083 C 
HETATM   17  C   UNK N   1      30.760  22.868  -2.485  0.00  0.00     0.027 C 
HETATM   18  C   UNK N   1      31.667  21.686  -2.862  0.00  0.00     0.026 C 
HETATM   19  C   UNK N   1      30.996  20.836  -3.934  0.00  0.00     0.074 C 
HETATM   20  C   UNK N   1      30.797  21.642  -5.223  0.00  0.00     0.026 C 
HETATM   21  C   UNK N   1      30.877  23.167  -5.017  0.00  0.00     0.027 C 
BRANCH  19  22
HETATM   22  N   UNK N   1      31.818  19.676  -4.227  0.00  0.00    -0.426 N 
HETATM   23  H   UNK N   1      32.811  19.614  -3.999  0.00  0.00     0.150 HD
HETATM   24  H   UNK N   1      31.379  18.879  -4.687  0.00  0.00     0.150 HD
ENDBRANCH  19  22
ENDBRANCH  14  16
ENDBRANCH   3  14
BRANCH   1  25
HETATM   25  N   UNK N   1      25.423  23.530  -7.134  0.00  0.00    -0.371 N 
HETATM   26  H   UNK N   1      24.774  24.045  -7.665  0.00  0.00     0.161 HD
BRANCH  25  27
HETATM   27  C   UNK N   1      25.485  22.101  -7.372  0.00  0.00     0.075 C 
HETATM   28  C   UNK N   1      25.734  21.802  -8.836  0.00  0.00     0.031 C 
HETATM   29  C   UNK N   1      24.362  21.265  -6.771  0.00  0.00     0.031 C 
ENDBRANCH  25  27
ENDBRANCH   1  25
TORSDOF 5
ENDMDL
MODEL 2
REMARK VINA RESULT:      -6.6     16.323     21.087
REMARK  5 active torsions:
REMARK  status: ('A' for Active; 'I' for Inactive)
REMARK    1  A    between atoms: C_2  and  N_4 
REMARK    2  A    between atoms: N_4  and  C_5 
REMARK    3  A    between atoms: C_7  and  N_8 
REMARK    4  A    between atoms: C_9  and  N_8 
REMARK    5  A    between atoms: C_12  and  N_13 
ROOT
HETATM    1  C   UNK N   1      36.040  14.296  12.769  0.00  0.00     0.129 A 
HETATM    2  C   UNK N   1      35.409  15.444  12.274  0.00  0.00     0.098 A 
HETATM    3  C   UNK N   1      35.805  15.967  11.029  0.00  0.00     0.106 A 
HETATM    4  N   UNK N   1      36.772  15.339  10.307  0.00  0.00    -0.326 N 
ATOM      5  HN  UNK N   1      37.083  15.721   9.414  1.00  0.00     0.169 HD
HETATM    6  C   UNK N   1      37.310  14.204  10.793  0.00  0.00     0.153 A 
HETATM    7  C   UNK N   1      38.147  13.343  10.159  0.00  0.00     0.107 A 
HETATM    8  C   UNK N   1      38.650  13.514   8.826  0.00  0.00     0.105 C 
HETATM    9  N   UNK N   1      39.028  13.701   7.748  0.00  0.00    -0.191 NA
HETATM   10  C   UNK N   1      38.304  12.274  11.037  0.00  0.00     0.134 A 
HETATM   11  N   UNK N   1      37.562  12.532  12.145  0.00  0.00    -0.300 N 
ATOM     12  HN  UNK N   1      37.484  11.933  12.967  1.00  0.00     0.186 HD
HETATM   13  N   UNK N   1      36.959  13.695  11.971  0.00  0.00    -0.223 N 
ENDROOT
BRANCH   3  14
HETATM   14  N   UNK N   1      34.866  16.740  10.330  0.00  0.00    -0.371 N 
HETATM   15  H   UNK N   1      34.347  17.441  10.786  0.00  0.00     0.161 HD
BRANCH  14  16
HETATM   16  C   UNK N   1      34.683  16.477   8.907  0.00  0.00     0.083 C 
HETATM   17  C   UNK N   1      33.608  15.393   8.750  0.00  0.00     0.027 C 
HETATM   18  C   UNK N   1      32.366  15.855   7.973  0.00  0.00     0.026 C 
HETATM   19  C   UNK N   1      31.862  17.178   8.536  0.00  0.00     0.074 C 
HETATM   20  C   UNK N   1      32.909  18.283   8.351  0.00  0.00     0.026 C 
HETATM   21  C   UNK N   1      34.331  17.750   8.088  0.00  0.00     0.027 C 
BRANCH  19  22
HETATM   22  N   UNK N   1      30.642  17.570   7.853  0.00  0.00    -0.426 N 
HETATM   23  H   UNK N   1      29.734  17.639   8.313  0.00  0.00     0.150 HD
HETATM   24  H   UNK N   1      30.696  17.787   6.858  0.00  0.00     0.150 HD
ENDBRANCH  19  22
ENDBRANCH  14  16
ENDBRANCH   3  14
BRANCH   1  25
HETATM   25  N   UNK N   1      35.606  13.743  14.007  0.00  0.00    -0.371 N 
HETATM   26  H   UNK N   1      34.694  13.376  14.038  0.00  0.00     0.161 HD
BRANCH  25  27
HETATM   27  C   UNK N   1      36.387  13.672  15.227  0.00  0.00     0.075 C 
HETATM   28  C   UNK N   1      35.567  13.108  16.369  0.00  0.00     0.031 C 
HETATM   29  C   UNK N   1      37.164  14.926  15.608  0.00  0.00     0.031 C 
ENDBRANCH  25  27
ENDBRANCH   1  25
TORSDOF 5
ENDMDL
MODEL 3
REMARK VINA RESULT:      -6.3     10.735     13.026
REMARK  5 active torsions:
REMARK  status: ('A' for Active; 'I' for Inactive)
REMARK    1  A    between atoms: C_2  and  N_4 
REMARK    2  A    between atoms: N_4  and  C_5 
REMARK    3  A    between atoms: C_7  and  N_8 
REMARK    4  A    between atoms: C_9  and  N_8 
REMARK    5  A    between atoms: C_12  and  N_13 
ROOT
HETATM    1  C   UNK N   1      27.282  18.038   5.190  0.00  0.00     0.129 A 
HETATM    2  C   UNK N   1      28.609  18.141   5.624  0.00  0.00     0.098 A 
HETATM    3  C   UNK N   1      29.569  17.237   5.129  0.00  0.00     0.106 A 
HETATM    4  N   UNK N   1      29.206  16.296   4.217  0.00  0.00    -0.326 N 
ATOM      5  HN  UNK N   1      29.887  15.623   3.868  1.00  0.00     0.169 HD
HETATM    6  C   UNK N   1      27.931  16.271   3.781  0.00  0.00     0.153 A 
HETATM    7  C   UNK N   1      27.415  15.540   2.761  0.00  0.00     0.107 A 
HETATM    8  C   UNK N   1      28.155  14.606   1.961  0.00  0.00     0.105 C 
HETATM    9  N   UNK N   1      28.796  13.864   1.347  0.00  0.00    -0.191 NA
HETATM   10  C   UNK N   1      26.097  15.969   2.634  0.00  0.00     0.134 A 
HETATM   11  N   UNK N   1      25.881  16.932   3.569  0.00  0.00    -0.300 N 
ATOM     12  HN  UNK N   1      25.004  17.430   3.724  1.00  0.00     0.186 HD
HETATM   13  N   UNK N   1      27.005  17.108   4.241  0.00  0.00    -0.223 N 
ENDROOT
BRANCH   3  14
HETATM   14  N   UNK N   1      30.908  17.654   5.141  0.00  0.00    -0.371 N 
HETATM   15  H   UNK N   1      31.148  18.592   4.963  0.00  0.00     0.161 HD
BRANCH  14  16
HETATM   16  C   UNK N   1      31.935  16.658   5.427  0.00  0.00     0.083 C 
HETATM   17  C   UNK N   1      33.296  17.364   5.471  0.00  0.00     0.027 C 
HETATM   18  C   UNK N   1      34.005  17.268   6.831  0.00  0.00     0.026 C 
HETATM   19  C   UNK N   1      33.045  17.661   7.947  0.00  0.00     0.074 C 
HETATM   20  C   UNK N   1      31.863  16.686   8.018  0.00  0.00     0.026 C 
HETATM   21  C   UNK N   1      31.666  15.859   6.733  0.00  0.00     0.027 C 
BRANCH  19  22
HETATM   22  N   UNK N   1      33.741  17.648   9.221  0.00  0.00    -0.426 N 
HETATM   23  H   UNK N   1      34.504  18.285   9.455  0.00  0.00     0.150 HD
HETATM   24  H   UNK N   1      33.453  16.965   9.920  0.00  0.00     0.150 HD
ENDBRANCH  19  22
ENDBRANCH  14  16
ENDBRANCH   3  14
BRANCH   1  25
HETATM   25  N   UNK N   1      26.323  18.981   5.657  0.00  0.00    -0.371 N 
HETATM   26  H   UNK N   1      25.679  18.667   6.332  0.00  0.00     0.161 HD
BRANCH  25  27
HETATM   27  C   UNK N   1      26.209  20.362   5.229  0.00  0.00     0.075 C 
HETATM   28  C   UNK N   1      26.477  20.498   3.745  0.00  0.00     0.031 C 
HETATM   29  C   UNK N   1      26.948  21.395   6.070  0.00  0.00     0.031 C 
ENDBRANCH  25  27
ENDBRANCH   1  25
TORSDOF 5
ENDMDL
MODEL 4
REMARK VINA RESULT:      -6.3      1.847      5.879
REMARK  5 active torsions:
REMARK  status: ('A' for Active; 'I' for Inactive)
REMARK    1  A    between atoms: C_2  and  N_4 
REMARK    2  A    between atoms: N_4  and  C_5 
REMARK    3  A    between atoms: C_7  and  N_8 
REMARK    4  A    between atoms: C_9  and  N_8 
REMARK    5  A    between atoms: C_12  and  N_13 
ROOT
HETATM    1  C   UNK N   1      27.156  24.222  -6.180  0.00  0.00     0.129 A 
HETATM    2  C   UNK N   1      26.504  25.225  -5.454  0.00  0.00     0.098 A 
HETATM    3  C   UNK N   1      26.801  25.392  -4.088  0.00  0.00     0.106 A 
HETATM    4  N   UNK N   1      27.735  24.600  -3.496  0.00  0.00    -0.326 N 
ATOM      5  HN  UNK N   1      27.943  24.697  -2.502  1.00  0.00     0.169 HD
HETATM    6  C   UNK N   1      28.382  23.687  -4.246  0.00  0.00     0.153 A 
HETATM    7  C   UNK N   1      29.454  22.932  -3.897  0.00  0.00     0.107 A 
HETATM    8  C   UNK N   1      30.089  22.948  -2.609  0.00  0.00     0.105 C 
HETATM    9  N   UNK N   1      30.562  23.000  -1.555  0.00  0.00    -0.191 NA
HETATM   10  C   UNK N   1      29.817  22.253  -5.057  0.00  0.00     0.134 A 
HETATM   11  N   UNK N   1      28.961  22.628  -6.043  0.00  0.00    -0.300 N 
ATOM     12  HN  UNK N   1      28.972  22.292  -7.006  1.00  0.00     0.186 HD
HETATM   13  N   UNK N   1      28.111  23.504  -5.536  0.00  0.00    -0.223 N 
ENDROOT
BRANCH   3  14
HETATM   14  N   UNK N   1      26.572  26.659  -3.532  0.00  0.00    -0.371 N 
HETATM   15  H   UNK N   1      26.228  26.755  -2.615  0.00  0.00     0.161 HD
BRANCH  14  16
HETATM   16  C   UNK N   1      26.860  27.831  -4.352  0.00  0.00     0.083 C 
HETATM   17  C   UNK N   1      25.935  28.972  -3.910  0.00  0.00     0.027 C 
HETATM   18  C   UNK N   1      26.678  30.203  -3.368  0.00  0.00     0.026 C 
HETATM   19  C   UNK N   1      27.707  29.775  -2.329  0.00  0.00     0.074 C 
HETATM   20  C   UNK N   1      28.780  28.879  -2.961  0.00  0.00     0.026 C 
HETATM   21  C   UNK N   1      28.354  28.260  -4.306  0.00  0.00     0.027 C 
BRANCH  19  22
HETATM   22  N   UNK N   1      28.348  30.947  -1.762  0.00  0.00    -0.426 N 
HETATM   23  H   UNK N   1      28.504  31.813  -2.278  0.00  0.00     0.150 HD
HETATM   24  H   UNK N   1      28.661  30.902  -0.792  0.00  0.00     0.150 HD
ENDBRANCH  19  22
ENDBRANCH  14  16
ENDBRANCH   3  14
BRANCH   1  25
HETATM   25  N   UNK N   1      26.887  24.084  -7.572  0.00  0.00    -0.371 N 
HETATM   26  H   UNK N   1      27.660  24.098  -8.180  0.00  0.00     0.161 HD
BRANCH  25  27
HETATM   27  C   UNK N   1      25.577  23.926  -8.174  0.00  0.00     0.075 C 
HETATM   28  C   UNK N   1      25.121  22.483  -8.115  0.00  0.00     0.031 C 
HETATM   29  C   UNK N   1      25.379  24.563  -9.543  0.00  0.00     0.031 C 
ENDBRANCH  25  27
ENDBRANCH   1  25
TORSDOF 5
ENDMDL
MODEL 5
REMARK VINA RESULT:      -6.3     12.857     16.707
REMARK  5 active torsions:
REMARK  status: ('A' for Active; 'I' for Inactive)
REMARK    1  A    between atoms: C_2  and  N_4 
REMARK    2  A    between atoms: N_4  and  C_5 
REMARK    3  A    between atoms: C_7  and  N_8 
REMARK    4  A    between atoms: C_9  and  N_8 
REMARK    5  A    between atoms: C_12  and  N_13 
ROOT
HETATM    1  C   UNK N   1      34.588  16.139   8.358  0.00  0.00     0.129 A 
HETATM    2  C   UNK N   1      33.746  17.145   8.849  0.00  0.00     0.098 A 
HETATM    3  C   UNK N   1      32.973  17.899   7.946  0.00  0.00     0.106 A 
HETATM    4  N   UNK N   1      33.027  17.626   6.615  0.00  0.00    -0.326 N 
ATOM      5  HN  UNK N   1      32.489  18.179   5.950  1.00  0.00     0.169 HD
HETATM    6  C   UNK N   1      33.805  16.610   6.192  0.00  0.00     0.153 A 
HETATM    7  C   UNK N   1      33.863  16.070   4.948  0.00  0.00     0.107 A 
HETATM    8  C   UNK N   1      33.105  16.524   3.816  0.00  0.00     0.105 C 
HETATM    9  N   UNK N   1      32.473  16.929   2.937  0.00  0.00    -0.191 NA
HETATM   10  C   UNK N   1      34.715  14.975   5.065  0.00  0.00     0.134 A 
HETATM   11  N   UNK N   1      35.124  14.902   6.359  0.00  0.00    -0.300 N 
ATOM     12  HN  UNK N   1      35.761  14.206   6.747  1.00  0.00     0.186 HD
HETATM   13  N   UNK N   1      34.552  15.890   7.024  0.00  0.00    -0.223 N 
ENDROOT
BRANCH   3  14
HETATM   14  N   UNK N   1      31.804  18.493   8.444  0.00  0.00    -0.371 N 
HETATM   15  H   UNK N   1      31.727  19.470   8.525  0.00  0.00     0.161 HD
BRANCH  14  16
HETATM   16  C   UNK N   1      30.704  17.618   8.839  0.00  0.00     0.083 C 
HETATM   17  C   UNK N   1      29.659  18.460   9.583  0.00  0.00     0.027 C 
HETATM   18  C   UNK N   1      28.284  18.493   8.898  0.00  0.00     0.026 C 
HETATM   19  C   UNK N   1      28.445  18.833   7.422  0.00  0.00     0.074 C 
HETATM   20  C   UNK N   1      29.250  17.748   6.697  0.00  0.00     0.026 C 
HETATM   21  C   UNK N   1      30.071  16.852   7.644  0.00  0.00     0.027 C 
BRANCH  19  22
HETATM   22  N   UNK N   1      27.139  18.945   6.798  0.00  0.00    -0.426 N 
HETATM   23  H   UNK N   1      26.449  19.651   7.053  0.00  0.00     0.150 HD
HETATM   24  H   UNK N   1      26.898  18.278   6.064  0.00  0.00     0.150 HD
ENDBRANCH  19  22
ENDBRANCH  14  16
ENDBRANCH   3  14
BRANCH   1  25
HETATM   25  N   UNK N   1      35.335  15.348   9.277  0.00  0.00    -0.371 N 
HETATM   26  H   UNK N   1      36.200  14.997   8.964  0.00  0.00     0.161 HD
BRANCH  25  27
HETATM   27  C   UNK N   1      34.938  15.013  10.630  0.00  0.00     0.075 C 
HETATM   28  C   UNK N   1      35.672  15.867  11.642  0.00  0.00     0.031 C 
HETATM   29  C   UNK N   1      34.931  13.531  10.987  0.00  0.00     0.031 C 
ENDBRANCH  25  27
ENDBRANCH   1  25
TORSDOF 5
ENDMDL
MODEL 6
REMARK VINA RESULT:      -6.2      1.850      6.127
REMARK  5 active torsions:
REMARK  status: ('A' for Active; 'I' for Inactive)
REMARK    1  A    between atoms: C_2  and  N_4 
REMARK    2  A    between atoms: N_4  and  C_5 
REMARK    3  A    between atoms: C_7  and  N_8 
REMARK    4  A    between atoms: C_9  and  N_8 
REMARK    5  A    between atoms: C_12  and  N_13 
ROOT
HETATM    1  C   UNK N   1      28.168  22.676  -7.202  0.00  0.00     0.129 A 
HETATM    2  C   UNK N   1      27.678  23.938  -6.844  0.00  0.00     0.098 A 
HETATM    3  C   UNK N   1      27.986  24.464  -5.575  0.00  0.00     0.106 A 
HETATM    4  N   UNK N   1      28.777  23.758  -4.723  0.00  0.00    -0.326 N 
ATOM      5  HN  UNK N   1      28.989  24.119  -3.794  1.00  0.00     0.169 HD
HETATM    6  C   UNK N   1      29.277  22.575  -5.131  0.00  0.00     0.153 A 
HETATM    7  C   UNK N   1      30.212  21.811  -4.513  0.00  0.00     0.107 A 
HETATM    8  C   UNK N   1      30.831  22.121  -3.255  0.00  0.00     0.105 C 
HETATM    9  N   UNK N   1      31.298  22.418  -2.239  0.00  0.00    -0.191 NA
HETATM   10  C   UNK N   1      30.472  20.767  -5.396  0.00  0.00     0.134 A 
HETATM   11  N   UNK N   1      29.696  20.949  -6.496  0.00  0.00    -0.300 N 
ATOM     12  HN  UNK N   1      29.662  20.339  -7.313  1.00  0.00     0.186 HD
HETATM   13  N   UNK N   1      28.992  22.053  -6.321  0.00  0.00    -0.223 N 
ENDROOT
BRANCH   3  14
HETATM   14  N   UNK N   1      27.957  25.860  -5.435  0.00  0.00    -0.371 N 
HETATM   15  H   UNK N   1      28.670  26.335  -4.952  0.00  0.00     0.161 HD
BRANCH  14  16
HETATM   16  C   UNK N   1      26.838  26.585  -6.028  0.00  0.00     0.083 C 
HETATM   17  C   UNK N   1      25.685  26.608  -5.016  0.00  0.00     0.027 C 
HETATM   18  C   UNK N   1      25.278  28.019  -4.566  0.00  0.00     0.026 C 
HETATM   19  C   UNK N   1      26.512  28.808  -4.146  0.00  0.00     0.074 C 
HETATM   20  C   UNK N   1      27.465  29.002  -5.332  0.00  0.00     0.026 C 
HETATM   21  C   UNK N   1      27.215  28.020  -6.492  0.00  0.00     0.027 C 
BRANCH  19  22
HETATM   22  N   UNK N   1      26.115  30.111  -3.644  0.00  0.00    -0.426 N 
HETATM   23  H   UNK N   1      26.656  30.963  -3.792  0.00  0.00     0.150 HD
HETATM   24  H   UNK N   1      25.247  30.178  -3.113  0.00  0.00     0.150 HD
ENDBRANCH  19  22
ENDBRANCH  14  16
ENDBRANCH   3  14
BRANCH   1  25
HETATM   25  N   UNK N   1      27.893  22.166  -8.502  0.00  0.00    -0.371 N 
HETATM   26  H   UNK N   1      28.478  22.467  -9.234  0.00  0.00     0.161 HD
BRANCH  25  27
HETATM   27  C   UNK N   1      26.828  21.243  -8.846  0.00  0.00     0.075 C 
HETATM   28  C   UNK N   1      26.425  21.392 -10.299  0.00  0.00     0.031 C 
HETATM   29  C   UNK N   1      25.639  21.195  -7.895  0.00  0.00     0.031 C 
ENDBRANCH  25  27
ENDBRANCH   1  25
TORSDOF 5
ENDMDL
MODEL 7
REMARK VINA RESULT:      -6.1      1.373      4.328
REMARK  5 active torsions:
REMARK  status: ('A' for Active; 'I' for Inactive)
REMARK    1  A    between atoms: C_2  and  N_4 
REMARK    2  A    between atoms: N_4  and  C_5 
REMARK    3  A    between atoms: C_7  and  N_8 
REMARK    4  A    between atoms: C_9  and  N_8 
REMARK    5  A    between atoms: C_12  and  N_13 
ROOT
HETATM    1  C   UNK N   1      27.410  26.501  -5.298  0.00  0.00     0.129 A 
HETATM    2  C   UNK N   1      27.896  25.775  -4.204  0.00  0.00     0.098 A 
HETATM    3  C   UNK N   1      27.591  24.405  -4.095  0.00  0.00     0.106 A 
HETATM    4  N   UNK N   1      26.855  23.796  -5.063  0.00  0.00    -0.326 N 
ATOM      5  HN  UNK N   1      26.610  22.809  -4.983  1.00  0.00     0.169 HD
HETATM    6  C   UNK N   1      26.458  24.518  -6.129  0.00  0.00     0.153 A 
HETATM    7  C   UNK N   1      25.878  24.067  -7.269  0.00  0.00     0.107 A 
HETATM    8  C   UNK N   1      25.542  22.697  -7.537  0.00  0.00     0.105 C 
HETATM    9  N   UNK N   1      25.290  21.580  -7.701  0.00  0.00    -0.191 NA
HETATM   10  C   UNK N   1      25.787  25.181  -8.098  0.00  0.00     0.134 A 
HETATM   11  N   UNK N   1      26.314  26.241  -7.431  0.00  0.00    -0.300 N 
ATOM     12  HN  UNK N   1      26.380  27.197  -7.781  1.00  0.00     0.186 HD
HETATM   13  N   UNK N   1      26.726  25.816  -6.249  0.00  0.00    -0.223 N 
ENDROOT
BRANCH   3  14
HETATM   14  N   UNK N   1      28.470  23.611  -3.344  0.00  0.00    -0.371 N 
HETATM   15  H   UNK N   1      28.131  22.974  -2.675  0.00  0.00     0.161 HD
BRANCH  14  16
HETATM   16  C   UNK N   1      29.901  23.756  -3.585  0.00  0.00     0.083 C 
HETATM   17  C   UNK N   1      30.657  23.070  -2.439  0.00  0.00     0.027 C 
HETATM   18  C   UNK N   1      31.547  21.901  -2.892  0.00  0.00     0.026 C 
HETATM   19  C   UNK N   1      30.753  20.959  -3.788  0.00  0.00     0.074 C 
HETATM   20  C   UNK N   1      30.310  21.673  -5.072  0.00  0.00     0.026 C 
HETATM   21  C   UNK N   1      30.349  23.209  -4.969  0.00  0.00     0.027 C 
BRANCH  19  22
HETATM   22  N   UNK N   1      31.571  19.815  -4.146  0.00  0.00    -0.426 N 
HETATM   23  H   UNK N   1      32.584  19.785  -4.027  0.00  0.00     0.150 HD
HETATM   24  H   UNK N   1      31.108  18.996  -4.539  0.00  0.00     0.150 HD
ENDBRANCH  19  22
ENDBRANCH  14  16
ENDBRANCH   3  14
BRANCH   1  25
HETATM   25  N   UNK N   1      27.757  27.876  -5.430  0.00  0.00    -0.371 N 
HETATM   26  H   UNK N   1      28.648  28.079  -5.794  0.00  0.00     0.161 HD
BRANCH  25  27
HETATM   27  C   UNK N   1      26.916  29.004  -5.077  0.00  0.00     0.075 C 
HETATM   28  C   UNK N   1      27.719  30.286  -5.018  0.00  0.00     0.031 C 
HETATM   29  C   UNK N   1      25.998  28.814  -3.876  0.00  0.00     0.031 C 
ENDBRANCH  25  27
ENDBRANCH   1  25
TORSDOF 5
ENDMDL
MODEL 8
REMARK VINA RESULT:      -6.0     22.293     25.841
REMARK  5 active torsions:
REMARK  status: ('A' for Active; 'I' for Inactive)
REMARK    1  A    between atoms: C_2  and  N_4 
REMARK    2  A    between atoms: N_4  and  C_5 
REMARK    3  A    between atoms: C_7  and  N_8 
REMARK    4  A    between atoms: C_9  and  N_8 
REMARK    5  A    between atoms: C_12  and  N_13 
ROOT
HETATM    1  C   UNK N   1      34.569  11.296  13.809  0.00  0.00     0.129 A 
HETATM    2  C   UNK N   1      34.532  10.620  15.034  0.00  0.00     0.098 A 
HETATM    3  C   UNK N   1      35.273  11.121  16.122  0.00  0.00     0.106 A 
HETATM    4  N   UNK N   1      35.990  12.268  15.981  0.00  0.00    -0.326 N 
ATOM      5  HN  UNK N   1      36.548  12.629  16.755  1.00  0.00     0.169 HD
HETATM    6  C   UNK N   1      35.950  12.919  14.802  0.00  0.00     0.153 A 
HETATM    7  C   UNK N   1      36.443  14.151  14.515  0.00  0.00     0.107 A 
HETATM    8  C   UNK N   1      37.149  14.992  15.440  0.00  0.00     0.105 C 
HETATM    9  N   UNK N   1      37.713  15.629  16.223  0.00  0.00    -0.191 NA
HETATM   10  C   UNK N   1      36.031  14.414  13.211  0.00  0.00     0.134 A 
HETATM   11  N   UNK N   1      35.314  13.345  12.777  0.00  0.00    -0.300 N 
ATOM     12  HN  UNK N   1      34.888  13.243  11.856  1.00  0.00     0.186 HD
HETATM   13  N   UNK N   1      35.265  12.460  13.758  0.00  0.00    -0.223 N 
ENDROOT
BRANCH   3  14
HETATM   14  N   UNK N   1      34.833  10.779  17.409  0.00  0.00    -0.371 N 
HETATM   15  H   UNK N   1      34.173  11.333  17.882  0.00  0.00     0.161 HD
BRANCH  14  16
HETATM   16  C   UNK N   1      35.384   9.576  18.025  0.00  0.00     0.083 C 
HETATM   17  C   UNK N   1      36.574   9.983  18.903  0.00  0.00     0.027 C 
HETATM   18  C   UNK N   1      36.391   9.653  20.392  0.00  0.00     0.026 C 
HETATM   19  C   UNK N   1      35.038  10.160  20.875  0.00  0.00     0.074 C 
HETATM   20  C   UNK N   1      33.895   9.447  20.142  0.00  0.00     0.026 C 
HETATM   21  C   UNK N   1      34.332   8.764  18.832  0.00  0.00     0.027 C 
BRANCH  19  22
HETATM   22  N   UNK N   1      34.904   9.920  22.301  0.00  0.00    -0.426 N 
HETATM   23  H   UNK N   1      34.032   9.635  22.747  0.00  0.00     0.150 HD
HETATM   24  H   UNK N   1      35.727  10.045  22.889  0.00  0.00     0.150 HD
ENDBRANCH  19  22
ENDBRANCH  14  16
ENDBRANCH   3  14
BRANCH   1  25
HETATM   25  N   UNK N   1      33.784  10.812  12.724  0.00  0.00    -0.371 N 
HETATM   26  H   UNK N   1      32.961  11.309  12.511  0.00  0.00     0.161 HD
BRANCH  25  27
HETATM   27  C   UNK N   1      34.086   9.655  11.904  0.00  0.00     0.075 C 
HETATM   28  C   UNK N   1      35.552   9.621  11.527  0.00  0.00     0.031 C 
HETATM   29  C   UNK N   1      33.156   9.397  10.725  0.00  0.00     0.031 C 
ENDBRANCH  25  27
ENDBRANCH   1  25
TORSDOF 5
ENDMDL
MODEL 9
REMARK VINA RESULT:      -6.0      1.461      2.030
REMARK  5 active torsions:
REMARK  status: ('A' for Active; 'I' for Inactive)
REMARK    1  A    between atoms: C_2  and  N_4 
REMARK    2  A    between atoms: N_4  and  C_5 
REMARK    3  A    between atoms: C_7  and  N_8 
REMARK    4  A    between atoms: C_9  and  N_8 
REMARK    5  A    between atoms: C_12  and  N_13 
ROOT
HETATM    1  C   UNK N   1      26.480  25.183  -6.426  0.00  0.00     0.129 A 
HETATM    2  C   UNK N   1      27.731  24.568  -6.295  0.00  0.00     0.098 A 
HETATM    3  C   UNK N   1      28.697  25.142  -5.447  0.00  0.00     0.106 A 
HETATM    4  N   UNK N   1      28.398  26.267  -4.743  0.00  0.00    -0.326 N 
ATOM      5  HN  UNK N   1      29.097  26.704  -4.143  1.00  0.00     0.169 HD
HETATM    6  C   UNK N   1      27.162  26.792  -4.853  0.00  0.00     0.153 A 
HETATM    7  C   UNK N   1      26.615  27.790  -4.114  0.00  0.00     0.107 A 
HETATM    8  C   UNK N   1      27.291  28.511  -3.073  0.00  0.00     0.105 C 
HETATM    9  N   UNK N   1      27.882  29.061  -2.245  0.00  0.00    -0.191 NA
HETATM   10  C   UNK N   1      25.288  27.866  -4.529  0.00  0.00     0.134 A 
HETATM   11  N   UNK N   1      25.096  26.919  -5.484  0.00  0.00    -0.300 N 
ATOM     12  HN  UNK N   1      24.224  26.739  -5.982  1.00  0.00     0.186 HD
HETATM   13  N   UNK N   1      26.236  26.273  -5.654  0.00  0.00    -0.223 N 
ENDROOT
BRANCH   3  14
HETATM   14  N   UNK N   1      29.683  24.289  -4.929  0.00  0.00    -0.371 N 
HETATM   15  H   UNK N   1      30.632  24.548  -4.940  0.00  0.00     0.161 HD
BRANCH  14  16
HETATM   16  C   UNK N   1      29.260  23.008  -4.374  0.00  0.00     0.083 C 
HETATM   17  C   UNK N   1      29.992  21.889  -5.124  0.00  0.00     0.027 C 
HETATM   18  C   UNK N   1      30.900  21.030  -4.230  0.00  0.00     0.026 C 
HETATM   19  C   UNK N   1      31.796  21.926  -3.385  0.00  0.00     0.074 C 
HETATM   20  C   UNK N   1      30.961  22.788  -2.431  0.00  0.00     0.026 C 
HETATM   21  C   UNK N   1      29.480  22.903  -2.839  0.00  0.00     0.027 C 
BRANCH  19  22
HETATM   22  N   UNK N   1      32.708  21.110  -2.603  0.00  0.00    -0.426 N 
HETATM   23  H   UNK N   1      33.689  20.966  -2.846  0.00  0.00     0.150 HD
HETATM   24  H   UNK N   1      32.349  20.655  -1.764  0.00  0.00     0.150 HD
ENDBRANCH  19  22
ENDBRANCH  14  16
ENDBRANCH   3  14
BRANCH   1  25
HETATM   25  N   UNK N   1      25.489  24.576  -7.249  0.00  0.00    -0.371 N 
HETATM   26  H   UNK N   1      24.798  24.042  -6.796  0.00  0.00     0.161 HD
BRANCH  25  27
HETATM   27  C   UNK N   1      25.405  24.675  -8.693  0.00  0.00     0.075 C 
HETATM   28  C   UNK N   1      25.951  23.429  -9.358  0.00  0.00     0.031 C 
HETATM   29  C   UNK N   1      25.926  25.965  -9.315  0.00  0.00     0.031 C 
ENDBRANCH  25  27
ENDBRANCH   1  25
TORSDOF 5
ENDMDL
