MODEL 1
REMARK VINA RESULT:      -7.0      0.000      0.000
REMARK  4 active torsions:
REMARK  status: ('A' for Active; 'I' for Inactive)
REMARK    1  A    between atoms: C_4  and  N_5 
REMARK       I    between atoms: N_5  and  C_6 
REMARK    2  A    between atoms: C_6  and  C_8 
REMARK    3  A    between atoms: C_13  and  N_14 
REMARK       I    between atoms: N_14  and  C_15 
REMARK    4  A    between atoms: C_15  and  C_17 
ROOT
HETATM    1  C   UNK N   1      25.890  26.744  -4.932  0.00  0.00     0.144 A 
HETATM    2  N   UNK N   1      25.107  27.779  -4.579  0.00  0.00    -0.294 N 
ATOM      3  HN  UNK N   1      24.274  28.097  -5.075  1.00  0.00     0.187 HD
HETATM    4  N   UNK N   1      25.609  28.315  -3.470  0.00  0.00    -0.309 N 
HETATM    5  C   UNK N   1      26.708  27.617  -3.087  0.00  0.00     0.139 A 
HETATM    6  C   UNK N   1      26.892  26.618  -4.015  0.00  0.00     0.086 A 
HETATM    7  H   UNK N   1      25.240  29.098  -3.000  0.00  0.00     0.186 HD
ENDROOT
BRANCH   6   8
HETATM    8  N   UNK N   1      27.809  25.539  -4.032  0.00  0.00    -0.319 N 
HETATM    9  C   UNK N   1      27.706  24.313  -3.480  0.00  0.00     0.262 C 
HETATM   10  O   UNK N   1      26.761  24.035  -2.757  0.00  0.00    -0.267 OA
HETATM   11  H   UNK N   1      28.647  25.710  -4.518  0.00  0.00     0.169 HD
BRANCH   9  12
HETATM   12  C   UNK N   1      28.781  23.313  -3.777  0.00  0.00     0.109 A 
HETATM   13  C   UNK N   1      29.604  22.802  -2.751  0.00  0.00     0.135 A 
HETATM   14  F   UNK N   1      29.456  23.211  -1.468  0.00  0.00    -0.205 F 
HETATM   15  C   UNK N   1      30.598  21.863  -3.047  0.00  0.00     0.043 A 
HETATM   16  C   UNK N   1      30.787  21.419  -4.355  0.00  0.00     0.006 A 
HETATM   17  C   UNK N   1      29.982  21.909  -5.379  0.00  0.00     0.043 A 
HETATM   18  C   UNK N   1      28.987  22.848  -5.105  0.00  0.00     0.135 A 
HETATM   19  F   UNK N   1      28.223  23.280  -6.139  0.00  0.00    -0.205 F 
ENDBRANCH   9  12
ENDBRANCH   6   8
BRANCH   1  20
HETATM   20  C   UNK N   1      25.736  25.858  -6.102  0.00  0.00     0.272 C 
HETATM   21  N   UNK N   1      26.101  26.238  -7.353  0.00  0.00    -0.349 N 
HETATM   22  H   UNK N   1      26.483  27.133  -7.500  0.00  0.00     0.163 HD
HETATM   23  O   UNK N   1      25.233  24.755  -5.929  0.00  0.00    -0.266 OA
BRANCH  21  24
HETATM   24  C   UNK N   1      25.932  25.332  -8.478  0.00  0.00     0.102 C 
HETATM   25  C   UNK N   1      27.264  24.716  -8.889  0.00  0.00     0.028 C 
HETATM   26  C   UNK N   1      27.065  23.814 -10.111  0.00  0.00     0.021 C 
HETATM   27  C   UNK N   1      26.371  24.586 -11.237  0.00  0.00     0.114 C 
HETATM   28  N   UNK N   1      25.092  25.121 -10.777  0.00  0.00    -0.419 N 
HETATM   29  C   UNK N   1      25.358  26.071  -9.701  0.00  0.00     0.139 C 
HETATM   30  H   UNK N   1      24.173  24.874 -11.144  0.00  0.00     0.153 HD
ENDBRANCH  21  24
ENDBRANCH   1  20
TORSDOF 4
ENDMDL
MODEL 2
REMARK VINA RESULT:      -6.8     11.025     13.968
REMARK  4 active torsions:
REMARK  status: ('A' for Active; 'I' for Inactive)
REMARK    1  A    between atoms: C_4  and  N_5 
REMARK       I    between atoms: N_5  and  C_6 
REMARK    2  A    between atoms: C_6  and  C_8 
REMARK    3  A    between atoms: C_13  and  N_14 
REMARK       I    between atoms: N_14  and  C_15 
REMARK    4  A    between atoms: C_15  and  C_17 
ROOT
HETATM    1  C   UNK N   1      28.361  18.102   7.724  0.00  0.00     0.144 A 
HETATM    2  N   UNK N   1      27.842  18.381   8.933  0.00  0.00    -0.294 N 
ATOM      3  HN  UNK N   1      26.889  18.695   9.118  1.00  0.00     0.187 HD
HETATM    4  N   UNK N   1      28.790  18.179   9.844  0.00  0.00    -0.309 N 
HETATM    5  C   UNK N   1      29.921  17.747   9.232  0.00  0.00     0.139 A 
HETATM    6  C   UNK N   1      29.654  17.698   7.883  0.00  0.00     0.086 A 
HETATM    7  H   UNK N   1      28.686  18.321  10.812  0.00  0.00     0.186 HD
ENDROOT
BRANCH   6   8
HETATM    8  N   UNK N   1      30.436  17.206   6.810  0.00  0.00    -0.319 N 
HETATM    9  C   UNK N   1      31.775  17.211   6.647  0.00  0.00     0.262 C 
HETATM   10  O   UNK N   1      32.495  17.792   7.445  0.00  0.00    -0.267 OA
HETATM   11  H   UNK N   1      29.927  16.801   6.072  0.00  0.00     0.169 HD
BRANCH   9  12
HETATM   12  C   UNK N   1      32.344  16.491   5.464  0.00  0.00     0.109 A 
HETATM   13  C   UNK N   1      32.422  17.113   4.200  0.00  0.00     0.135 A 
HETATM   14  F   UNK N   1      31.970  18.377   4.015  0.00  0.00    -0.205 F 
HETATM   15  C   UNK N   1      32.964  16.426   3.108  0.00  0.00     0.043 A 
HETATM   16  C   UNK N   1      33.437  15.123   3.254  0.00  0.00     0.006 A 
HETATM   17  C   UNK N   1      33.372  14.494   4.494  0.00  0.00     0.043 A 
HETATM   18  C   UNK N   1      32.832  15.161   5.595  0.00  0.00     0.135 A 
HETATM   19  F   UNK N   1      32.807  14.506   6.782  0.00  0.00    -0.205 F 
ENDBRANCH   9  12
ENDBRANCH   6   8
BRANCH   1  20
HETATM   20  C   UNK N   1      27.689  18.195   6.414  0.00  0.00     0.272 C 
HETATM   21  N   UNK N   1      26.825  19.197   6.110  0.00  0.00    -0.349 N 
HETATM   22  H   UNK N   1      26.630  19.893   6.779  0.00  0.00     0.163 HD
HETATM   23  O   UNK N   1      27.905  17.315   5.590  0.00  0.00    -0.266 OA
BRANCH  21  24
HETATM   24  C   UNK N   1      26.184  19.252   4.806  0.00  0.00     0.102 C 
HETATM   25  C   UNK N   1      26.521  20.552   4.086  0.00  0.00     0.028 C 
HETATM   26  C   UNK N   1      25.787  20.607   2.742  0.00  0.00     0.021 C 
HETATM   27  C   UNK N   1      24.284  20.386   2.945  0.00  0.00     0.114 C 
HETATM   28  N   UNK N   1      24.041  19.110   3.614  0.00  0.00    -0.419 N 
HETATM   29  C   UNK N   1      24.653  19.168   4.938  0.00  0.00     0.139 C 
HETATM   30  H   UNK N   1      23.532  18.317   3.224  0.00  0.00     0.153 HD
ENDBRANCH  21  24
ENDBRANCH   1  20
TORSDOF 4
ENDMDL
MODEL 3
REMARK VINA RESULT:      -6.8      1.897      5.641
REMARK  4 active torsions:
REMARK  status: ('A' for Active; 'I' for Inactive)
REMARK    1  A    between atoms: C_4  and  N_5 
REMARK       I    between atoms: N_5  and  C_6 
REMARK    2  A    between atoms: C_6  and  C_8 
REMARK    3  A    between atoms: C_13  and  N_14 
REMARK       I    between atoms: N_14  and  C_15 
REMARK    4  A    between atoms: C_15  and  C_17 
ROOT
HETATM    1  C   UNK N   1      26.409  26.279  -3.658  0.00  0.00     0.144 A 
HETATM    2  N   UNK N   1      26.334  27.304  -2.792  0.00  0.00    -0.294 N 
ATOM      3  HN  UNK N   1      26.773  27.345  -1.872  1.00  0.00     0.187 HD
HETATM    4  N   UNK N   1      25.586  28.256  -3.344  0.00  0.00    -0.309 N 
HETATM    5  C   UNK N   1      25.190  27.859  -4.580  0.00  0.00     0.139 A 
HETATM    6  C   UNK N   1      25.709  26.602  -4.783  0.00  0.00     0.086 A 
HETATM    7  H   UNK N   1      25.355  29.114  -2.921  0.00  0.00     0.186 HD
ENDROOT
BRANCH   6   8
HETATM    8  N   UNK N   1      25.704  25.783  -5.939  0.00  0.00    -0.319 N 
HETATM    9  C   UNK N   1      26.680  25.564  -6.843  0.00  0.00     0.262 C 
HETATM   10  O   UNK N   1      27.724  26.198  -6.795  0.00  0.00    -0.267 OA
HETATM   11  H   UNK N   1      24.862  25.303  -6.108  0.00  0.00     0.169 HD
BRANCH   9  12
HETATM   12  C   UNK N   1      26.444  24.530  -7.901  0.00  0.00     0.109 A 
HETATM   13  C   UNK N   1      26.308  24.894  -9.258  0.00  0.00     0.135 A 
HETATM   14  F   UNK N   1      26.372  26.192  -9.643  0.00  0.00    -0.205 F 
HETATM   15  C   UNK N   1      26.094  23.914 -10.232  0.00  0.00     0.043 A 
HETATM   16  C   UNK N   1      26.016  22.567  -9.878  0.00  0.00     0.006 A 
HETATM   17  C   UNK N   1      26.152  22.190  -8.546  0.00  0.00     0.043 A 
HETATM   18  C   UNK N   1      26.363  23.153  -7.558  0.00  0.00     0.135 A 
HETATM   19  F   UNK N   1      26.503  22.726  -6.278  0.00  0.00    -0.205 F 
ENDBRANCH   9  12
ENDBRANCH   6   8
BRANCH   1  20
HETATM   20  C   UNK N   1      27.118  24.998  -3.475  0.00  0.00     0.272 C 
HETATM   21  N   UNK N   1      28.384  24.799  -3.922  0.00  0.00    -0.349 N 
HETATM   22  H   UNK N   1      28.858  25.526  -4.388  0.00  0.00     0.163 HD
HETATM   23  O   UNK N   1      26.522  24.081  -2.924  0.00  0.00    -0.266 OA
BRANCH  21  24
HETATM   24  C   UNK N   1      29.048  23.521  -3.720  0.00  0.00     0.102 C 
HETATM   25  C   UNK N   1      30.285  23.679  -2.844  0.00  0.00     0.028 C 
HETATM   26  C   UNK N   1      30.994  22.329  -2.696  0.00  0.00     0.021 C 
HETATM   27  C   UNK N   1      31.287  21.726  -4.074  0.00  0.00     0.114 C 
HETATM   28  N   UNK N   1      30.052  21.580  -4.841  0.00  0.00    -0.419 N 
HETATM   29  C   UNK N   1      29.494  22.910  -5.060  0.00  0.00     0.139 C 
HETATM   30  H   UNK N   1      29.651  20.700  -5.167  0.00  0.00     0.153 HD
ENDBRANCH  21  24
ENDBRANCH   1  20
TORSDOF 4
ENDMDL
MODEL 4
REMARK VINA RESULT:      -6.6     14.767     17.818
REMARK  4 active torsions:
REMARK  status: ('A' for Active; 'I' for Inactive)
REMARK    1  A    between atoms: C_4  and  N_5 
REMARK       I    between atoms: N_5  and  C_6 
REMARK    2  A    between atoms: C_6  and  C_8 
REMARK    3  A    between atoms: C_13  and  N_14 
REMARK       I    between atoms: N_14  and  C_15 
REMARK    4  A    between atoms: C_15  and  C_17 
ROOT
HETATM    1  C   UNK N   1      33.943  15.496   5.073  0.00  0.00     0.144 A 
HETATM    2  N   UNK N   1      34.553  14.801   4.097  0.00  0.00    -0.294 N 
ATOM      3  HN  UNK N   1      35.490  14.399   4.143  1.00  0.00     0.187 HD
HETATM    4  N   UNK N   1      33.722  14.730   3.061  0.00  0.00    -0.309 N 
HETATM    5  C   UNK N   1      32.560  15.361   3.370  0.00  0.00     0.139 A 
HETATM    6  C   UNK N   1      32.697  15.850   4.648  0.00  0.00     0.086 A 
HETATM    7  H   UNK N   1      33.919  14.289   2.203  0.00  0.00     0.186 HD
ENDROOT
BRANCH   6   8
HETATM    8  N   UNK N   1      31.752  16.479   5.495  0.00  0.00    -0.319 N 
HETATM    9  C   UNK N   1      31.008  15.956   6.491  0.00  0.00     0.262 C 
HETATM   10  O   UNK N   1      31.008  14.752   6.700  0.00  0.00    -0.267 OA
HETATM   11  H   UNK N   1      31.618  17.440   5.333  0.00  0.00     0.169 HD
BRANCH   9  12
HETATM   12  C   UNK N   1      30.185  16.892   7.322  0.00  0.00     0.109 A 
HETATM   13  C   UNK N   1      28.782  16.958   7.172  0.00  0.00     0.135 A 
HETATM   14  F   UNK N   1      28.140  16.187   6.261  0.00  0.00    -0.205 F 
HETATM   15  C   UNK N   1      28.030  17.833   7.962  0.00  0.00     0.043 A 
HETATM   16  C   UNK N   1      28.652  18.647   8.908  0.00  0.00     0.006 A 
HETATM   17  C   UNK N   1      30.033  18.593   9.072  0.00  0.00     0.043 A 
HETATM   18  C   UNK N   1      30.801  17.729   8.292  0.00  0.00     0.135 A 
HETATM   19  F   UNK N   1      32.141  17.707   8.505  0.00  0.00    -0.205 F 
ENDBRANCH   9  12
ENDBRANCH   6   8
BRANCH   1  20
HETATM   20  C   UNK N   1      34.483  15.841   6.403  0.00  0.00     0.272 C 
HETATM   21  N   UNK N   1      34.637  14.917   7.386  0.00  0.00    -0.349 N 
HETATM   22  H   UNK N   1      34.383  13.980   7.220  0.00  0.00     0.163 HD
HETATM   23  O   UNK N   1      34.772  17.010   6.623  0.00  0.00    -0.266 OA
BRANCH  21  24
HETATM   24  C   UNK N   1      35.174  15.300   8.682  0.00  0.00     0.102 C 
HETATM   25  C   UNK N   1      36.221  14.300   9.157  0.00  0.00     0.028 C 
HETATM   26  C   UNK N   1      36.726  14.697  10.548  0.00  0.00     0.021 C 
HETATM   27  C   UNK N   1      35.549  14.863  11.515  0.00  0.00     0.114 C 
HETATM   28  N   UNK N   1      34.606  15.856  11.006  0.00  0.00    -0.419 N 
HETATM   29  C   UNK N   1      34.063  15.360   9.745  0.00  0.00     0.139 C 
HETATM   30  H   UNK N   1      34.368  16.741  11.455  0.00  0.00     0.153 HD
ENDBRANCH  21  24
ENDBRANCH   1  20
TORSDOF 4
ENDMDL
MODEL 5
REMARK VINA RESULT:      -6.5     23.776     26.721
REMARK  4 active torsions:
REMARK  status: ('A' for Active; 'I' for Inactive)
REMARK    1  A    between atoms: C_4  and  N_5 
REMARK       I    between atoms: N_5  and  C_6 
REMARK    2  A    between atoms: C_6  and  C_8 
REMARK    3  A    between atoms: C_13  and  N_14 
REMARK       I    between atoms: N_14  and  C_15 
REMARK    4  A    between atoms: C_15  and  C_17 
ROOT
HETATM    1  C   UNK N   1      36.593  12.798  12.944  0.00  0.00     0.144 A 
HETATM    2  N   UNK N   1      36.593  13.480  11.785  0.00  0.00    -0.294 N 
ATOM      3  HN  UNK N   1      36.690  13.077  10.852  1.00  0.00     0.187 HD
HETATM    4  N   UNK N   1      36.447  14.771  12.066  0.00  0.00    -0.309 N 
HETATM    5  C   UNK N   1      36.329  14.930  13.410  0.00  0.00     0.139 A 
HETATM    6  C   UNK N   1      36.423  13.679  13.971  0.00  0.00     0.086 A 
HETATM    7  H   UNK N   1      36.427  15.499  11.404  0.00  0.00     0.186 HD
ENDROOT
BRANCH   6   8
HETATM    8  N   UNK N   1      36.248  13.259  15.313  0.00  0.00    -0.319 N 
HETATM    9  C   UNK N   1      35.120  12.916  15.966  0.00  0.00     0.262 C 
HETATM   10  O   UNK N   1      34.028  13.050  15.434  0.00  0.00    -0.267 OA
HETATM   11  H   UNK N   1      37.072  13.213  15.848  0.00  0.00     0.169 HD
BRANCH   9  12
HETATM   12  C   UNK N   1      35.247  12.374  17.357  0.00  0.00     0.109 A 
HETATM   13  C   UNK N   1      35.162  13.223  18.481  0.00  0.00     0.135 A 
HETATM   14  F   UNK N   1      34.977  14.558  18.336  0.00  0.00    -0.205 F 
HETATM   15  C   UNK N   1      35.277  12.697  19.772  0.00  0.00     0.043 A 
HETATM   16  C   UNK N   1      35.472  11.330  19.966  0.00  0.00     0.006 A 
HETATM   17  C   UNK N   1      35.554  10.477  18.869  0.00  0.00     0.043 A 
HETATM   18  C   UNK N   1      35.446  10.983  17.574  0.00  0.00     0.135 A 
HETATM   19  F   UNK N   1      35.518  10.103  16.543  0.00  0.00    -0.205 F 
ENDBRANCH   9  12
ENDBRANCH   6   8
BRANCH   1  20
HETATM   20  C   UNK N   1      36.742  11.342  13.130  0.00  0.00     0.272 C 
HETATM   21  N   UNK N   1      37.957  10.737  13.177  0.00  0.00    -0.349 N 
HETATM   22  H   UNK N   1      38.775  11.276  13.084  0.00  0.00     0.163 HD
HETATM   23  O   UNK N   1      35.727  10.663  13.216  0.00  0.00    -0.266 OA
BRANCH  21  24
HETATM   24  C   UNK N   1      38.059   9.298  13.364  0.00  0.00     0.102 C 
HETATM   25  C   UNK N   1      39.042   8.960  14.477  0.00  0.00     0.028 C 
HETATM   26  C   UNK N   1      39.173   7.439  14.612  0.00  0.00     0.021 C 
HETATM   27  C   UNK N   1      39.533   6.813  13.260  0.00  0.00     0.114 C 
HETATM   28  N   UNK N   1      38.531   7.158  12.255  0.00  0.00    -0.419 N 
HETATM   29  C   UNK N   1      38.546   8.607  12.078  0.00  0.00     0.139 C 
HETATM   30  H   UNK N   1      37.927   6.501  11.761  0.00  0.00     0.153 HD
ENDBRANCH  21  24
ENDBRANCH   1  20
TORSDOF 4
ENDMDL
MODEL 6
REMARK VINA RESULT:      -6.4     14.537     17.170
REMARK  4 active torsions:
REMARK  status: ('A' for Active; 'I' for Inactive)
REMARK    1  A    between atoms: C_4  and  N_5 
REMARK       I    between atoms: N_5  and  C_6 
REMARK    2  A    between atoms: C_6  and  C_8 
REMARK    3  A    between atoms: C_13  and  N_14 
REMARK       I    between atoms: N_14  and  C_15 
REMARK    4  A    between atoms: C_15  and  C_17 
ROOT
HETATM    1  C   UNK N   1      34.312  16.665   9.438  0.00  0.00     0.144 A 
HETATM    2  N   UNK N   1      34.687  16.702  10.729  0.00  0.00    -0.294 N 
ATOM      3  HN  UNK N   1      34.235  17.240  11.469  1.00  0.00     0.187 HD
HETATM    4  N   UNK N   1      35.749  15.914  10.871  0.00  0.00    -0.309 N 
HETATM    5  C   UNK N   1      36.055  15.347   9.677  0.00  0.00     0.139 A 
HETATM    6  C   UNK N   1      35.145  15.823   8.762  0.00  0.00     0.086 A 
HETATM    7  H   UNK N   1      36.238  15.766  11.713  0.00  0.00     0.186 HD
ENDROOT
BRANCH   6   8
HETATM    8  N   UNK N   1      34.933  15.467   7.408  0.00  0.00    -0.319 N 
HETATM    9  C   UNK N   1      33.926  14.764   6.850  0.00  0.00     0.262 C 
HETATM   10  O   UNK N   1      33.078  14.232   7.550  0.00  0.00    -0.267 OA
HETATM   11  H   UNK N   1      35.625  15.777   6.780  0.00  0.00     0.169 HD
BRANCH   9  12
HETATM   12  C   UNK N   1      33.885  14.655   5.356  0.00  0.00     0.109 A 
HETATM   13  C   UNK N   1      33.489  15.749   4.557  0.00  0.00     0.135 A 
HETATM   14  F   UNK N   1      33.120  16.926   5.116  0.00  0.00    -0.205 F 
HETATM   15  C   UNK N   1      33.464  15.630   3.163  0.00  0.00     0.043 A 
HETATM   16  C   UNK N   1      33.832  14.435   2.546  0.00  0.00     0.006 A 
HETATM   17  C   UNK N   1      34.229  13.347   3.319  0.00  0.00     0.043 A 
HETATM   18  C   UNK N   1      34.258  13.445   4.710  0.00  0.00     0.135 A 
HETATM   19  F   UNK N   1      34.667  12.358   5.412  0.00  0.00    -0.205 F 
ENDBRANCH   9  12
ENDBRANCH   6   8
BRANCH   1  20
HETATM   20  C   UNK N   1      33.193  17.391   8.806  0.00  0.00     0.272 C 
HETATM   21  N   UNK N   1      31.900  17.006   8.956  0.00  0.00    -0.349 N 
HETATM   22  H   UNK N   1      31.687  16.215   9.503  0.00  0.00     0.163 HD
HETATM   23  O   UNK N   1      33.456  18.357   8.101  0.00  0.00    -0.266 OA
BRANCH  21  24
HETATM   24  C   UNK N   1      30.828  17.751   8.317  0.00  0.00     0.102 C 
HETATM   25  C   UNK N   1      29.663  17.964   9.276  0.00  0.00     0.028 C 
HETATM   26  C   UNK N   1      28.526  18.700   8.558  0.00  0.00     0.021 C 
HETATM   27  C   UNK N   1      28.139  17.960   7.274  0.00  0.00     0.114 C 
HETATM   28  N   UNK N   1      29.298  17.819   6.396  0.00  0.00    -0.419 N 
HETATM   29  C   UNK N   1      30.292  17.001   7.084  0.00  0.00     0.139 C 
HETATM   30  H   UNK N   1      29.395  18.222   5.464  0.00  0.00     0.153 HD
ENDBRANCH  21  24
ENDBRANCH   1  20
TORSDOF 4
ENDMDL
MODEL 7
REMARK VINA RESULT:      -6.4     14.583     17.259
REMARK  4 active torsions:
REMARK  status: ('A' for Active; 'I' for Inactive)
REMARK    1  A    between atoms: C_4  and  N_5 
REMARK       I    between atoms: N_5  and  C_6 
REMARK    2  A    between atoms: C_6  and  C_8 
REMARK    3  A    between atoms: C_13  and  N_14 
REMARK       I    between atoms: N_14  and  C_15 
REMARK    4  A    between atoms: C_15  and  C_17 
ROOT
HETATM    1  C   UNK N   1      31.458  17.591   8.384  0.00  0.00     0.144 A 
HETATM    2  N   UNK N   1      30.752  18.437   9.154  0.00  0.00    -0.294 N 
ATOM      3  HN  UNK N   1      31.111  18.965   9.950  1.00  0.00     0.187 HD
HETATM    4  N   UNK N   1      29.504  18.467   8.696  0.00  0.00    -0.309 N 
HETATM    5  C   UNK N   1      29.400  17.655   7.613  0.00  0.00     0.139 A 
HETATM    6  C   UNK N   1      30.640  17.094   7.412  0.00  0.00     0.086 A 
HETATM    7  H   UNK N   1      28.769  18.995   9.082  0.00  0.00     0.186 HD
ENDROOT
BRANCH   6   8
HETATM    8  N   UNK N   1      31.117  16.274   6.360  0.00  0.00    -0.319 N 
HETATM    9  C   UNK N   1      31.514  16.613   5.118  0.00  0.00     0.262 C 
HETATM   10  O   UNK N   1      31.386  17.760   4.716  0.00  0.00    -0.267 OA
HETATM   11  H   UNK N   1      31.164  15.313   6.567  0.00  0.00     0.169 HD
BRANCH   9  12
HETATM   12  C   UNK N   1      32.108  15.546   4.251  0.00  0.00     0.109 A 
HETATM   13  C   UNK N   1      33.504  15.341   4.201  0.00  0.00     0.135 A 
HETATM   14  F   UNK N   1      34.350  16.115   4.924  0.00  0.00    -0.205 F 
HETATM   15  C   UNK N   1      34.040  14.335   3.390  0.00  0.00     0.043 A 
HETATM   16  C   UNK N   1      33.205  13.520   2.627  0.00  0.00     0.006 A 
HETATM   17  C   UNK N   1      31.826  13.704   2.667  0.00  0.00     0.043 A 
HETATM   18  C   UNK N   1      31.273  14.705   3.466  0.00  0.00     0.135 A 
HETATM   19  F   UNK N   1      29.922  14.830   3.478  0.00  0.00    -0.205 F 
ENDBRANCH   9  12
ENDBRANCH   6   8
BRANCH   1  20
HETATM   20  C   UNK N   1      32.882  17.227   8.520  0.00  0.00     0.272 C 
HETATM   21  N   UNK N   1      33.327  16.386   9.488  0.00  0.00    -0.349 N 
HETATM   22  H   UNK N   1      32.689  15.999  10.131  0.00  0.00     0.163 HD
HETATM   23  O   UNK N   1      33.683  17.729   7.742  0.00  0.00    -0.266 OA
BRANCH  21  24
HETATM   24  C   UNK N   1      34.739  16.053   9.586  0.00  0.00     0.102 C 
HETATM   25  C   UNK N   1      35.028  14.704   8.940  0.00  0.00     0.028 C 
HETATM   26  C   UNK N   1      36.510  14.353   9.109  0.00  0.00     0.021 C 
HETATM   27  C   UNK N   1      36.911  14.427  10.586  0.00  0.00     0.114 C 
HETATM   28  N   UNK N   1      36.630  15.755  11.125  0.00  0.00    -0.419 N 
HETATM   29  C   UNK N   1      35.189  15.978  11.056  0.00  0.00     0.139 C 
HETATM   30  H   UNK N   1      37.321  16.413  11.487  0.00  0.00     0.153 HD
ENDBRANCH  21  24
ENDBRANCH   1  20
TORSDOF 4
ENDMDL
MODEL 8
REMARK VINA RESULT:      -6.4      3.002      6.836
REMARK  4 active torsions:
REMARK  status: ('A' for Active; 'I' for Inactive)
REMARK    1  A    between atoms: C_4  and  N_5 
REMARK       I    between atoms: N_5  and  C_6 
REMARK    2  A    between atoms: C_6  and  C_8 
REMARK    3  A    between atoms: C_13  and  N_14 
REMARK       I    between atoms: N_14  and  C_15 
REMARK    4  A    between atoms: C_15  and  C_17 
ROOT
HETATM    1  C   UNK N   1      28.208  22.044  -7.672  0.00  0.00     0.144 A 
HETATM    2  N   UNK N   1      28.146  20.983  -8.496  0.00  0.00    -0.294 N 
ATOM      3  HN  UNK N   1      28.826  20.224  -8.548  1.00  0.00     0.187 HD
HETATM    4  N   UNK N   1      27.045  21.097  -9.232  0.00  0.00    -0.309 N 
HETATM    5  C   UNK N   1      26.375  22.222  -8.874  0.00  0.00     0.139 A 
HETATM    6  C   UNK N   1      27.112  22.829  -7.883  0.00  0.00     0.086 A 
HETATM    7  H   UNK N   1      26.759  20.464  -9.930  0.00  0.00     0.186 HD
ENDROOT
BRANCH   6   8
HETATM    8  N   UNK N   1      26.816  23.956  -7.079  0.00  0.00    -0.319 N 
HETATM    9  C   UNK N   1      25.932  24.084  -6.069  0.00  0.00     0.262 C 
HETATM   10  O   UNK N   1      25.158  23.177  -5.803  0.00  0.00    -0.267 OA
HETATM   11  H   UNK N   1      27.332  24.767  -7.288  0.00  0.00     0.169 HD
BRANCH   9  12
HETATM   12  C   UNK N   1      25.926  25.366  -5.295  0.00  0.00     0.109 A 
HETATM   13  C   UNK N   1      26.338  25.403  -3.945  0.00  0.00     0.135 A 
HETATM   14  F   UNK N   1      26.737  24.278  -3.305  0.00  0.00    -0.205 F 
HETATM   15  C   UNK N   1      26.332  26.612  -3.240  0.00  0.00     0.043 A 
HETATM   16  C   UNK N   1      25.925  27.793  -3.859  0.00  0.00     0.006 A 
HETATM   17  C   UNK N   1      25.520  27.775  -5.191  0.00  0.00     0.043 A 
HETATM   18  C   UNK N   1      25.515  26.580  -5.910  0.00  0.00     0.135 A 
HETATM   19  F   UNK N   1      25.124  26.625  -7.208  0.00  0.00    -0.205 F 
ENDBRANCH   9  12
ENDBRANCH   6   8
BRANCH   1  20
HETATM   20  C   UNK N   1      29.258  22.355  -6.683  0.00  0.00     0.272 C 
HETATM   21  N   UNK N   1      29.928  21.386  -6.008  0.00  0.00    -0.349 N 
HETATM   22  H   UNK N   1      29.716  20.439  -6.173  0.00  0.00     0.163 HD
HETATM   23  O   UNK N   1      29.505  23.532  -6.453  0.00  0.00    -0.266 OA
BRANCH  21  24
HETATM   24  C   UNK N   1      30.958  21.736  -5.042  0.00  0.00     0.102 C 
HETATM   25  C   UNK N   1      32.349  21.534  -5.630  0.00  0.00     0.028 C 
HETATM   26  C   UNK N   1      33.412  21.855  -4.572  0.00  0.00     0.021 C 
HETATM   27  C   UNK N   1      33.157  21.043  -3.298  0.00  0.00     0.114 C 
HETATM   28  N   UNK N   1      31.818  21.311  -2.781  0.00  0.00    -0.419 N 
HETATM   29  C   UNK N   1      30.849  20.865  -3.778  0.00  0.00     0.139 C 
HETATM   30  H   UNK N   1      31.597  21.735  -1.879  0.00  0.00     0.153 HD
ENDBRANCH  21  24
ENDBRANCH   1  20
TORSDOF 4
ENDMDL
MODEL 9
REMARK VINA RESULT:      -6.4     12.730     15.234
REMARK  4 active torsions:
REMARK  status: ('A' for Active; 'I' for Inactive)
REMARK    1  A    between atoms: C_4  and  N_5 
REMARK       I    between atoms: N_5  and  C_6 
REMARK    2  A    between atoms: C_6  and  C_8 
REMARK    3  A    between atoms: C_13  and  N_14 
REMARK       I    between atoms: N_14  and  C_15 
REMARK    4  A    between atoms: C_15  and  C_17 
ROOT
HETATM    1  C   UNK N   1      20.647  17.150   4.619  0.00  0.00     0.144 A 
HETATM    2  N   UNK N   1      19.419  16.971   4.103  0.00  0.00    -0.294 N 
ATOM      3  HN  UNK N   1      18.639  16.498   4.562  1.00  0.00     0.187 HD
HETATM    4  N   UNK N   1      19.397  17.517   2.890  0.00  0.00    -0.309 N 
HETATM    5  C   UNK N   1      20.607  18.072   2.623  0.00  0.00     0.139 A 
HETATM    6  C   UNK N   1      21.405  17.839   3.718  0.00  0.00     0.086 A 
HETATM    7  H   UNK N   1      18.624  17.518   2.281  0.00  0.00     0.186 HD
ENDROOT
BRANCH   6   8
HETATM    8  N   UNK N   1      22.710  18.301   4.017  0.00  0.00    -0.319 N 
HETATM    9  C   UNK N   1      23.901  17.700   3.823  0.00  0.00     0.262 C 
HETATM   10  O   UNK N   1      23.957  16.545   3.429  0.00  0.00    -0.267 OA
HETATM   11  H   UNK N   1      22.755  19.195   4.429  0.00  0.00     0.169 HD
BRANCH   9  12
HETATM   12  C   UNK N   1      25.144  18.487   4.109  0.00  0.00     0.109 A 
HETATM   13  C   UNK N   1      26.082  18.045   5.067  0.00  0.00     0.135 A 
HETATM   14  F   UNK N   1      25.880  16.904   5.768  0.00  0.00    -0.205 F 
HETATM   15  C   UNK N   1      27.239  18.791   5.316  0.00  0.00     0.043 A 
HETATM   16  C   UNK N   1      27.484  19.974   4.620  0.00  0.00     0.006 A 
HETATM   17  C   UNK N   1      26.572  20.423   3.669  0.00  0.00     0.043 A 
HETATM   18  C   UNK N   1      25.410  19.696   3.409  0.00  0.00     0.135 A 
HETATM   19  F   UNK N   1      24.564  20.172   2.462  0.00  0.00    -0.205 F 
ENDBRANCH   9  12
ENDBRANCH   6   8
BRANCH   1  20
HETATM   20  C   UNK N   1      21.145  16.702   5.934  0.00  0.00     0.272 C 
HETATM   21  N   UNK N   1      21.213  15.390   6.275  0.00  0.00    -0.349 N 
HETATM   22  H   UNK N   1      20.923  14.702   5.633  0.00  0.00     0.163 HD
HETATM   23  O   UNK N   1      21.478  17.555   6.747  0.00  0.00    -0.266 OA
BRANCH  21  24
HETATM   24  C   UNK N   1      21.711  14.991   7.582  0.00  0.00     0.102 C 
HETATM   25  C   UNK N   1      22.704  13.842   7.461  0.00  0.00     0.028 C 
HETATM   26  C   UNK N   1      23.167  13.405   8.856  0.00  0.00     0.021 C 
HETATM   27  C   UNK N   1      21.959  13.086   9.743  0.00  0.00     0.114 C 
HETATM   28  N   UNK N   1      21.071  14.242   9.832  0.00  0.00    -0.419 N 
HETATM   29  C   UNK N   1      20.561  14.527   8.494  0.00  0.00     0.139 C 
HETATM   30  H   UNK N   1      20.845  14.759  10.682  0.00  0.00     0.153 HD
ENDBRANCH  21  24
ENDBRANCH   1  20
TORSDOF 4
ENDMDL
