REMARK  4 active torsions:
REMARK  status: ('A' for Active; 'I' for Inactive)
REMARK    1  A    between atoms: C_3  and  N_4 
REMARK       I    between atoms: N_4  and  C_5 
REMARK    2  A    between atoms: C_5  and  C_7 
REMARK    3  A    between atoms: C_12  and  N_13 
REMARK       I    between atoms: N_13  and  C_14 
REMARK    4  A    between atoms: C_14  and  C_16 
ROOT
HETATM    1  C   UNK N   1      17.036   2.535   0.122  0.00  0.00     0.144 A 
HETATM    2  N   UNK N   1      18.177   1.906  -0.201  0.00  0.00    -0.294 N 
ATOM      3  HN  UNK N   1      19.106   2.327  -0.228  1.00  0.00     0.187 HD
HETATM    4  N   UNK N   1      17.886   0.637  -0.482  0.00  0.00    -0.309 N 
HETATM    5  C   UNK N   1      16.551   0.447  -0.364  0.00  0.00     0.139 A 
HETATM    6  C   UNK N   1      15.996   1.649   0.023  0.00  0.00     0.086 A 
HETATM    7  H   UNK N   1      18.540  -0.054  -0.735  0.00  0.00     0.186 HD
ENDROOT
BRANCH   6   8
HETATM    8  N   UNK N   1      14.627   2.007   0.153  0.00  0.00    -0.319 N 
HETATM    9  C   UNK N   1      13.556   1.187   0.047  0.00  0.00     0.259 C 
HETATM   10  O   UNK N   1      13.730  -0.017  -0.066  0.00  0.00    -0.267 OA
HETATM   11  H   UNK N   1      14.438   2.955   0.340  0.00  0.00     0.169 HD
BRANCH   9  12
HETATM   12  C   UNK N   1      12.157   1.766   0.058  0.00  0.00     0.075 A 
HETATM   13  C   UNK N   1      11.011   0.916   0.116  0.00  0.00     0.051 A 
HETATM   14  C   UNK N   1       9.726   1.463   0.117  0.00  0.00     0.025 A 
HETATM   15 Cl   UNK N   1      11.104  -0.840   0.201  0.00  0.00    -0.083 Cl
HETATM   16  C   UNK N   1       9.532   2.836   0.058  0.00  0.00     0.003 A 
HETATM   17  C   UNK N   1      10.626   3.684  -0.008  0.00  0.00     0.025 A 
HETATM   18  C   UNK N   1      11.927   3.181  -0.009  0.00  0.00     0.051 A 
HETATM   19 Cl   UNK N   1      13.189   4.394  -0.146  0.00  0.00    -0.083 Cl
ENDBRANCH   9  12
ENDBRANCH   6   8
BRANCH   1  20
HETATM   20  C   UNK N   1      16.894   3.957   0.481  0.00  0.00     0.272 C 
HETATM   21  N   UNK N   1      17.850   4.866   0.161  0.00  0.00    -0.351 N 
HETATM   22  H   UNK N   1      18.697   4.566  -0.240  0.00  0.00     0.163 HD
HETATM   23  O   UNK N   1      15.869   4.324   1.032  0.00  0.00    -0.266 OA
BRANCH  21  24
HETATM   24  C   UNK N   1      17.627   6.278   0.407  0.00  0.00     0.087 C 
HETATM   25  C   UNK N   1      18.831   7.106  -0.019  0.00  0.00     0.044 C 
HETATM   26  C   UNK N   1      18.520   8.585   0.226  0.00  0.00     0.115 C 
HETATM   27  N   UNK N   1      17.344   8.999  -0.544  0.00  0.00    -0.421 N 
HETATM   28  C   UNK N   1      16.180   8.246  -0.081  0.00  0.00     0.115 C 
HETATM   29  H   UNK N   1      17.339   9.701  -1.284  0.00  0.00     0.153 HD
HETATM   30  C   UNK N   1      16.389   6.764  -0.358  0.00  0.00     0.044 C 
ENDBRANCH  21  24
ENDBRANCH   1  20
TORSDOF 4
