MODEL 1
REMARK VINA RESULT:      -6.8      0.000      0.000
REMARK  4 active torsions:
REMARK  status: ('A' for Active; 'I' for Inactive)
REMARK    1  A    between atoms: C_3  and  N_4 
REMARK       I    between atoms: N_4  and  C_5 
REMARK    2  A    between atoms: C_5  and  C_7 
REMARK    3  A    between atoms: C_12  and  N_13 
REMARK       I    between atoms: N_13  and  C_14 
REMARK    4  A    between atoms: C_14  and  C_16 
ROOT
HETATM    1  C   UNK N   1      34.070  16.623   9.223  0.00  0.00     0.144 A 
HETATM    2  N   UNK N   1      34.813  16.982  10.281  0.00  0.00    -0.294 N 
ATOM      3  HN  UNK N   1      34.665  17.805  10.865  1.00  0.00     0.187 HD
HETATM    4  N   UNK N   1      35.778  16.077  10.436  0.00  0.00    -0.309 N 
HETATM    5  C   UNK N   1      35.675  15.142   9.463  0.00  0.00     0.139 A 
HETATM    6  C   UNK N   1      34.588  15.476   8.682  0.00  0.00     0.086 A 
HETATM    7  H   UNK N   1      36.458  16.087  11.148  0.00  0.00     0.186 HD
ENDROOT
BRANCH   6   8
HETATM    8  N   UNK N   1      34.141  14.893   7.467  0.00  0.00    -0.319 N 
HETATM    9  C   UNK N   1      34.519  15.230   6.212  0.00  0.00     0.259 C 
HETATM   10  O   UNK N   1      35.418  16.043   6.054  0.00  0.00    -0.267 OA
HETATM   11  H   UNK N   1      33.483  14.164   7.546  0.00  0.00     0.169 HD
BRANCH   9  12
HETATM   12  C   UNK N   1      33.823  14.609   5.020  0.00  0.00     0.075 A 
HETATM   13  C   UNK N   1      32.919  15.371   4.218  0.00  0.00     0.051 A 
HETATM   14  C   UNK N   1      32.277  14.783   3.126  0.00  0.00     0.025 A 
HETATM   15 Cl   UNK N   1      32.550  17.067   4.512  0.00  0.00    -0.083 Cl
HETATM   16  C   UNK N   1      32.496  13.453   2.798  0.00  0.00     0.003 A 
HETATM   17  C   UNK N   1      33.361  12.687   3.563  0.00  0.00     0.025 A 
HETATM   18  C   UNK N   1      34.025  13.234   4.661  0.00  0.00     0.051 A 
HETATM   19 Cl   UNK N   1      35.044  12.110   5.545  0.00  0.00    -0.083 Cl
ENDBRANCH   9  12
ENDBRANCH   6   8
BRANCH   1  20
HETATM   20  C   UNK N   1      32.910  17.354   8.682  0.00  0.00     0.272 C 
HETATM   21  N   UNK N   1      31.640  16.923   8.895  0.00  0.00    -0.351 N 
HETATM   22  H   UNK N   1      31.484  16.061   9.343  0.00  0.00     0.163 HD
HETATM   23  O   UNK N   1      33.103  18.395   8.075  0.00  0.00    -0.266 OA
BRANCH  21  24
HETATM   24  C   UNK N   1      30.513  17.730   8.467  0.00  0.00     0.087 C 
HETATM   25  C   UNK N   1      29.980  17.256   7.123  0.00  0.00     0.044 C 
HETATM   26  C   UNK N   1      28.770  18.116   6.745  0.00  0.00     0.115 C 
HETATM   27  N   UNK N   1      27.718  17.999   7.759  0.00  0.00    -0.421 N 
HETATM   28  C   UNK N   1      28.219  18.519   9.030  0.00  0.00     0.115 C 
HETATM   29  H   UNK N   1      26.786  17.617   7.601  0.00  0.00     0.153 HD
HETATM   30  C   UNK N   1      29.385  17.664   9.505  0.00  0.00     0.044 C 
ENDBRANCH  21  24
ENDBRANCH   1  20
TORSDOF 4
ENDMDL
MODEL 2
REMARK VINA RESULT:      -6.8      0.048      1.868
REMARK  4 active torsions:
REMARK  status: ('A' for Active; 'I' for Inactive)
REMARK    1  A    between atoms: C_3  and  N_4 
REMARK       I    between atoms: N_4  and  C_5 
REMARK    2  A    between atoms: C_5  and  C_7 
REMARK    3  A    between atoms: C_12  and  N_13 
REMARK       I    between atoms: N_13  and  C_14 
REMARK    4  A    between atoms: C_14  and  C_16 
ROOT
HETATM    1  C   UNK N   1      34.063  16.629   9.222  0.00  0.00     0.144 A 
HETATM    2  N   UNK N   1      34.806  16.994  10.278  0.00  0.00    -0.294 N 
ATOM      3  HN  UNK N   1      34.654  17.818  10.861  1.00  0.00     0.187 HD
HETATM    4  N   UNK N   1      35.778  16.097  10.432  0.00  0.00    -0.309 N 
HETATM    5  C   UNK N   1      35.680  15.160   9.460  0.00  0.00     0.139 A 
HETATM    6  C   UNK N   1      34.589  15.485   8.682  0.00  0.00     0.086 A 
HETATM    7  H   UNK N   1      36.460  16.113  11.142  0.00  0.00     0.186 HD
ENDROOT
BRANCH   6   8
HETATM    8  N   UNK N   1      34.143  14.896   7.468  0.00  0.00    -0.319 N 
HETATM    9  C   UNK N   1      34.517  15.233   6.212  0.00  0.00     0.259 C 
HETATM   10  O   UNK N   1      35.410  16.051   6.051  0.00  0.00    -0.267 OA
HETATM   11  H   UNK N   1      33.490  14.164   7.551  0.00  0.00     0.169 HD
BRANCH   9  12
HETATM   12  C   UNK N   1      33.822  14.606   5.023  0.00  0.00     0.075 A 
HETATM   13  C   UNK N   1      34.070  13.247   4.660  0.00  0.00     0.051 A 
HETATM   14  C   UNK N   1      33.429  12.683   3.555  0.00  0.00     0.025 A 
HETATM   15 Cl   UNK N   1      35.161  12.186   5.546  0.00  0.00    -0.083 Cl
HETATM   16  C   UNK N   1      32.543  13.424   2.785  0.00  0.00     0.003 A 
HETATM   17  C   UNK N   1      32.290  14.748   3.109  0.00  0.00     0.025 A 
HETATM   18  C   UNK N   1      32.907  15.351   4.205  0.00  0.00     0.051 A 
HETATM   19 Cl   UNK N   1      32.508  17.044   4.440  0.00  0.00    -0.083 Cl
ENDBRANCH   9  12
ENDBRANCH   6   8
BRANCH   1  20
HETATM   20  C   UNK N   1      32.896  17.350   8.683  0.00  0.00     0.272 C 
HETATM   21  N   UNK N   1      31.631  16.903   8.890  0.00  0.00    -0.351 N 
HETATM   22  H   UNK N   1      31.484  16.036   9.331  0.00  0.00     0.163 HD
HETATM   23  O   UNK N   1      33.079  18.397   8.084  0.00  0.00    -0.266 OA
BRANCH  21  24
HETATM   24  C   UNK N   1      30.496  17.699   8.464  0.00  0.00     0.087 C 
HETATM   25  C   UNK N   1      29.954  17.211   7.128  0.00  0.00     0.044 C 
HETATM   26  C   UNK N   1      28.737  18.061   6.754  0.00  0.00     0.115 C 
HETATM   27  N   UNK N   1      27.694  17.947   7.777  0.00  0.00    -0.421 N 
HETATM   28  C   UNK N   1      28.202  18.481   9.039  0.00  0.00     0.115 C 
HETATM   29  H   UNK N   1      26.762  17.559   7.630  0.00  0.00     0.153 HD
HETATM   30  C   UNK N   1      29.377  17.637   9.512  0.00  0.00     0.044 C 
ENDBRANCH  21  24
ENDBRANCH   1  20
TORSDOF 4
ENDMDL
MODEL 3
REMARK VINA RESULT:      -6.6      7.738     11.935
REMARK  4 active torsions:
REMARK  status: ('A' for Active; 'I' for Inactive)
REMARK    1  A    between atoms: C_3  and  N_4 
REMARK       I    between atoms: N_4  and  C_5 
REMARK    2  A    between atoms: C_5  and  C_7 
REMARK    3  A    between atoms: C_12  and  N_13 
REMARK       I    between atoms: N_13  and  C_14 
REMARK    4  A    between atoms: C_14  and  C_16 
ROOT
HETATM    1  C   UNK N   1      22.522  19.011   3.859  0.00  0.00     0.144 A 
HETATM    2  N   UNK N   1      22.322  20.061   3.047  0.00  0.00    -0.294 N 
ATOM      3  HN  UNK N   1      23.049  20.647   2.637  1.00  0.00     0.187 HD
HETATM    4  N   UNK N   1      21.010  20.206   2.872  0.00  0.00    -0.309 N 
HETATM    5  C   UNK N   1      20.355  19.263   3.589  0.00  0.00     0.139 A 
HETATM    6  C   UNK N   1      21.307  18.492   4.223  0.00  0.00     0.086 A 
HETATM    7  H   UNK N   1      20.584  20.891   2.308  0.00  0.00     0.186 HD
ENDROOT
BRANCH   6   8
HETATM    8  N   UNK N   1      21.135  17.464   5.189  0.00  0.00    -0.319 N 
HETATM    9  C   UNK N   1      21.080  17.609   6.533  0.00  0.00     0.259 C 
HETATM   10  O   UNK N   1      21.066  18.731   7.016  0.00  0.00    -0.267 OA
HETATM   11  H   UNK N   1      21.046  16.547   4.841  0.00  0.00     0.169 HD
BRANCH   9  12
HETATM   12  C   UNK N   1      21.049  16.386   7.424  0.00  0.00     0.075 A 
HETATM   13  C   UNK N   1      20.018  16.211   8.396  0.00  0.00     0.051 A 
HETATM   14  C   UNK N   1      20.006  15.082   9.218  0.00  0.00     0.025 A 
HETATM   15 Cl   UNK N   1      18.702  17.356   8.637  0.00  0.00    -0.083 Cl
HETATM   16  C   UNK N   1      20.991  14.110   9.113  0.00  0.00     0.003 A 
HETATM   17  C   UNK N   1      22.008  14.258   8.184  0.00  0.00     0.025 A 
HETATM   18  C   UNK N   1      22.058  15.368   7.342  0.00  0.00     0.051 A 
HETATM   19 Cl   UNK N   1      23.441  15.416   6.262  0.00  0.00    -0.083 Cl
ENDBRANCH   9  12
ENDBRANCH   6   8
BRANCH   1  20
HETATM   20  C   UNK N   1      23.823  18.509   4.334  0.00  0.00     0.272 C 
HETATM   21  N   UNK N   1      24.722  17.957   3.481  0.00  0.00    -0.351 N 
HETATM   22  H   UNK N   1      24.476  17.803   2.541  0.00  0.00     0.163 HD
HETATM   23  O   UNK N   1      24.110  18.644   5.513  0.00  0.00    -0.266 OA
BRANCH  21  24
HETATM   24  C   UNK N   1      26.046  17.592   3.949  0.00  0.00     0.087 C 
HETATM   25  C   UNK N   1      26.641  16.478   3.100  0.00  0.00     0.044 C 
HETATM   26  C   UNK N   1      28.049  16.168   3.616  0.00  0.00     0.115 C 
HETATM   27  N   UNK N   1      28.902  17.356   3.532  0.00  0.00    -0.421 N 
HETATM   28  C   UNK N   1      28.359  18.397   4.403  0.00  0.00     0.115 C 
HETATM   29  H   UNK N   1      29.741  17.442   2.959  0.00  0.00     0.153 HD
HETATM   30  C   UNK N   1      26.981  18.808   3.907  0.00  0.00     0.044 C 
ENDBRANCH  21  24
ENDBRANCH   1  20
TORSDOF 4
ENDMDL
MODEL 4
REMARK VINA RESULT:      -6.6      2.417      6.499
REMARK  4 active torsions:
REMARK  status: ('A' for Active; 'I' for Inactive)
REMARK    1  A    between atoms: C_3  and  N_4 
REMARK       I    between atoms: N_4  and  C_5 
REMARK    2  A    between atoms: C_5  and  C_7 
REMARK    3  A    between atoms: C_12  and  N_13 
REMARK       I    between atoms: N_13  and  C_14 
REMARK    4  A    between atoms: C_14  and  C_16 
ROOT
HETATM    1  C   UNK N   1      33.679  14.885   5.209  0.00  0.00     0.144 A 
HETATM    2  N   UNK N   1      34.195  14.375   4.079  0.00  0.00    -0.294 N 
ATOM      3  HN  UNK N   1      35.188  14.276   3.865  1.00  0.00     0.187 HD
HETATM    4  N   UNK N   1      33.186  14.020   3.285  0.00  0.00    -0.309 N 
HETATM    5  C   UNK N   1      32.013  14.322   3.890  0.00  0.00     0.139 A 
HETATM    6  C   UNK N   1      32.313  14.873   5.119  0.00  0.00     0.086 A 
HETATM    7  H   UNK N   1      33.279  13.604   2.398  0.00  0.00     0.186 HD
ENDROOT
BRANCH   6   8
HETATM    8  N   UNK N   1      31.445  15.470   6.073  0.00  0.00    -0.319 N 
HETATM    9  C   UNK N   1      30.946  16.727   6.047  0.00  0.00     0.259 C 
HETATM   10  O   UNK N   1      31.144  17.432   5.069  0.00  0.00    -0.267 OA
HETATM   11  H   UNK N   1      31.178  14.907   6.835  0.00  0.00     0.169 HD
BRANCH   9  12
HETATM   12  C   UNK N   1      30.159  17.253   7.229  0.00  0.00     0.075 A 
HETATM   13  C   UNK N   1      28.738  17.123   7.281  0.00  0.00     0.051 A 
HETATM   14  C   UNK N   1      28.024  17.619   8.374  0.00  0.00     0.025 A 
HETATM   15 Cl   UNK N   1      27.785  16.341   6.025  0.00  0.00    -0.083 Cl
HETATM   16  C   UNK N   1      28.672  18.251   9.426  0.00  0.00     0.003 A 
HETATM   17  C   UNK N   1      30.049  18.399   9.397  0.00  0.00     0.025 A 
HETATM   18  C   UNK N   1      30.803  17.916   8.327  0.00  0.00     0.051 A 
HETATM   19 Cl   UNK N   1      32.526  18.233   8.433  0.00  0.00    -0.083 Cl
ENDBRANCH   9  12
ENDBRANCH   6   8
BRANCH   1  20
HETATM   20  C   UNK N   1      34.440  15.421   6.351  0.00  0.00     0.272 C 
HETATM   21  N   UNK N   1      34.645  14.683   7.472  0.00  0.00    -0.351 N 
HETATM   22  H   UNK N   1      34.209  13.807   7.569  0.00  0.00     0.163 HD
HETATM   23  O   UNK N   1      34.934  16.533   6.258  0.00  0.00    -0.266 OA
BRANCH  21  24
HETATM   24  C   UNK N   1      35.507  15.182   8.527  0.00  0.00     0.087 C 
HETATM   25  C   UNK N   1      34.691  15.703   9.702  0.00  0.00     0.044 C 
HETATM   26  C   UNK N   1      35.653  16.175  10.796  0.00  0.00     0.115 C 
HETATM   27  N   UNK N   1      36.507  15.072  11.243  0.00  0.00    -0.421 N 
HETATM   28  C   UNK N   1      37.335  14.624  10.125  0.00  0.00     0.115 C 
HETATM   29  H   UNK N   1      36.521  14.680  12.185  0.00  0.00     0.153 HD
HETATM   30  C   UNK N   1      36.444  14.072   9.021  0.00  0.00     0.044 C 
ENDBRANCH  21  24
ENDBRANCH   1  20
TORSDOF 4
ENDMDL
MODEL 5
REMARK VINA RESULT:      -6.6      5.764      9.487
REMARK  4 active torsions:
REMARK  status: ('A' for Active; 'I' for Inactive)
REMARK    1  A    between atoms: C_3  and  N_4 
REMARK       I    between atoms: N_4  and  C_5 
REMARK    2  A    between atoms: C_5  and  C_7 
REMARK    3  A    between atoms: C_12  and  N_13 
REMARK       I    between atoms: N_13  and  C_14 
REMARK    4  A    between atoms: C_14  and  C_16 
ROOT
HETATM    1  C   UNK N   1      26.814  19.071   4.481  0.00  0.00     0.144 A 
HETATM    2  N   UNK N   1      27.385  19.974   3.669  0.00  0.00    -0.294 N 
ATOM      3  HN  UNK N   1      28.386  20.146   3.574  1.00  0.00     0.187 HD
HETATM    4  N   UNK N   1      26.417  20.609   3.009  0.00  0.00    -0.309 N 
HETATM    5  C   UNK N   1      25.215  20.133   3.410  0.00  0.00     0.139 A 
HETATM    6  C   UNK N   1      25.453  19.150   4.348  0.00  0.00     0.086 A 
HETATM    7  H   UNK N   1      26.556  21.312   2.335  0.00  0.00     0.186 HD
ENDROOT
BRANCH   6   8
HETATM    8  N   UNK N   1      24.528  18.441   5.161  0.00  0.00    -0.319 N 
HETATM    9  C   UNK N   1      23.879  17.296   4.849  0.00  0.00     0.259 C 
HETATM   10  O   UNK N   1      24.159  16.709   3.815  0.00  0.00    -0.267 OA
HETATM   11  H   UNK N   1      24.340  18.825   6.048  0.00  0.00     0.169 HD
BRANCH   9  12
HETATM   12  C   UNK N   1      22.807  16.759   5.775  0.00  0.00     0.075 A 
HETATM   13  C   UNK N   1      21.542  17.412   5.890  0.00  0.00     0.051 A 
HETATM   14  C   UNK N   1      20.565  16.911   6.753  0.00  0.00     0.025 A 
HETATM   15 Cl   UNK N   1      21.103  18.852   4.978  0.00  0.00    -0.083 Cl
HETATM   16  C   UNK N   1      20.799  15.777   7.518  0.00  0.00     0.003 A 
HETATM   17  C   UNK N   1      22.021  15.128   7.433  0.00  0.00     0.025 A 
HETATM   18  C   UNK N   1      23.024  15.593   6.582  0.00  0.00     0.051 A 
HETATM   19 Cl   UNK N   1      24.522  14.679   6.637  0.00  0.00    -0.083 Cl
ENDBRANCH   9  12
ENDBRANCH   6   8
BRANCH   1  20
HETATM   20  C   UNK N   1      27.514  18.165   5.409  0.00  0.00     0.272 C 
HETATM   21  N   UNK N   1      28.267  18.644   6.432  0.00  0.00    -0.351 N 
HETATM   22  H   UNK N   1      28.427  19.612   6.511  0.00  0.00     0.163 HD
HETATM   23  O   UNK N   1      27.365  16.961   5.278  0.00  0.00    -0.266 OA
BRANCH  21  24
HETATM   24  C   UNK N   1      28.836  17.735   7.408  0.00  0.00     0.087 C 
HETATM   25  C   UNK N   1      30.320  17.514   7.152  0.00  0.00     0.044 C 
HETATM   26  C   UNK N   1      30.871  16.582   8.235  0.00  0.00     0.115 C 
HETATM   27  N   UNK N   1      30.686  17.170   9.564  0.00  0.00    -0.421 N 
HETATM   28  C   UNK N   1      29.256  17.317   9.827  0.00  0.00     0.115 C 
HETATM   29  H   UNK N   1      31.436  17.435  10.203  0.00  0.00     0.153 HD
HETATM   30  C   UNK N   1      28.650  18.290   8.826  0.00  0.00     0.044 C 
ENDBRANCH  21  24
ENDBRANCH   1  20
TORSDOF 4
ENDMDL
MODEL 6
REMARK VINA RESULT:      -6.5      4.571      6.129
REMARK  4 active torsions:
REMARK  status: ('A' for Active; 'I' for Inactive)
REMARK    1  A    between atoms: C_3  and  N_4 
REMARK       I    between atoms: N_4  and  C_5 
REMARK    2  A    between atoms: C_5  and  C_7 
REMARK    3  A    between atoms: C_12  and  N_13 
REMARK       I    between atoms: N_13  and  C_14 
REMARK    4  A    between atoms: C_14  and  C_16 
ROOT
HETATM    1  C   UNK N   1      35.573  14.518  11.993  0.00  0.00     0.144 A 
HETATM    2  N   UNK N   1      36.401  15.311  12.693  0.00  0.00    -0.294 N 
ATOM      3  HN  UNK N   1      36.767  16.213  12.387  1.00  0.00     0.187 HD
HETATM    4  N   UNK N   1      36.663  14.714  13.854  0.00  0.00    -0.309 N 
HETATM    5  C   UNK N   1      36.024  13.522  13.900  0.00  0.00     0.139 A 
HETATM    6  C   UNK N   1      35.323  13.385  12.720  0.00  0.00     0.086 A 
HETATM    7  H   UNK N   1      37.232  15.084  14.568  0.00  0.00     0.186 HD
ENDROOT
BRANCH   6   8
HETATM    8  N   UNK N   1      34.603  12.263  12.227  0.00  0.00    -0.319 N 
HETATM    9  C   UNK N   1      35.084  11.261  11.456  0.00  0.00     0.259 C 
HETATM   10  O   UNK N   1      36.281  11.208  11.216  0.00  0.00    -0.267 OA
HETATM   11  H   UNK N   1      33.651  12.210  12.473  0.00  0.00     0.169 HD
BRANCH   9  12
HETATM   12  C   UNK N   1      34.138  10.223  10.889  0.00  0.00     0.075 A 
HETATM   13  C   UNK N   1      34.130   8.885  11.388  0.00  0.00     0.051 A 
HETATM   14  C   UNK N   1      33.258   7.936  10.850  0.00  0.00     0.025 A 
HETATM   15 Cl   UNK N   1      35.173   8.326  12.691  0.00  0.00    -0.083 Cl
HETATM   16  C   UNK N   1      32.386   8.266   9.822  0.00  0.00     0.003 A 
HETATM   17  C   UNK N   1      32.379   9.555   9.312  0.00  0.00     0.025 A 
HETATM   18  C   UNK N   1      33.231  10.535   9.821  0.00  0.00     0.051 A 
HETATM   19 Cl   UNK N   1      33.121  12.096   9.025  0.00  0.00    -0.083 Cl
ENDBRANCH   9  12
ENDBRANCH   6   8
BRANCH   1  20
HETATM   20  C   UNK N   1      35.046  14.781  10.643  0.00  0.00     0.272 C 
HETATM   21  N   UNK N   1      33.995  15.617  10.444  0.00  0.00    -0.351 N 
HETATM   22  H   UNK N   1      33.512  15.990  11.217  0.00  0.00     0.163 HD
HETATM   23  O   UNK N   1      35.606  14.273   9.685  0.00  0.00    -0.266 OA
BRANCH  21  24
HETATM   24  C   UNK N   1      33.580  15.962   9.098  0.00  0.00     0.087 C 
HETATM   25  C   UNK N   1      32.114  15.619   8.870  0.00  0.00     0.044 C 
HETATM   26  C   UNK N   1      31.727  16.043   7.451  0.00  0.00     0.115 C 
HETATM   27  N   UNK N   1      31.926  17.484   7.271  0.00  0.00    -0.421 N 
HETATM   28  C   UNK N   1      33.347  17.793   7.425  0.00  0.00     0.115 C 
HETATM   29  H   UNK N   1      31.191  18.162   7.069  0.00  0.00     0.153 HD
HETATM   30  C   UNK N   1      33.789  17.460   8.843  0.00  0.00     0.044 C 
ENDBRANCH  21  24
ENDBRANCH   1  20
TORSDOF 4
ENDMDL
MODEL 7
REMARK VINA RESULT:      -6.5      6.380     10.064
REMARK  4 active torsions:
REMARK  status: ('A' for Active; 'I' for Inactive)
REMARK    1  A    between atoms: C_3  and  N_4 
REMARK       I    between atoms: N_4  and  C_5 
REMARK    2  A    between atoms: C_5  and  C_7 
REMARK    3  A    between atoms: C_12  and  N_13 
REMARK       I    between atoms: N_13  and  C_14 
REMARK    4  A    between atoms: C_14  and  C_16 
ROOT
HETATM    1  C   UNK N   1      25.522  16.995   5.141  0.00  0.00     0.144 A 
HETATM    2  N   UNK N   1      25.685  17.713   4.019  0.00  0.00    -0.294 N 
ATOM      3  HN  UNK N   1      26.567  18.091   3.672  1.00  0.00     0.187 HD
HETATM    4  N   UNK N   1      24.495  17.848   3.436  0.00  0.00    -0.309 N 
HETATM    5  C   UNK N   1      23.554  17.236   4.193  0.00  0.00     0.139 A 
HETATM    6  C   UNK N   1      24.195  16.686   5.283  0.00  0.00     0.086 A 
HETATM    7  H   UNK N   1      24.327  18.318   2.588  0.00  0.00     0.186 HD
ENDROOT
BRANCH   6   8
HETATM    8  N   UNK N   1      23.640  16.058   6.431  0.00  0.00    -0.319 N 
HETATM    9  C   UNK N   1      23.180  14.789   6.524  0.00  0.00     0.259 C 
HETATM   10  O   UNK N   1      23.331  14.025   5.583  0.00  0.00    -0.267 OA
HETATM   11  H   UNK N   1      23.584  16.607   7.246  0.00  0.00     0.169 HD
BRANCH   9  12
HETATM   12  C   UNK N   1      22.475  14.331   7.783  0.00  0.00     0.075 A 
HETATM   13  C   UNK N   1      23.125  13.468   8.717  0.00  0.00     0.051 A 
HETATM   14  C   UNK N   1      22.460  13.047   9.870  0.00  0.00     0.025 A 
HETATM   15 Cl   UNK N   1      24.774  12.883   8.517  0.00  0.00    -0.083 Cl
HETATM   16  C   UNK N   1      21.159  13.450  10.134  0.00  0.00     0.003 A 
HETATM   17  C   UNK N   1      20.500  14.280   9.241  0.00  0.00     0.025 A 
HETATM   18  C   UNK N   1      21.127  14.727   8.078  0.00  0.00     0.051 A 
HETATM   19 Cl   UNK N   1      20.130  15.731   7.039  0.00  0.00    -0.083 Cl
ENDBRANCH   9  12
ENDBRANCH   6   8
BRANCH   1  20
HETATM   20  C   UNK N   1      26.576  16.628   6.104  0.00  0.00     0.272 C 
HETATM   21  N   UNK N   1      27.441  17.552   6.592  0.00  0.00    -0.351 N 
HETATM   22  H   UNK N   1      27.430  18.470   6.236  0.00  0.00     0.163 HD
HETATM   23  O   UNK N   1      26.631  15.476   6.503  0.00  0.00    -0.266 OA
BRANCH  21  24
HETATM   24  C   UNK N   1      28.382  17.193   7.636  0.00  0.00     0.087 C 
HETATM   25  C   UNK N   1      29.818  17.340   7.154  0.00  0.00     0.044 C 
HETATM   26  C   UNK N   1      30.760  16.988   8.309  0.00  0.00     0.115 C 
HETATM   27  N   UNK N   1      30.533  17.879   9.450  0.00  0.00    -0.421 N 
HETATM   28  C   UNK N   1      29.173  17.682   9.947  0.00  0.00     0.115 C 
HETATM   29  H   UNK N   1      31.215  18.532   9.836  0.00  0.00     0.153 HD
HETATM   30  C   UNK N   1      28.174  18.081   8.870  0.00  0.00     0.044 C 
ENDBRANCH  21  24
ENDBRANCH   1  20
TORSDOF 4
ENDMDL
MODEL 8
REMARK VINA RESULT:      -6.5     14.968     17.368
REMARK  4 active torsions:
REMARK  status: ('A' for Active; 'I' for Inactive)
REMARK    1  A    between atoms: C_3  and  N_4 
REMARK       I    between atoms: N_4  and  C_5 
REMARK    2  A    between atoms: C_5  and  C_7 
REMARK    3  A    between atoms: C_12  and  N_13 
REMARK       I    between atoms: N_13  and  C_14 
REMARK    4  A    between atoms: C_14  and  C_16 
ROOT
HETATM    1  C   UNK N   1      25.832  26.402  -5.124  0.00  0.00     0.144 A 
HETATM    2  N   UNK N   1      25.299  27.579  -4.762  0.00  0.00    -0.294 N 
ATOM      3  HN  UNK N   1      24.766  28.207  -5.365  1.00  0.00     0.187 HD
HETATM    4  N   UNK N   1      25.586  27.788  -3.478  0.00  0.00    -0.309 N 
HETATM    5  C   UNK N   1      26.327  26.755  -3.012  0.00  0.00     0.139 A 
HETATM    6  C   UNK N   1      26.490  25.862  -4.051  0.00  0.00     0.086 A 
HETATM    7  H   UNK N   1      25.303  28.570  -2.951  0.00  0.00     0.186 HD
ENDROOT
BRANCH   6   8
HETATM    8  N   UNK N   1      27.292  24.691  -4.112  0.00  0.00    -0.319 N 
HETATM    9  C   UNK N   1      28.614  24.622  -4.395  0.00  0.00     0.259 C 
HETATM   10  O   UNK N   1      29.258  25.653  -4.513  0.00  0.00    -0.267 OA
HETATM   11  H   UNK N   1      26.836  23.838  -3.930  0.00  0.00     0.169 HD
BRANCH   9  12
HETATM   12  C   UNK N   1      29.279  23.273  -4.573  0.00  0.00     0.075 A 
HETATM   13  C   UNK N   1      29.349  22.653  -5.857  0.00  0.00     0.051 A 
HETATM   14  C   UNK N   1      29.957  21.405  -6.006  0.00  0.00     0.025 A 
HETATM   15 Cl   UNK N   1      28.708  23.381  -7.327  0.00  0.00    -0.083 Cl
HETATM   16  C   UNK N   1      30.502  20.739  -4.916  0.00  0.00     0.003 A 
HETATM   17  C   UNK N   1      30.440  21.314  -3.657  0.00  0.00     0.025 A 
HETATM   18  C   UNK N   1      29.844  22.560  -3.463  0.00  0.00     0.051 A 
HETATM   19 Cl   UNK N   1      29.811  23.113  -1.797  0.00  0.00    -0.083 Cl
ENDBRANCH   9  12
ENDBRANCH   6   8
BRANCH   1  20
HETATM   20  C   UNK N   1      25.774  25.792  -6.464  0.00  0.00     0.272 C 
HETATM   21  N   UNK N   1      26.258  26.437  -7.556  0.00  0.00    -0.351 N 
HETATM   22  H   UNK N   1      26.577  27.365  -7.477  0.00  0.00     0.163 HD
HETATM   23  O   UNK N   1      25.325  24.663  -6.576  0.00  0.00    -0.266 OA
BRANCH  21  24
HETATM   24  C   UNK N   1      26.310  25.763  -8.839  0.00  0.00     0.087 C 
HETATM   25  C   UNK N   1      25.138  26.170  -9.721  0.00  0.00     0.044 C 
HETATM   26  C   UNK N   1      25.270  25.460 -11.071  0.00  0.00     0.115 C 
HETATM   27  N   UNK N   1      26.527  25.829 -11.727  0.00  0.00    -0.421 N 
HETATM   28  C   UNK N   1      27.646  25.374 -10.905  0.00  0.00     0.115 C 
HETATM   29  H   UNK N   1      26.607  26.324 -12.615  0.00  0.00     0.153 HD
HETATM   30  C   UNK N   1      27.621  26.094  -9.564  0.00  0.00     0.044 C 
ENDBRANCH  21  24
ENDBRANCH   1  20
TORSDOF 4
ENDMDL
MODEL 9
REMARK VINA RESULT:      -6.4     14.225     16.477
REMARK  4 active torsions:
REMARK  status: ('A' for Active; 'I' for Inactive)
REMARK    1  A    between atoms: C_3  and  N_4 
REMARK       I    between atoms: N_4  and  C_5 
REMARK    2  A    between atoms: C_5  and  C_7 
REMARK    3  A    between atoms: C_12  and  N_13 
REMARK       I    between atoms: N_13  and  C_14 
REMARK    4  A    between atoms: C_14  and  C_16 
ROOT
HETATM    1  C   UNK N   1      26.350  24.526  -6.553  0.00  0.00     0.144 A 
HETATM    2  N   UNK N   1      25.274  24.543  -7.356  0.00  0.00    -0.294 N 
ATOM      3  HN  UNK N   1      24.650  25.336  -7.505  1.00  0.00     0.187 HD
HETATM    4  N   UNK N   1      25.162  23.343  -7.924  0.00  0.00    -0.309 N 
HETATM    5  C   UNK N   1      26.152  22.539  -7.472  0.00  0.00     0.139 A 
HETATM    6  C   UNK N   1      26.919  23.281  -6.598  0.00  0.00     0.086 A 
HETATM    7  H   UNK N   1      24.468  23.083  -8.572  0.00  0.00     0.186 HD
ENDROOT
BRANCH   6   8
HETATM    8  N   UNK N   1      27.990  22.862  -5.762  0.00  0.00    -0.319 N 
HETATM    9  C   UNK N   1      29.314  22.954  -6.025  0.00  0.00     0.259 C 
HETATM   10  O   UNK N   1      29.687  23.549  -7.025  0.00  0.00    -0.267 OA
HETATM   11  H   UNK N   1      27.740  22.460  -4.899  0.00  0.00     0.169 HD
BRANCH   9  12
HETATM   12  C   UNK N   1      30.317  22.314  -5.089  0.00  0.00     0.075 A 
HETATM   13  C   UNK N   1      30.838  23.031  -3.970  0.00  0.00     0.051 A 
HETATM   14  C   UNK N   1      31.769  22.431  -3.119  0.00  0.00     0.025 A 
HETATM   15 Cl   UNK N   1      30.366  24.677  -3.562  0.00  0.00    -0.083 Cl
HETATM   16  C   UNK N   1      32.210  21.134  -3.341  0.00  0.00     0.003 A 
HETATM   17  C   UNK N   1      31.727  20.418  -4.425  0.00  0.00     0.025 A 
HETATM   18  C   UNK N   1      30.795  20.977  -5.298  0.00  0.00     0.051 A 
HETATM   19 Cl   UNK N   1      30.330  19.947  -6.642  0.00  0.00    -0.083 Cl
ENDBRANCH   9  12
ENDBRANCH   6   8
BRANCH   1  20
HETATM   20  C   UNK N   1      26.831  25.637  -5.714  0.00  0.00     0.272 C 
HETATM   21  N   UNK N   1      26.838  26.916  -6.170  0.00  0.00    -0.351 N 
HETATM   22  H   UNK N   1      26.604  27.103  -7.107  0.00  0.00     0.163 HD
HETATM   23  O   UNK N   1      27.179  25.401  -4.569  0.00  0.00    -0.266 OA
BRANCH  21  24
HETATM   24  C   UNK N   1      27.191  28.007  -5.281  0.00  0.00     0.087 C 
HETATM   25  C   UNK N   1      27.755  29.188  -6.059  0.00  0.00     0.044 C 
HETATM   26  C   UNK N   1      28.068  30.318  -5.074  0.00  0.00     0.115 C 
HETATM   27  N   UNK N   1      26.855  30.733  -4.364  0.00  0.00    -0.421 N 
HETATM   28  C   UNK N   1      26.359  29.612  -3.568  0.00  0.00     0.115 C 
HETATM   29  H   UNK N   1      26.427  31.657  -4.417  0.00  0.00     0.153 HD
HETATM   30  C   UNK N   1      25.960  28.469  -4.491  0.00  0.00     0.044 C 
ENDBRANCH  21  24
ENDBRANCH   1  20
TORSDOF 4
ENDMDL
