REMARK  6 active torsions:
REMARK  status: ('A' for Active; 'I' for Inactive)
REMARK    1  A    between atoms: C_6  and  C_7 
REMARK       I    between atoms: C_7  and  N_9 
REMARK    2  A    between atoms: C_10  and  N_9 
REMARK    3  A    between atoms: N_15  and  C_16 
REMARK    4  A    between atoms: C_16  and  C_17 
REMARK       I    between atoms: C_17  and  N_19 
REMARK    5  A    between atoms: N_19  and  C_20 
REMARK    6  A    between atoms: C_25  and  N_27 
ROOT
HETATM    1  C   UNK N   1       3.552  34.994   0.879  0.00  0.00     0.250 C 
HETATM    2  O   UNK N   1       3.856  34.201   1.762  0.00  0.00    -0.271 OA
HETATM    3  N   UNK N   1       2.940  34.550  -0.252  0.00  0.00    -0.323 N 
HETATM    4  H   UNK N   1       2.623  35.190  -0.929  0.00  0.00     0.169 HD
ENDROOT
BRANCH   1   5
HETATM    5  C   UNK N   1       3.792  36.471   1.099  0.00  0.00     0.375 C 
BRANCH   5   6
HETATM    6  N   UNK N   1       5.204  36.863   1.294  0.00  0.00     0.102 N 
HETATM    7  C   UNK N   1       5.991  35.830   1.988  0.00  0.00     0.312 C 
HETATM    8  C   UNK N   1       7.054  35.326   1.032  0.00  0.00     0.222 C 
HETATM    9  C   UNK N   1       6.603  35.854  -0.315  0.00  0.00     0.148 C 
HETATM   10  F   UNK N   1       8.263  35.866   1.424  0.00  0.00    -0.245 F 
HETATM   11  C   UNK N   1       5.843  37.106  -0.000  0.00  0.00     0.301 C 
BRANCH   9  12
HETATM   12  N   UNK N   1       7.688  35.927  -1.281  0.00  0.00    -0.347 N 
HETATM   13  C   UNK N   1       8.837  36.672  -1.289  0.00  0.00     0.259 C 
HETATM   14  O   UNK N   1       9.730  36.310  -2.039  0.00  0.00    -0.267 OA
HETATM   15  H   UNK N   1       7.577  35.341  -2.064  0.00  0.00     0.163 HD
BRANCH  13  16
HETATM   16  C   UNK N   1       9.107  37.889  -0.463  0.00  0.00     0.074 A 
HETATM   17  C   UNK N   1      10.395  38.411  -0.255  0.00  0.00     0.027 A 
HETATM   18  C   UNK N   1      10.405  39.658   0.437  0.00  0.00     0.033 A 
HETATM   19  C   UNK N   1       9.126  40.117   0.742  0.00  0.00     0.075 A 
HETATM   20 Cl   UNK N   1       8.720  41.645   1.495  0.00  0.00    -0.076 Cl
HETATM   21  S   UNK N   1       8.051  38.997   0.181  0.00  0.00    -0.072 SA
ENDBRANCH  13  16
ENDBRANCH   9  12
ENDBRANCH   5   6
ENDBRANCH   1   5
BRANCH   3  22
HETATM   22  C   UNK N   1       2.763  33.156  -0.447  0.00  0.00     0.073 A 
HETATM   23  C   UNK N   1       3.877  32.310  -0.547  0.00  0.00     0.145 A 
HETATM   24  F   UNK N   1       5.131  32.818  -0.595  0.00  0.00    -0.204 F 
HETATM   25  C   UNK N   1       3.707  30.931  -0.535  0.00  0.00     0.074 A 
HETATM   26  C   UNK N   1       2.432  30.358  -0.432  0.00  0.00     0.045 A 
HETATM   27  C   UNK N   1       1.313  31.218  -0.399  0.00  0.00     0.032 A 
HETATM   28  C   UNK N   1       1.479  32.607  -0.405  0.00  0.00     0.035 A 
BRANCH  26  29
HETATM   29  N   UNK N   1       2.261  28.920  -0.257  0.00  0.00    -0.290 N 
HETATM   30  C   UNK N   1       3.342  28.041  -0.143  0.00  0.00     0.252 A 
HETATM   31  O   UNK N   1       4.490  28.432  -0.223  0.00  0.00    -0.268 OA
HETATM   32  C   UNK N   1       3.118  26.682   0.087  0.00  0.00     0.075 A 
HETATM   33  C   UNK N   1       1.821  26.201   0.203  0.00  0.00     0.007 A 
HETATM   34  C   UNK N   1       0.749  27.077   0.086  0.00  0.00     0.018 A 
HETATM   35  C   UNK N   1       0.990  28.432  -0.141  0.00  0.00     0.100 A 
ENDBRANCH  26  29
ENDBRANCH   3  22
TORSDOF 6
