MODEL 1
REMARK VINA RESULT:      -8.3      0.000      0.000
REMARK  6 active torsions:
REMARK  status: ('A' for Active; 'I' for Inactive)
REMARK    1  A    between atoms: C_6  and  C_7 
REMARK       I    between atoms: C_7  and  N_9 
REMARK    2  A    between atoms: C_10  and  N_9 
REMARK    3  A    between atoms: N_15  and  C_16 
REMARK    4  A    between atoms: C_16  and  C_17 
REMARK       I    between atoms: C_17  and  N_19 
REMARK    5  A    between atoms: N_19  and  C_20 
REMARK    6  A    between atoms: C_25  and  N_27 
ROOT
HETATM    1  C   UNK N   1      34.982  12.020  10.866  0.00  0.00     0.250 C 
HETATM    2  O   UNK N   1      35.808  11.123  10.985  0.00  0.00    -0.271 OA
HETATM    3  N   UNK N   1      34.529  12.677  11.967  0.00  0.00    -0.323 N 
HETATM    4  H   UNK N   1      33.926  13.449  11.871  0.00  0.00     0.169 HD
ENDROOT
BRANCH   1   5
HETATM    5  C   UNK N   1      34.538  12.434   9.481  0.00  0.00     0.375 C 
BRANCH   5   6
HETATM    6  N   UNK N   1      35.535  13.191   8.694  0.00  0.00     0.102 N 
HETATM    7  C   UNK N   1      35.230  13.207   7.254  0.00  0.00     0.312 C 
HETATM    8  C   UNK N   1      34.944  14.639   6.848  0.00  0.00     0.222 C 
HETATM    9  C   UNK N   1      34.751  15.353   8.171  0.00  0.00     0.148 C 
HETATM   10  F   UNK N   1      36.044  15.110   6.159  0.00  0.00    -0.245 F 
HETATM   11  C   UNK N   1      35.584  14.582   9.147  0.00  0.00     0.301 C 
BRANCH   9  12
HETATM   12  N   UNK N   1      34.956  16.790   8.068  0.00  0.00    -0.347 N 
HETATM   13  C   UNK N   1      34.061  17.823   7.992  0.00  0.00     0.259 C 
HETATM   14  O   UNK N   1      34.479  18.942   8.245  0.00  0.00    -0.267 OA
HETATM   15  H   UNK N   1      35.900  17.066   8.049  0.00  0.00     0.163 HD
BRANCH  13  16
HETATM   16  C   UNK N   1      32.613  17.714   7.631  0.00  0.00     0.074 A 
HETATM   17  C   UNK N   1      32.161  17.225   6.394  0.00  0.00     0.027 A 
HETATM   18  C   UNK N   1      30.745  17.068   6.321  0.00  0.00     0.033 A 
HETATM   19  C   UNK N   1      30.102  17.408   7.508  0.00  0.00     0.075 A 
HETATM   20 Cl   UNK N   1      28.390  17.258   7.845  0.00  0.00    -0.076 Cl
HETATM   21  S   UNK N   1      31.261  17.896   8.578  0.00  0.00    -0.072 SA
ENDBRANCH  13  16
ENDBRANCH   9  12
ENDBRANCH   5   6
ENDBRANCH   1   5
BRANCH   3  22
HETATM   22  C   UNK N   1      34.934  12.241  13.255  0.00  0.00     0.073 A 
HETATM   23  C   UNK N   1      36.023  12.849  13.896  0.00  0.00     0.145 A 
HETATM   24  F   UNK N   1      36.786  13.762  13.251  0.00  0.00    -0.204 F 
HETATM   25  C   UNK N   1      36.293  12.564  15.229  0.00  0.00     0.074 A 
HETATM   26  C   UNK N   1      35.497  11.666  15.955  0.00  0.00     0.045 A 
HETATM   27  C   UNK N   1      34.445  11.010  15.281  0.00  0.00     0.032 A 
HETATM   28  C   UNK N   1      34.165  11.298  13.941  0.00  0.00     0.035 A 
BRANCH  26  29
HETATM   29  N   UNK N   1      35.677  11.487  17.391  0.00  0.00    -0.290 N 
HETATM   30  C   UNK N   1      35.280  12.448  18.326  0.00  0.00     0.252 A 
HETATM   31  O   UNK N   1      34.794  13.507  17.981  0.00  0.00    -0.268 OA
HETATM   32  C   UNK N   1      35.419  12.195  19.692  0.00  0.00     0.075 A 
HETATM   33  C   UNK N   1      35.952  10.989  20.125  0.00  0.00     0.007 A 
HETATM   34  C   UNK N   1      36.349  10.038  19.193  0.00  0.00     0.018 A 
HETATM   35  C   UNK N   1      36.201  10.305  17.832  0.00  0.00     0.100 A 
ENDBRANCH  26  29
ENDBRANCH   3  22
TORSDOF 6
ENDMDL
MODEL 2
REMARK VINA RESULT:      -8.1      1.748      2.000
REMARK  6 active torsions:
REMARK  status: ('A' for Active; 'I' for Inactive)
REMARK    1  A    between atoms: C_6  and  C_7 
REMARK       I    between atoms: C_7  and  N_9 
REMARK    2  A    between atoms: C_10  and  N_9 
REMARK    3  A    between atoms: N_15  and  C_16 
REMARK    4  A    between atoms: C_16  and  C_17 
REMARK       I    between atoms: C_17  and  N_19 
REMARK    5  A    between atoms: N_19  and  C_20 
REMARK    6  A    between atoms: C_25  and  N_27 
ROOT
HETATM    1  C   UNK N   1      35.371  13.225  10.755  0.00  0.00     0.250 C 
HETATM    2  O   UNK N   1      36.443  12.643  10.872  0.00  0.00    -0.271 OA
HETATM    3  N   UNK N   1      34.623  13.500  11.858  0.00  0.00    -0.323 N 
HETATM    4  H   UNK N   1      33.801  14.036  11.779  0.00  0.00     0.169 HD
ENDROOT
BRANCH   1   5
HETATM    5  C   UNK N   1      34.936  13.702   9.387  0.00  0.00     0.375 C 
BRANCH   5   6
HETATM    6  N   UNK N   1      35.241  15.115   9.080  0.00  0.00     0.102 N 
HETATM    7  C   UNK N   1      35.167  15.413   7.640  0.00  0.00     0.312 C 
HETATM    8  C   UNK N   1      34.038  16.400   7.420  0.00  0.00     0.222 C 
HETATM    9  C   UNK N   1      33.269  16.360   8.726  0.00  0.00     0.148 C 
HETATM   10  F   UNK N   1      34.601  17.639   7.186  0.00  0.00    -0.245 F 
HETATM   11  C   UNK N   1      34.291  15.996   9.760  0.00  0.00     0.301 C 
BRANCH   9  12
HETATM   12  N   UNK N   1      32.463  17.552   8.939  0.00  0.00    -0.347 N 
HETATM   13  C   UNK N   1      31.226  17.898   8.464  0.00  0.00     0.259 C 
HETATM   14  O   UNK N   1      30.636  18.793   9.048  0.00  0.00    -0.267 OA
HETATM   15  H   UNK N   1      32.878  18.225   9.525  0.00  0.00     0.163 HD
BRANCH  13  16
HETATM   16  C   UNK N   1      30.525  17.283   7.295  0.00  0.00     0.074 A 
HETATM   17  C   UNK N   1      29.163  16.935   7.308  0.00  0.00     0.027 A 
HETATM   18  C   UNK N   1      28.668  16.504   6.041  0.00  0.00     0.033 A 
HETATM   19  C   UNK N   1      29.636  16.544   5.041  0.00  0.00     0.075 A 
HETATM   20 Cl   UNK N   1      29.395  16.189   3.343  0.00  0.00    -0.076 Cl
HETATM   21  S   UNK N   1      31.038  17.078   5.729  0.00  0.00    -0.072 SA
ENDBRANCH  13  16
ENDBRANCH   9  12
ENDBRANCH   5   6
ENDBRANCH   1   5
BRANCH   3  22
HETATM   22  C   UNK N   1      35.038  13.007  13.122  0.00  0.00     0.073 A 
HETATM   23  C   UNK N   1      35.866  13.783  13.945  0.00  0.00     0.145 A 
HETATM   24  F   UNK N   1      36.392  14.948  13.498  0.00  0.00    -0.204 F 
HETATM   25  C   UNK N   1      36.107  13.393  15.256  0.00  0.00     0.074 A 
HETATM   26  C   UNK N   1      35.541  12.223  15.781  0.00  0.00     0.045 A 
HETATM   27  C   UNK N   1      34.762  11.415  14.924  0.00  0.00     0.032 A 
HETATM   28  C   UNK N   1      34.512  11.806  13.605  0.00  0.00     0.035 A 
BRANCH  26  29
HETATM   29  N   UNK N   1      35.658  11.895  17.197  0.00  0.00    -0.290 N 
HETATM   30  C   UNK N   1      35.263  12.775  18.210  0.00  0.00     0.252 A 
HETATM   31  O   UNK N   1      34.834  13.883  17.956  0.00  0.00    -0.268 OA
HETATM   32  C   UNK N   1      35.340  12.382  19.547  0.00  0.00     0.075 A 
HETATM   33  C   UNK N   1      35.808  11.117  19.875  0.00  0.00     0.007 A 
HETATM   34  C   UNK N   1      36.202  10.246  18.866  0.00  0.00     0.018 A 
HETATM   35  C   UNK N   1      36.117  10.653  17.535  0.00  0.00     0.100 A 
ENDBRANCH  26  29
ENDBRANCH   3  22
TORSDOF 6
ENDMDL
MODEL 3
REMARK VINA RESULT:      -8.0      2.241      3.156
REMARK  6 active torsions:
REMARK  status: ('A' for Active; 'I' for Inactive)
REMARK    1  A    between atoms: C_6  and  C_7 
REMARK       I    between atoms: C_7  and  N_9 
REMARK    2  A    between atoms: C_10  and  N_9 
REMARK    3  A    between atoms: N_15  and  C_16 
REMARK    4  A    between atoms: C_16  and  C_17 
REMARK       I    between atoms: C_17  and  N_19 
REMARK    5  A    between atoms: N_19  and  C_20 
REMARK    6  A    between atoms: C_25  and  N_27 
ROOT
HETATM    1  C   UNK N   1      35.625  13.684  13.738  0.00  0.00     0.250 C 
HETATM    2  O   UNK N   1      34.580  13.047  13.671  0.00  0.00    -0.271 OA
HETATM    3  N   UNK N   1      36.467  13.499  14.791  0.00  0.00    -0.323 N 
HETATM    4  H   UNK N   1      37.342  13.948  14.811  0.00  0.00     0.169 HD
ENDROOT
BRANCH   1   5
HETATM    5  C   UNK N   1      35.999  14.611  12.603  0.00  0.00     0.375 C 
BRANCH   5   6
HETATM    6  N   UNK N   1      36.825  14.008  11.536  0.00  0.00     0.102 N 
HETATM    7  C   UNK N   1      36.446  12.616  11.241  0.00  0.00     0.312 C 
HETATM    8  C   UNK N   1      35.923  12.562   9.819  0.00  0.00     0.222 C 
HETATM    9  C   UNK N   1      35.693  14.018   9.467  0.00  0.00     0.148 C 
HETATM   10  F   UNK N   1      36.900  11.984   9.032  0.00  0.00    -0.245 F 
HETATM   11  C   UNK N   1      36.686  14.773  10.297  0.00  0.00     0.301 C 
BRANCH   9  12
HETATM   12  N   UNK N   1      35.671  14.251   8.031  0.00  0.00    -0.347 N 
HETATM   13  C   UNK N   1      35.163  15.289   7.296  0.00  0.00     0.259 C 
HETATM   14  O   UNK N   1      35.560  15.405   6.148  0.00  0.00    -0.267 OA
HETATM   15  H   UNK N   1      36.092  13.541   7.496  0.00  0.00     0.163 HD
BRANCH  13  16
HETATM   16  C   UNK N   1      34.166  16.300   7.766  0.00  0.00     0.074 A 
HETATM   17  C   UNK N   1      34.394  17.686   7.724  0.00  0.00     0.027 A 
HETATM   18  C   UNK N   1      33.255  18.467   8.080  0.00  0.00     0.033 A 
HETATM   19  C   UNK N   1      32.136  17.690   8.371  0.00  0.00     0.075 A 
HETATM   20 Cl   UNK N   1      30.531  18.276   8.752  0.00  0.00    -0.076 Cl
HETATM   21  S   UNK N   1      32.576  16.107   8.203  0.00  0.00    -0.072 SA
ENDBRANCH  13  16
ENDBRANCH   9  12
ENDBRANCH   5   6
ENDBRANCH   1   5
BRANCH   3  22
HETATM   22  C   UNK N   1      36.072  12.653  15.859  0.00  0.00     0.073 A 
HETATM   23  C   UNK N   1      36.480  11.312  15.885  0.00  0.00     0.145 A 
HETATM   24  F   UNK N   1      37.140  10.767  14.835  0.00  0.00    -0.204 F 
HETATM   25  C   UNK N   1      36.266  10.541  17.021  0.00  0.00     0.074 A 
HETATM   26  C   UNK N   1      35.636  11.076  18.153  0.00  0.00     0.045 A 
HETATM   27  C   UNK N   1      35.169  12.407  18.091  0.00  0.00     0.032 A 
HETATM   28  C   UNK N   1      35.387  13.189  16.952  0.00  0.00     0.035 A 
BRANCH  26  29
HETATM   29  N   UNK N   1      35.554  10.324  19.400  0.00  0.00    -0.290 N 
HETATM   30  C   UNK N   1      34.559   9.372  19.641  0.00  0.00     0.252 A 
HETATM   31  O   UNK N   1      33.681   9.150  18.830  0.00  0.00    -0.268 OA
HETATM   32  C   UNK N   1      34.567   8.636  20.828  0.00  0.00     0.075 A 
HETATM   33  C   UNK N   1      35.564   8.848  21.771  0.00  0.00     0.007 A 
HETATM   34  C   UNK N   1      36.550   9.797  21.528  0.00  0.00     0.018 A 
HETATM   35  C   UNK N   1      36.529  10.522  20.337  0.00  0.00     0.100 A 
ENDBRANCH  26  29
ENDBRANCH   3  22
TORSDOF 6
ENDMDL
MODEL 4
REMARK VINA RESULT:      -7.9      4.697      7.665
REMARK  6 active torsions:
REMARK  status: ('A' for Active; 'I' for Inactive)
REMARK    1  A    between atoms: C_6  and  C_7 
REMARK       I    between atoms: C_7  and  N_9 
REMARK    2  A    between atoms: C_10  and  N_9 
REMARK    3  A    between atoms: N_15  and  C_16 
REMARK    4  A    between atoms: C_16  and  C_17 
REMARK       I    between atoms: C_17  and  N_19 
REMARK    5  A    between atoms: N_19  and  C_20 
REMARK    6  A    between atoms: C_25  and  N_27 
ROOT
HETATM    1  C   UNK N   1      30.079  17.923   8.446  0.00  0.00     0.250 C 
HETATM    2  O   UNK N   1      29.950  17.312   9.501  0.00  0.00    -0.271 OA
HETATM    3  N   UNK N   1      31.191  17.738   7.685  0.00  0.00    -0.323 N 
HETATM    4  H   UNK N   1      31.265  18.164   6.801  0.00  0.00     0.169 HD
ENDROOT
BRANCH   1   5
HETATM    5  C   UNK N   1      28.955  18.816   7.969  0.00  0.00     0.375 C 
BRANCH   5   6
HETATM    6  N   UNK N   1      27.963  18.169   7.083  0.00  0.00     0.102 N 
HETATM    7  C   UNK N   1      27.204  19.139   6.276  0.00  0.00     0.312 C 
HETATM    8  C   UNK N   1      27.536  18.900   4.817  0.00  0.00     0.222 C 
HETATM    9  C   UNK N   1      28.764  18.013   4.870  0.00  0.00     0.148 C 
HETATM   10  F   UNK N   1      26.458  18.260   4.239  0.00  0.00    -0.245 F 
HETATM   11  C   UNK N   1      28.634  17.257   6.157  0.00  0.00     0.301 C 
BRANCH   9  12
HETATM   12  N   UNK N   1      28.967  17.261   3.642  0.00  0.00    -0.347 N 
HETATM   13  C   UNK N   1      30.015  16.484   3.225  0.00  0.00     0.259 C 
HETATM   14  O   UNK N   1      29.801  15.704   2.310  0.00  0.00    -0.267 OA
HETATM   15  H   UNK N   1      28.224  17.321   2.999  0.00  0.00     0.163 HD
BRANCH  13  16
HETATM   16  C   UNK N   1      31.401  16.495   3.786  0.00  0.00     0.074 A 
HETATM   17  C   UNK N   1      32.115  17.675   4.057  0.00  0.00     0.027 A 
HETATM   18  C   UNK N   1      33.355  17.455   4.726  0.00  0.00     0.033 A 
HETATM   19  C   UNK N   1      33.591  16.110   5.000  0.00  0.00     0.075 A 
HETATM   20 Cl   UNK N   1      34.947  15.451   5.890  0.00  0.00    -0.076 Cl
HETATM   21  S   UNK N   1      32.309  15.253   4.411  0.00  0.00    -0.072 SA
ENDBRANCH  13  16
ENDBRANCH   9  12
ENDBRANCH   5   6
ENDBRANCH   1   5
BRANCH   3  22
HETATM   22  C   UNK N   1      32.245  16.925   8.177  0.00  0.00     0.073 A 
HETATM   23  C   UNK N   1      33.461  17.504   8.566  0.00  0.00     0.145 A 
HETATM   24  F   UNK N   1      33.701  18.819   8.354  0.00  0.00    -0.204 F 
HETATM   25  C   UNK N   1      34.414  16.742   9.232  0.00  0.00     0.074 A 
HETATM   26  C   UNK N   1      34.188  15.390   9.521  0.00  0.00     0.045 A 
HETATM   27  C   UNK N   1      32.988  14.800   9.067  0.00  0.00     0.032 A 
HETATM   28  C   UNK N   1      32.024  15.563   8.401  0.00  0.00     0.035 A 
BRANCH  26  29
HETATM   29  N   UNK N   1      35.111  14.631  10.358  0.00  0.00    -0.290 N 
HETATM   30  C   UNK N   1      36.262  14.022   9.849  0.00  0.00     0.252 A 
HETATM   31  O   UNK N   1      36.532  14.063   8.665  0.00  0.00    -0.268 OA
HETATM   32  C   UNK N   1      37.143  13.362  10.709  0.00  0.00     0.075 A 
HETATM   33  C   UNK N   1      36.877  13.310  12.070  0.00  0.00     0.007 A 
HETATM   34  C   UNK N   1      35.731  13.914  12.572  0.00  0.00     0.018 A 
HETATM   35  C   UNK N   1      34.863  14.571  11.700  0.00  0.00     0.100 A 
ENDBRANCH  26  29
ENDBRANCH   3  22
TORSDOF 6
ENDMDL
MODEL 5
REMARK VINA RESULT:      -7.9      4.496     11.230
REMARK  6 active torsions:
REMARK  status: ('A' for Active; 'I' for Inactive)
REMARK    1  A    between atoms: C_6  and  C_7 
REMARK       I    between atoms: C_7  and  N_9 
REMARK    2  A    between atoms: C_10  and  N_9 
REMARK    3  A    between atoms: N_15  and  C_16 
REMARK    4  A    between atoms: C_16  and  C_17 
REMARK       I    between atoms: C_17  and  N_19 
REMARK    5  A    between atoms: N_19  and  C_20 
REMARK    6  A    between atoms: C_25  and  N_27 
ROOT
HETATM    1  C   UNK N   1      32.600  17.278   8.403  0.00  0.00     0.250 C 
HETATM    2  O   UNK N   1      32.754  17.794   7.303  0.00  0.00    -0.271 OA
HETATM    3  N   UNK N   1      31.357  16.906   8.812  0.00  0.00    -0.323 N 
HETATM    4  H   UNK N   1      31.238  16.421   9.660  0.00  0.00     0.169 HD
ENDROOT
BRANCH   1   5
HETATM    5  C   UNK N   1      33.814  16.991   9.259  0.00  0.00     0.375 C 
BRANCH   5   6
HETATM    6  N   UNK N   1      33.938  15.598   9.739  0.00  0.00     0.102 N 
HETATM    7  C   UNK N   1      33.971  14.619   8.640  0.00  0.00     0.312 C 
HETATM    8  C   UNK N   1      35.327  13.942   8.653  0.00  0.00     0.222 C 
HETATM    9  C   UNK N   1      36.159  14.826   9.560  0.00  0.00     0.148 C 
HETATM   10  F   UNK N   1      35.160  12.674   9.172  0.00  0.00    -0.245 F 
HETATM   11  C   UNK N   1      35.173  15.438  10.507  0.00  0.00     0.301 C 
BRANCH   9  12
HETATM   12  N   UNK N   1      37.313  14.134  10.114  0.00  0.00    -0.347 N 
HETATM   13  C   UNK N   1      37.423  13.275  11.175  0.00  0.00     0.259 C 
HETATM   14  O   UNK N   1      38.427  12.582  11.228  0.00  0.00    -0.267 OA
HETATM   15  H   UNK N   1      38.159  14.314   9.645  0.00  0.00     0.163 HD
BRANCH  13  16
HETATM   16  C   UNK N   1      36.429  13.102  12.279  0.00  0.00     0.074 A 
HETATM   17  C   UNK N   1      35.455  12.089  12.288  0.00  0.00     0.027 A 
HETATM   18  C   UNK N   1      34.713  12.017  13.504  0.00  0.00     0.033 A 
HETATM   19  C   UNK N   1      35.128  12.953  14.447  0.00  0.00     0.075 A 
HETATM   20 Cl   UNK N   1      34.534  13.114  16.086  0.00  0.00    -0.076 Cl
HETATM   21  S   UNK N   1      36.352  13.830  13.769  0.00  0.00    -0.072 SA
ENDBRANCH  13  16
ENDBRANCH   9  12
ENDBRANCH   5   6
ENDBRANCH   1   5
BRANCH   3  22
HETATM   22  C   UNK N   1      30.234  17.223   8.005  0.00  0.00     0.073 A 
HETATM   23  C   UNK N   1      29.408  18.306   8.338  0.00  0.00     0.145 A 
HETATM   24  F   UNK N   1      29.584  18.980   9.499  0.00  0.00    -0.204 F 
HETATM   25  C   UNK N   1      28.435  18.739   7.446  0.00  0.00     0.074 A 
HETATM   26  C   UNK N   1      28.251  18.107   6.209  0.00  0.00     0.045 A 
HETATM   27  C   UNK N   1      29.043  16.977   5.912  0.00  0.00     0.032 A 
HETATM   28  C   UNK N   1      30.028  16.540   6.804  0.00  0.00     0.035 A 
BRANCH  26  29
HETATM   29  N   UNK N   1      27.345  18.656   5.206  0.00  0.00    -0.290 N 
HETATM   30  C   UNK N   1      26.116  18.066   4.899  0.00  0.00     0.252 A 
HETATM   31  O   UNK N   1      25.755  17.034   5.431  0.00  0.00    -0.268 OA
HETATM   32  C   UNK N   1      25.261  18.671   3.975  0.00  0.00     0.075 A 
HETATM   33  C   UNK N   1      25.630  19.860   3.361  0.00  0.00     0.007 A 
HETATM   34  C   UNK N   1      26.854  20.441   3.667  0.00  0.00     0.018 A 
HETATM   35  C   UNK N   1      27.695  19.825   4.593  0.00  0.00     0.100 A 
ENDBRANCH  26  29
ENDBRANCH   3  22
TORSDOF 6
ENDMDL
MODEL 6
REMARK VINA RESULT:      -7.8      2.882      3.207
REMARK  6 active torsions:
REMARK  status: ('A' for Active; 'I' for Inactive)
REMARK    1  A    between atoms: C_6  and  C_7 
REMARK       I    between atoms: C_7  and  N_9 
REMARK    2  A    between atoms: C_10  and  N_9 
REMARK    3  A    between atoms: N_15  and  C_16 
REMARK    4  A    between atoms: C_16  and  C_17 
REMARK       I    between atoms: C_17  and  N_19 
REMARK    5  A    between atoms: N_19  and  C_20 
REMARK    6  A    between atoms: C_25  and  N_27 
ROOT
HETATM    1  C   UNK N   1      34.764  13.472  11.354  0.00  0.00     0.250 C 
HETATM    2  O   UNK N   1      34.608  14.296  12.248  0.00  0.00    -0.271 OA
HETATM    3  N   UNK N   1      35.043  12.177  11.664  0.00  0.00    -0.323 N 
HETATM    4  H   UNK N   1      35.092  11.497  10.956  0.00  0.00     0.169 HD
ENDROOT
BRANCH   1   5
HETATM    5  C   UNK N   1      34.564  13.897   9.916  0.00  0.00     0.375 C 
BRANCH   5   6
HETATM    6  N   UNK N   1      34.001  15.250   9.726  0.00  0.00     0.102 N 
HETATM    7  C   UNK N   1      34.673  16.001   8.653  0.00  0.00     0.312 C 
HETATM    8  C   UNK N   1      33.664  16.251   7.550  0.00  0.00     0.222 C 
HETATM    9  C   UNK N   1      32.523  15.313   7.889  0.00  0.00     0.148 C 
HETATM   10  F   UNK N   1      33.284  17.577   7.619  0.00  0.00    -0.245 F 
HETATM   11  C   UNK N   1      32.582  15.162   9.378  0.00  0.00     0.301 C 
BRANCH   9  12
HETATM   12  N   UNK N   1      31.264  15.718   7.283  0.00  0.00    -0.347 N 
HETATM   13  C   UNK N   1      30.846  15.700   5.979  0.00  0.00     0.259 C 
HETATM   14  O   UNK N   1      29.644  15.781   5.779  0.00  0.00    -0.267 OA
HETATM   15  H   UNK N   1      30.598  16.065   7.920  0.00  0.00     0.163 HD
BRANCH  13  16
HETATM   16  C   UNK N   1      31.721  15.588   4.772  0.00  0.00     0.074 A 
HETATM   17  C   UNK N   1      32.132  16.696   4.011  0.00  0.00     0.027 A 
HETATM   18  C   UNK N   1      33.083  16.375   2.997  0.00  0.00     0.033 A 
HETATM   19  C   UNK N   1      33.429  15.026   2.988  0.00  0.00     0.075 A 
HETATM   20 Cl   UNK N   1      34.629  14.266   1.964  0.00  0.00    -0.076 Cl
HETATM   21  S   UNK N   1      32.567  14.285   4.185  0.00  0.00    -0.072 SA
ENDBRANCH  13  16
ENDBRANCH   9  12
ENDBRANCH   5   6
ENDBRANCH   1   5
BRANCH   3  22
HETATM   22  C   UNK N   1      35.263  11.817  13.019  0.00  0.00     0.073 A 
HETATM   23  C   UNK N   1      36.491  12.102  13.635  0.00  0.00     0.145 A 
HETATM   24  F   UNK N   1      37.527  12.598  12.919  0.00  0.00    -0.204 F 
HETATM   25  C   UNK N   1      36.636  11.935  15.006  0.00  0.00     0.074 A 
HETATM   26  C   UNK N   1      35.575  11.475  15.798  0.00  0.00     0.045 A 
HETATM   27  C   UNK N   1      34.365  11.129  15.159  0.00  0.00     0.032 A 
HETATM   28  C   UNK N   1      34.211  11.300  13.779  0.00  0.00     0.035 A 
BRANCH  26  29
HETATM   29  N   UNK N   1      35.672  11.452  17.253  0.00  0.00    -0.290 N 
HETATM   30  C   UNK N   1      35.251  12.518  18.054  0.00  0.00     0.252 A 
HETATM   31  O   UNK N   1      34.813  13.543  17.568  0.00  0.00    -0.268 OA
HETATM   32  C   UNK N   1      35.309  12.415  19.445  0.00  0.00     0.075 A 
HETATM   33  C   UNK N   1      35.785  11.252  20.036  0.00  0.00     0.007 A 
HETATM   34  C   UNK N   1      36.205  10.196  19.238  0.00  0.00     0.018 A 
HETATM   35  C   UNK N   1      36.139  10.315  17.850  0.00  0.00     0.100 A 
ENDBRANCH  26  29
ENDBRANCH   3  22
TORSDOF 6
ENDMDL
MODEL 7
REMARK VINA RESULT:      -7.7      2.359      3.451
REMARK  6 active torsions:
REMARK  status: ('A' for Active; 'I' for Inactive)
REMARK    1  A    between atoms: C_6  and  C_7 
REMARK       I    between atoms: C_7  and  N_9 
REMARK    2  A    between atoms: C_10  and  N_9 
REMARK    3  A    between atoms: N_15  and  C_16 
REMARK    4  A    between atoms: C_16  and  C_17 
REMARK       I    between atoms: C_17  and  N_19 
REMARK    5  A    between atoms: N_19  and  C_20 
REMARK    6  A    between atoms: C_25  and  N_27 
ROOT
HETATM    1  C   UNK N   1      35.995  13.507  14.583  0.00  0.00     0.250 C 
HETATM    2  O   UNK N   1      37.129  13.506  15.046  0.00  0.00    -0.271 OA
HETATM    3  N   UNK N   1      34.963  13.003  15.313  0.00  0.00    -0.323 N 
HETATM    4  H   UNK N   1      34.039  13.072  14.980  0.00  0.00     0.169 HD
ENDROOT
BRANCH   1   5
HETATM    5  C   UNK N   1      35.748  14.145  13.234  0.00  0.00     0.375 C 
BRANCH   5   6
HETATM    6  N   UNK N   1      36.143  13.331  12.065  0.00  0.00     0.102 N 
HETATM    7  C   UNK N   1      35.076  12.418  11.621  0.00  0.00     0.312 C 
HETATM    8  C   UNK N   1      34.646  12.838  10.228  0.00  0.00     0.222 C 
HETATM    9  C   UNK N   1      35.256  14.216  10.067  0.00  0.00     0.148 C 
HETATM   10  F   UNK N   1      35.173  11.928   9.333  0.00  0.00    -0.245 F 
HETATM   11  C   UNK N   1      36.476  14.199  10.935  0.00  0.00     0.301 C 
BRANCH   9  12
HETATM   12  N   UNK N   1      35.403  14.604   8.673  0.00  0.00    -0.347 N 
HETATM   13  C   UNK N   1      34.795  15.591   7.944  0.00  0.00     0.259 C 
HETATM   14  O   UNK N   1      35.329  15.919   6.896  0.00  0.00    -0.267 OA
HETATM   15  H   UNK N   1      36.051  14.064   8.165  0.00  0.00     0.163 HD
BRANCH  13  16
HETATM   16  C   UNK N   1      33.537  16.312   8.310  0.00  0.00     0.074 A 
HETATM   17  C   UNK N   1      33.381  17.703   8.189  0.00  0.00     0.027 A 
HETATM   18  C   UNK N   1      32.055  18.158   8.450  0.00  0.00     0.033 A 
HETATM   19  C   UNK N   1      31.176  17.119   8.747  0.00  0.00     0.075 A 
HETATM   20 Cl   UNK N   1      29.453  17.260   9.027  0.00  0.00    -0.076 Cl
HETATM   21  S   UNK N   1      32.038  15.712   8.696  0.00  0.00    -0.072 SA
ENDBRANCH  13  16
ENDBRANCH   9  12
ENDBRANCH   5   6
ENDBRANCH   1   5
BRANCH   3  22
HETATM   22  C   UNK N   1      35.230  12.377  16.557  0.00  0.00     0.073 A 
HETATM   23  C   UNK N   1      35.173  13.117  17.747  0.00  0.00     0.145 A 
HETATM   24  F   UNK N   1      34.997  14.459  17.720  0.00  0.00    -0.204 F 
HETATM   25  C   UNK N   1      35.235  12.468  18.974  0.00  0.00     0.074 A 
HETATM   26  C   UNK N   1      35.362  11.075  19.053  0.00  0.00     0.045 A 
HETATM   27  C   UNK N   1      35.485  10.346  17.850  0.00  0.00     0.032 A 
HETATM   28  C   UNK N   1      35.418  10.994  16.612  0.00  0.00     0.035 A 
BRANCH  26  29
HETATM   29  N   UNK N   1      35.265  10.377  20.330  0.00  0.00    -0.290 N 
HETATM   30  C   UNK N   1      36.382  10.096  21.122  0.00  0.00     0.252 A 
HETATM   31  O   UNK N   1      37.505  10.388  20.762  0.00  0.00    -0.268 OA
HETATM   32  C   UNK N   1      36.222   9.481  22.365  0.00  0.00     0.075 A 
HETATM   33  C   UNK N   1      34.952   9.149  22.819  0.00  0.00     0.007 A 
HETATM   34  C   UNK N   1      33.844   9.428  22.028  0.00  0.00     0.018 A 
HETATM   35  C   UNK N   1      34.021  10.044  20.789  0.00  0.00     0.100 A 
ENDBRANCH  26  29
ENDBRANCH   3  22
TORSDOF 6
ENDMDL
MODEL 8
REMARK VINA RESULT:      -7.5      4.091     10.874
REMARK  6 active torsions:
REMARK  status: ('A' for Active; 'I' for Inactive)
REMARK    1  A    between atoms: C_6  and  C_7 
REMARK       I    between atoms: C_7  and  N_9 
REMARK    2  A    between atoms: C_10  and  N_9 
REMARK    3  A    between atoms: N_15  and  C_16 
REMARK    4  A    between atoms: C_16  and  C_17 
REMARK       I    between atoms: C_17  and  N_19 
REMARK    5  A    between atoms: N_19  and  C_20 
REMARK    6  A    between atoms: C_25  and  N_27 
ROOT
HETATM    1  C   UNK N   1      33.220  15.838   9.439  0.00  0.00     0.250 C 
HETATM    2  O   UNK N   1      32.413  14.948   9.200  0.00  0.00    -0.271 OA
HETATM    3  N   UNK N   1      32.964  17.113   9.039  0.00  0.00    -0.323 N 
HETATM    4  H   UNK N   1      33.569  17.845   9.295  0.00  0.00     0.169 HD
ENDROOT
BRANCH   1   5
HETATM    5  C   UNK N   1      34.457  15.516  10.248  0.00  0.00     0.375 C 
BRANCH   5   6
HETATM    6  N   UNK N   1      35.202  14.314   9.817  0.00  0.00     0.102 N 
HETATM    7  C   UNK N   1      36.660  14.519   9.814  0.00  0.00     0.312 C 
HETATM    8  C   UNK N   1      37.269  13.596  10.851  0.00  0.00     0.222 C 
HETATM    9  C   UNK N   1      36.076  13.140  11.667  0.00  0.00     0.148 C 
HETATM   10  F   UNK N   1      37.871  12.549  10.181  0.00  0.00    -0.245 F 
HETATM   11  C   UNK N   1      34.919  13.195  10.718  0.00  0.00     0.301 C 
BRANCH   9  12
HETATM   12  N   UNK N   1      36.327  11.898  12.382  0.00  0.00    -0.347 N 
HETATM   13  C   UNK N   1      36.104  11.550  13.687  0.00  0.00     0.259 C 
HETATM   14  O   UNK N   1      36.094  10.358  13.952  0.00  0.00    -0.267 OA
HETATM   15  H   UNK N   1      36.727  11.185  11.833  0.00  0.00     0.163 HD
BRANCH  13  16
HETATM   16  C   UNK N   1      35.867  12.491  14.825  0.00  0.00     0.074 A 
HETATM   17  C   UNK N   1      34.936  12.246  15.848  0.00  0.00     0.027 A 
HETATM   18  C   UNK N   1      34.982  13.201  16.907  0.00  0.00     0.033 A 
HETATM   19  C   UNK N   1      35.965  14.169  16.720  0.00  0.00     0.075 A 
HETATM   20 Cl   UNK N   1      36.396  15.446  17.838  0.00  0.00    -0.076 Cl
HETATM   21  S   UNK N   1      36.716  13.841  15.287  0.00  0.00    -0.072 SA
ENDBRANCH  13  16
ENDBRANCH   9  12
ENDBRANCH   5   6
ENDBRANCH   1   5
BRANCH   3  22
HETATM   22  C   UNK N   1      31.816  17.377   8.248  0.00  0.00     0.073 A 
HETATM   23  C   UNK N   1      31.809  17.056   6.883  0.00  0.00     0.145 A 
HETATM   24  F   UNK N   1      32.933  16.617   6.269  0.00  0.00    -0.204 F 
HETATM   25  C   UNK N   1      30.626  17.127   6.158  0.00  0.00     0.074 A 
HETATM   26  C   UNK N   1      29.426  17.524   6.763  0.00  0.00     0.045 A 
HETATM   27  C   UNK N   1      29.457  17.908   8.121  0.00  0.00     0.032 A 
HETATM   28  C   UNK N   1      30.644  17.834   8.858  0.00  0.00     0.035 A 
BRANCH  26  29
HETATM   29  N   UNK N   1      28.156  17.445   6.050  0.00  0.00    -0.290 N 
HETATM   30  C   UNK N   1      27.784  18.369   5.069  0.00  0.00     0.252 A 
HETATM   31  O   UNK N   1      28.492  19.316   4.787  0.00  0.00    -0.268 OA
HETATM   32  C   UNK N   1      26.584  18.207   4.374  0.00  0.00     0.075 A 
HETATM   33  C   UNK N   1      25.758  17.127   4.654  0.00  0.00     0.007 A 
HETATM   34  C   UNK N   1      26.130  16.212   5.632  0.00  0.00     0.018 A 
HETATM   35  C   UNK N   1      27.333  16.387   6.315  0.00  0.00     0.100 A 
ENDBRANCH  26  29
ENDBRANCH   3  22
TORSDOF 6
ENDMDL
MODEL 9
REMARK VINA RESULT:      -7.3      2.027      2.468
REMARK  6 active torsions:
REMARK  status: ('A' for Active; 'I' for Inactive)
REMARK    1  A    between atoms: C_6  and  C_7 
REMARK       I    between atoms: C_7  and  N_9 
REMARK    2  A    between atoms: C_10  and  N_9 
REMARK    3  A    between atoms: N_15  and  C_16 
REMARK    4  A    between atoms: C_16  and  C_17 
REMARK       I    between atoms: C_17  and  N_19 
REMARK    5  A    between atoms: N_19  and  C_20 
REMARK    6  A    between atoms: C_25  and  N_27 
ROOT
HETATM    1  C   UNK N   1      35.392  13.272  12.790  0.00  0.00     0.250 C 
HETATM    2  O   UNK N   1      36.568  12.963  12.938  0.00  0.00    -0.271 OA
HETATM    3  N   UNK N   1      34.455  12.820  13.668  0.00  0.00    -0.323 N 
HETATM    4  H   UNK N   1      33.522  13.127  13.600  0.00  0.00     0.169 HD
ENDROOT
BRANCH   1   5
HETATM    5  C   UNK N   1      35.012  14.219  11.674  0.00  0.00     0.375 C 
BRANCH   5   6
HETATM    6  N   UNK N   1      35.895  14.191  10.489  0.00  0.00     0.102 N 
HETATM    7  C   UNK N   1      35.592  13.073   9.580  0.00  0.00     0.312 C 
HETATM    8  C   UNK N   1      35.110  13.652   8.265  0.00  0.00     0.222 C 
HETATM    9  C   UNK N   1      34.819  15.102   8.598  0.00  0.00     0.148 C 
HETATM   10  F   UNK N   1      36.135  13.525   7.348  0.00  0.00    -0.245 F 
HETATM   11  C   UNK N   1      35.751  15.430   9.724  0.00  0.00     0.301 C 
BRANCH   9  12
HETATM   12  N   UNK N   1      34.823  15.959   7.423  0.00  0.00    -0.347 N 
HETATM   13  C   UNK N   1      33.945  16.926   7.011  0.00  0.00     0.259 C 
HETATM   14  O   UNK N   1      34.343  17.719   6.173  0.00  0.00    -0.267 OA
HETATM   15  H   UNK N   1      35.588  15.820   6.819  0.00  0.00     0.163 HD
BRANCH  13  16
HETATM   16  C   UNK N   1      32.541  17.107   7.492  0.00  0.00     0.074 A 
HETATM   17  C   UNK N   1      32.182  18.014   8.504  0.00  0.00     0.027 A 
HETATM   18  C   UNK N   1      30.774  18.131   8.699  0.00  0.00     0.033 A 
HETATM   19  C   UNK N   1      30.040  17.337   7.822  0.00  0.00     0.075 A 
HETATM   20 Cl   UNK N   1      28.295  17.278   7.682  0.00  0.00    -0.076 Cl
HETATM   21  S   UNK N   1      31.116  16.524   6.870  0.00  0.00    -0.072 SA
ENDBRANCH  13  16
ENDBRANCH   9  12
ENDBRANCH   5   6
ENDBRANCH   1   5
BRANCH   3  22
HETATM   22  C   UNK N   1      34.834  11.902  14.681  0.00  0.00     0.073 A 
HETATM   23  C   UNK N   1      35.245  12.368  15.938  0.00  0.00     0.145 A 
HETATM   24  F   UNK N   1      35.415  13.692  16.165  0.00  0.00    -0.204 F 
HETATM   25  C   UNK N   1      35.421  11.475  16.988  0.00  0.00     0.074 A 
HETATM   26  C   UNK N   1      35.204  10.101  16.816  0.00  0.00     0.045 A 
HETATM   27  C   UNK N   1      34.856   9.635  15.529  0.00  0.00     0.032 A 
HETATM   28  C   UNK N   1      34.671  10.531  14.471  0.00  0.00     0.035 A 
BRANCH  26  29
HETATM   29  N   UNK N   1      35.231   9.183  17.949  0.00  0.00    -0.290 N 
HETATM   30  C   UNK N   1      36.382   8.485  18.326  0.00  0.00     0.252 A 
HETATM   31  O   UNK N   1      37.417   8.581  17.697  0.00  0.00    -0.268 OA
HETATM   32  C   UNK N   1      36.365   7.668  19.459  0.00  0.00     0.075 A 
HETATM   33  C   UNK N   1      35.206   7.549  20.213  0.00  0.00     0.007 A 
HETATM   34  C   UNK N   1      34.063   8.242  19.834  0.00  0.00     0.018 A 
HETATM   35  C   UNK N   1      34.097   9.055  18.701  0.00  0.00     0.100 A 
ENDBRANCH  26  29
ENDBRANCH   3  22
TORSDOF 6
ENDMDL
