MODEL 1
REMARK VINA RESULT:      -7.0      0.000      0.000
REMARK  2 active torsions:
REMARK  status: ('A' for Active; 'I' for Inactive)
REMARK    1  A    between atoms: C_8  and  C_9 
REMARK    2  A    between atoms: C_15  and  N_16 
REMARK       I    between atoms: C_22  and  N_23 
ROOT
HETATM    1  C   UNK N   1      33.811  16.384   8.543  0.00  0.00     0.021 A 
HETATM    2  C   UNK N   1      33.796  15.151   9.212  0.00  0.00     0.032 A 
HETATM    3  C   UNK N   1      34.524  14.959  10.378  0.00  0.00     0.025 A 
HETATM    4  C   UNK N   1      34.544  13.729  11.028  0.00  0.00     0.121 A 
HETATM    5  N   UNK N   1      35.288  13.576  12.154  0.00  0.00    -0.201 N 
ATOM      6  HN  UNK N   1      35.305  12.673  12.628  1.00  0.00     0.183 HD
HETATM    7  C   UNK N   1      34.604  17.426   9.108  0.00  0.00     0.111 A 
HETATM    8  N   UNK N   1      35.297  17.210  10.264  0.00  0.00    -0.327 N 
ATOM      9  HN  UNK N   1      35.849  17.970  10.658  1.00  0.00     0.169 HD
HETATM   10  C   UNK N   1      35.273  16.013  10.904  0.00  0.00     0.134 A 
HETATM   11  N   UNK N   1      36.001  15.824  12.036  0.00  0.00    -0.176 N 
ATOM     12  HN  UNK N   1      36.546  16.595  12.422  1.00  0.00     0.186 HD
HETATM   13  C   UNK N   1      36.011  14.614  12.659  0.00  0.00     0.677 A 
HETATM   14  N   UNK N   1      36.781  14.429  13.825  0.00  0.00    -0.234 N 
HETATM   15  H   UNK N   1      37.085  15.208  14.344  0.00  0.00     0.174 HD
HETATM   16  H   UNK N   1      37.015  13.520  14.121  0.00  0.00     0.174 HD
ENDROOT
BRANCH   1  17
HETATM   17  C   UNK N   1      33.050  16.510   7.241  0.00  0.00     0.013 A 
HETATM   18  C   UNK N   1      31.759  17.129   7.156  0.00  0.00     0.023 A 
HETATM   19 Br   UNK N   1      30.724  17.734   8.656  0.00  0.00    -0.050 Br
HETATM   20  C   UNK N   1      31.106  17.220   5.924  0.00  0.00     0.020 A 
HETATM   21  C   UNK N   1      31.682  16.719   4.766  0.00  0.00     0.003 A 
HETATM   22  C   UNK N   1      32.915  16.091   4.826  0.00  0.00     0.020 A 
HETATM   23  C   UNK N   1      33.604  15.972   6.034  0.00  0.00     0.023 A 
HETATM   24 Br   UNK N   1      35.319  15.109   5.909  0.00  0.00    -0.050 Br
ENDBRANCH   1  17
BRANCH   7  25
HETATM   25  N   UNK N   1      34.793  18.651   8.439  0.00  0.00    -0.385 N 
HETATM   26  H   UNK N   1      34.825  19.537   8.866  0.00  0.00     0.157 HD
HETATM   27  H   UNK N   1      34.903  18.618   7.461  0.00  0.00     0.157 HD
ENDBRANCH   7  25
TORSDOF 2
ENDMDL
MODEL 2
REMARK VINA RESULT:      -7.0      2.079      2.655
REMARK  2 active torsions:
REMARK  status: ('A' for Active; 'I' for Inactive)
REMARK    1  A    between atoms: C_8  and  C_9 
REMARK    2  A    between atoms: C_15  and  N_16 
REMARK       I    between atoms: C_22  and  N_23 
ROOT
HETATM    1  C   UNK N   1      34.065  15.160   8.589  0.00  0.00     0.021 A 
HETATM    2  C   UNK N   1      35.388  14.768   8.847  0.00  0.00     0.032 A 
HETATM    3  C   UNK N   1      35.787  14.385  10.120  0.00  0.00     0.025 A 
HETATM    4  C   UNK N   1      37.104  14.030  10.392  0.00  0.00     0.121 A 
HETATM    5  N   UNK N   1      37.459  13.683  11.657  0.00  0.00    -0.201 N 
ATOM      6  HN  UNK N   1      38.425  13.427  11.857  1.00  0.00     0.183 HD
HETATM    7  C   UNK N   1      33.154  15.149   9.685  0.00  0.00     0.111 A 
HETATM    8  N   UNK N   1      33.574  14.753  10.922  0.00  0.00    -0.327 N 
ATOM      9  HN  UNK N   1      32.905  14.742  11.691  1.00  0.00     0.169 HD
HETATM   10  C   UNK N   1      34.855  14.374  11.159  0.00  0.00     0.134 A 
HETATM   11  N   UNK N   1      35.246  14.016  12.411  0.00  0.00    -0.176 N 
ATOM     12  HN  UNK N   1      34.565  14.004  13.170  1.00  0.00     0.186 HD
HETATM   13  C   UNK N   1      36.539  13.672  12.662  0.00  0.00     0.677 A 
HETATM   14  N   UNK N   1      36.932  13.316  13.967  0.00  0.00    -0.234 N 
HETATM   15  H   UNK N   1      36.256  13.047  14.629  0.00  0.00     0.174 HD
HETATM   16  H   UNK N   1      37.884  13.335  14.216  0.00  0.00     0.174 HD
ENDROOT
BRANCH   1  17
HETATM   17  C   UNK N   1      33.710  15.631   7.195  0.00  0.00     0.013 A 
HETATM   18  C   UNK N   1      33.269  14.736   6.165  0.00  0.00     0.023 A 
HETATM   19 Br   UNK N   1      33.219  12.822   6.313  0.00  0.00    -0.050 Br
HETATM   20  C   UNK N   1      32.950  15.229   4.898  0.00  0.00     0.020 A 
HETATM   21  C   UNK N   1      33.051  16.582   4.607  0.00  0.00     0.003 A 
HETATM   22  C   UNK N   1      33.501  17.463   5.576  0.00  0.00     0.020 A 
HETATM   23  C   UNK N   1      33.837  17.017   6.854  0.00  0.00     0.023 A 
HETATM   24 Br   UNK N   1      34.399  18.395   8.074  0.00  0.00    -0.050 Br
ENDBRANCH   1  17
BRANCH   7  25
HETATM   25  N   UNK N   1      31.846  15.655   9.558  0.00  0.00    -0.385 N 
HETATM   26  H   UNK N   1      31.051  15.130   9.310  0.00  0.00     0.157 HD
HETATM   27  H   UNK N   1      31.715  16.615   9.732  0.00  0.00     0.157 HD
ENDBRANCH   7  25
TORSDOF 2
ENDMDL
MODEL 3
REMARK VINA RESULT:      -7.0      0.131      2.177
REMARK  2 active torsions:
REMARK  status: ('A' for Active; 'I' for Inactive)
REMARK    1  A    between atoms: C_8  and  C_9 
REMARK    2  A    between atoms: C_15  and  N_16 
REMARK       I    between atoms: C_22  and  N_23 
ROOT
HETATM    1  C   UNK N   1      33.771  16.319   8.580  0.00  0.00     0.021 A 
HETATM    2  C   UNK N   1      33.766  15.101   9.277  0.00  0.00     0.032 A 
HETATM    3  C   UNK N   1      34.506  14.936  10.439  0.00  0.00     0.025 A 
HETATM    4  C   UNK N   1      34.534  13.722  11.117  0.00  0.00     0.121 A 
HETATM    5  N   UNK N   1      35.290  13.596  12.239  0.00  0.00    -0.201 N 
ATOM      6  HN  UNK N   1      35.313  12.703  12.733  1.00  0.00     0.183 HD
HETATM    7  C   UNK N   1      34.568  17.374   9.114  0.00  0.00     0.111 A 
HETATM    8  N   UNK N   1      35.272  17.185  10.267  0.00  0.00    -0.327 N 
ATOM      9  HN  UNK N   1      35.826  17.956  10.639  1.00  0.00     0.169 HD
HETATM   10  C   UNK N   1      35.257  16.004  10.935  0.00  0.00     0.134 A 
HETATM   11  N   UNK N   1      35.997  15.842  12.064  0.00  0.00    -0.176 N 
ATOM     12  HN  UNK N   1      36.543  16.622  12.427  1.00  0.00     0.186 HD
HETATM   13  C   UNK N   1      36.015  14.646  12.714  0.00  0.00     0.677 A 
HETATM   14  N   UNK N   1      36.797  14.489  13.876  0.00  0.00    -0.234 N 
HETATM   15  H   UNK N   1      37.104  15.280  14.374  0.00  0.00     0.174 HD
HETATM   16  H   UNK N   1      37.035  13.587  14.190  0.00  0.00     0.174 HD
ENDROOT
BRANCH   1  17
HETATM   17  C   UNK N   1      32.998  16.413   7.283  0.00  0.00     0.013 A 
HETATM   18  C   UNK N   1      33.485  15.866   6.050  0.00  0.00     0.023 A 
HETATM   19 Br   UNK N   1      35.225  15.095   5.796  0.00  0.00    -0.050 Br
HETATM   20  C   UNK N   1      32.724  15.980   4.884  0.00  0.00     0.020 A 
HETATM   21  C   UNK N   1      31.492  16.618   4.889  0.00  0.00     0.003 A 
HETATM   22  C   UNK N   1      31.012  17.179   6.061  0.00  0.00     0.020 A 
HETATM   23  C   UNK N   1      31.738  17.095   7.249  0.00  0.00     0.023 A 
HETATM   24 Br   UNK N   1      30.888  17.896   8.778  0.00  0.00    -0.050 Br
ENDBRANCH   1  17
BRANCH   7  25
HETATM   25  N   UNK N   1      34.747  18.584   8.416  0.00  0.00    -0.385 N 
HETATM   26  H   UNK N   1      34.130  18.954   7.744  0.00  0.00     0.157 HD
HETATM   27  H   UNK N   1      35.558  19.104   8.617  0.00  0.00     0.157 HD
ENDBRANCH   7  25
TORSDOF 2
ENDMDL
MODEL 4
REMARK VINA RESULT:      -6.9      2.112      2.319
REMARK  2 active torsions:
REMARK  status: ('A' for Active; 'I' for Inactive)
REMARK    1  A    between atoms: C_8  and  C_9 
REMARK    2  A    between atoms: C_15  and  N_16 
REMARK       I    between atoms: C_22  and  N_23 
ROOT
HETATM    1  C   UNK N   1      34.187  15.118   8.639  0.00  0.00     0.021 A 
HETATM    2  C   UNK N   1      35.496  14.696   8.912  0.00  0.00     0.032 A 
HETATM    3  C   UNK N   1      35.871  14.298  10.188  0.00  0.00     0.025 A 
HETATM    4  C   UNK N   1      37.176  13.911  10.475  0.00  0.00     0.121 A 
HETATM    5  N   UNK N   1      37.507  13.550  11.742  0.00  0.00    -0.201 N 
ATOM      6  HN  UNK N   1      38.465  13.271  11.952  1.00  0.00     0.183 HD
HETATM    7  C   UNK N   1      33.262  15.123   9.724  0.00  0.00     0.111 A 
HETATM    8  N   UNK N   1      33.657  14.712  10.964  0.00  0.00    -0.327 N 
ATOM      9  HN  UNK N   1      32.978  14.712  11.724  1.00  0.00     0.169 HD
HETATM   10  C   UNK N   1      34.926  14.302  11.216  0.00  0.00     0.134 A 
HETATM   11  N   UNK N   1      35.293  13.929  12.470  0.00  0.00    -0.176 N 
ATOM     12  HN  UNK N   1      34.603  13.930  13.220  1.00  0.00     0.186 HD
HETATM   13  C   UNK N   1      36.575  13.556  12.735  0.00  0.00     0.677 A 
HETATM   14  N   UNK N   1      36.943  13.184  14.043  0.00  0.00    -0.234 N 
HETATM   15  H   UNK N   1      36.253  12.927  14.696  0.00  0.00     0.174 HD
HETATM   16  H   UNK N   1      37.892  13.180  14.305  0.00  0.00     0.174 HD
ENDROOT
BRANCH   1  17
HETATM   17  C   UNK N   1      33.859  15.604   7.244  0.00  0.00     0.013 A 
HETATM   18  C   UNK N   1      33.951  16.983   6.864  0.00  0.00     0.023 A 
HETATM   19 Br   UNK N   1      34.325  18.436   8.062  0.00  0.00    -0.050 Br
HETATM   20  C   UNK N   1      33.640  17.373   5.558  0.00  0.00     0.020 A 
HETATM   21  C   UNK N   1      33.239  16.445   4.608  0.00  0.00     0.003 A 
HETATM   22  C   UNK N   1      33.115  15.110   4.957  0.00  0.00     0.020 A 
HETATM   23  C   UNK N   1      33.409  14.675   6.250  0.00  0.00     0.023 A 
HETATM   24 Br   UNK N   1      33.220  12.781   6.531  0.00  0.00    -0.050 Br
ENDBRANCH   1  17
BRANCH   7  25
HETATM   25  N   UNK N   1      31.967  15.659   9.583  0.00  0.00    -0.385 N 
HETATM   26  H   UNK N   1      31.425  15.639   8.761  0.00  0.00     0.157 HD
HETATM   27  H   UNK N   1      31.569  16.090  10.374  0.00  0.00     0.157 HD
ENDBRANCH   7  25
TORSDOF 2
ENDMDL
MODEL 5
REMARK VINA RESULT:      -6.8     13.431     15.270
REMARK  2 active torsions:
REMARK  status: ('A' for Active; 'I' for Inactive)
REMARK    1  A    between atoms: C_8  and  C_9 
REMARK    2  A    between atoms: C_15  and  N_16 
REMARK       I    between atoms: C_22  and  N_23 
ROOT
HETATM    1  C   UNK N   1      20.743  16.660   5.248  0.00  0.00     0.021 A 
HETATM    2  C   UNK N   1      21.609  17.701   4.884  0.00  0.00     0.032 A 
HETATM    3  C   UNK N   1      21.314  18.539   3.818  0.00  0.00     0.025 A 
HETATM    4  C   UNK N   1      22.184  19.552   3.427  0.00  0.00     0.121 A 
HETATM    5  N   UNK N   1      21.869  20.336   2.363  0.00  0.00    -0.201 N 
ATOM      6  HN  UNK N   1      22.509  21.076   2.075  1.00  0.00     0.183 HD
HETATM    7  C   UNK N   1      19.554  16.498   4.479  0.00  0.00     0.111 A 
HETATM    8  N   UNK N   1      19.285  17.348   3.445  0.00  0.00    -0.327 N 
ATOM      9  HN  UNK N   1      18.424  17.224   2.915  1.00  0.00     0.169 HD
HETATM   10  C   UNK N   1      20.129  18.354   3.104  0.00  0.00     0.134 A 
HETATM   11  N   UNK N   1      19.844  19.162   2.048  0.00  0.00    -0.176 N 
ATOM     12  HN  UNK N   1      18.978  19.029   1.528  1.00  0.00     0.186 HD
HETATM   13  C   UNK N   1      20.708  20.148   1.677  0.00  0.00     0.677 A 
HETATM   14  N   UNK N   1      20.405  20.969   0.573  0.00  0.00    -0.234 N 
HETATM   15  H   UNK N   1      19.480  21.028   0.241  0.00  0.00     0.174 HD
HETATM   16  H   UNK N   1      21.119  21.484   0.133  0.00  0.00     0.174 HD
ENDROOT
BRANCH   1  17
HETATM   17  C   UNK N   1      21.154  15.739   6.377  0.00  0.00     0.013 A 
HETATM   18  C   UNK N   1      21.932  14.553   6.164  0.00  0.00     0.023 A 
HETATM   19 Br   UNK N   1      22.427  13.852   4.446  0.00  0.00    -0.050 Br
HETATM   20  C   UNK N   1      22.286  13.743   7.246  0.00  0.00     0.020 A 
HETATM   21  C   UNK N   1      21.897  14.062   8.539  0.00  0.00     0.003 A 
HETATM   22  C   UNK N   1      21.122  15.187   8.769  0.00  0.00     0.020 A 
HETATM   23  C   UNK N   1      20.740  16.023   7.719  0.00  0.00     0.023 A 
HETATM   24 Br   UNK N   1      19.703  17.557   8.241  0.00  0.00    -0.050 Br
ENDBRANCH   1  17
BRANCH   7  25
HETATM   25  N   UNK N   1      18.693  15.401   4.678  0.00  0.00    -0.385 N 
HETATM   26  H   UNK N   1      18.666  14.834   5.482  0.00  0.00     0.157 HD
HETATM   27  H   UNK N   1      18.065  15.183   3.953  0.00  0.00     0.157 HD
ENDBRANCH   7  25
TORSDOF 2
ENDMDL
MODEL 6
REMARK VINA RESULT:      -6.6      4.179      6.248
REMARK  2 active torsions:
REMARK  status: ('A' for Active; 'I' for Inactive)
REMARK    1  A    between atoms: C_8  and  C_9 
REMARK    2  A    between atoms: C_15  and  N_16 
REMARK       I    between atoms: C_22  and  N_23 
ROOT
HETATM    1  C   UNK N   1      28.556  17.831   6.806  0.00  0.00     0.021 A 
HETATM    2  C   UNK N   1      29.759  17.512   6.159  0.00  0.00     0.032 A 
HETATM    3  C   UNK N   1      30.940  17.366   6.873  0.00  0.00     0.025 A 
HETATM    4  C   UNK N   1      32.144  17.084   6.236  0.00  0.00     0.121 A 
HETATM    5  N   UNK N   1      33.282  16.972   6.970  0.00  0.00    -0.201 N 
ATOM      6  HN  UNK N   1      34.165  16.769   6.501  1.00  0.00     0.183 HD
HETATM    7  C   UNK N   1      28.598  18.002   8.220  0.00  0.00     0.111 A 
HETATM    8  N   UNK N   1      29.773  17.837   8.896  0.00  0.00    -0.327 N 
ATOM      9  HN  UNK N   1      29.781  17.952   9.908  1.00  0.00     0.169 HD
HETATM   10  C   UNK N   1      30.931  17.525   8.260  0.00  0.00     0.134 A 
HETATM   11  N   UNK N   1      32.088  17.400   8.961  0.00  0.00    -0.176 N 
ATOM     12  HN  UNK N   1      32.081  17.513   9.974  1.00  0.00     0.186 HD
HETATM   13  C   UNK N   1      33.259  17.126   8.322  0.00  0.00     0.677 A 
HETATM   14  N   UNK N   1      34.453  17.012   9.061  0.00  0.00    -0.234 N 
HETATM   15  H   UNK N   1      34.420  16.854  10.032  0.00  0.00     0.174 HD
HETATM   16  H   UNK N   1      35.323  17.089   8.606  0.00  0.00     0.174 HD
ENDROOT
BRANCH   1  17
HETATM   17  C   UNK N   1      27.316  18.043   5.963  0.00  0.00     0.013 A 
HETATM   18  C   UNK N   1      26.861  19.344   5.570  0.00  0.00     0.023 A 
HETATM   19 Br   UNK N   1      27.617  21.005   6.168  0.00  0.00    -0.050 Br
HETATM   20  C   UNK N   1      25.711  19.478   4.788  0.00  0.00     0.020 A 
HETATM   21  C   UNK N   1      24.989  18.367   4.376  0.00  0.00     0.003 A 
HETATM   22  C   UNK N   1      25.392  17.100   4.765  0.00  0.00     0.020 A 
HETATM   23  C   UNK N   1      26.530  16.917   5.551  0.00  0.00     0.023 A 
HETATM   24 Br   UNK N   1      26.954  15.084   5.952  0.00  0.00    -0.050 Br
ENDBRANCH   1  17
BRANCH   7  25
HETATM   25  N   UNK N   1      27.477  18.458   8.939  0.00  0.00    -0.385 N 
HETATM   26  H   UNK N   1      27.152  19.387   8.966  0.00  0.00     0.157 HD
HETATM   27  H   UNK N   1      26.972  17.791   9.459  0.00  0.00     0.157 HD
ENDBRANCH   7  25
TORSDOF 2
ENDMDL
MODEL 7
REMARK VINA RESULT:      -6.5      3.641      5.868
REMARK  2 active torsions:
REMARK  status: ('A' for Active; 'I' for Inactive)
REMARK    1  A    between atoms: C_8  and  C_9 
REMARK    2  A    between atoms: C_15  and  N_16 
REMARK       I    between atoms: C_22  and  N_23 
ROOT
HETATM    1  C   UNK N   1      30.121  16.974   4.949  0.00  0.00     0.021 A 
HETATM    2  C   UNK N   1      30.134  16.878   6.349  0.00  0.00     0.032 A 
HETATM    3  C   UNK N   1      31.297  17.101   7.072  0.00  0.00     0.025 A 
HETATM    4  C   UNK N   1      31.327  16.974   8.457  0.00  0.00     0.121 A 
HETATM    5  N   UNK N   1      32.493  17.178   9.126  0.00  0.00    -0.201 N 
ATOM      6  HN  UNK N   1      32.515  17.080  10.141  1.00  0.00     0.183 HD
HETATM    7  C   UNK N   1      31.349  17.304   4.305  0.00  0.00     0.111 A 
HETATM    8  N   UNK N   1      32.473  17.532   5.046  0.00  0.00    -0.327 N 
ATOM      9  HN  UNK N   1      33.338  17.778   4.567  1.00  0.00     0.169 HD
HETATM   10  C   UNK N   1      32.473  17.440   6.400  0.00  0.00     0.134 A 
HETATM   11  N   UNK N   1      33.619  17.641   7.103  0.00  0.00    -0.176 N 
ATOM     12  HN  UNK N   1      34.476  17.892   6.612  1.00  0.00     0.186 HD
HETATM   13  C   UNK N   1      33.632  17.511   8.458  0.00  0.00     0.677 A 
HETATM   14  N   UNK N   1      34.829  17.711   9.172  0.00  0.00    -0.234 N 
HETATM   15  H   UNK N   1      35.575  18.201   8.757  0.00  0.00     0.174 HD
HETATM   16  H   UNK N   1      34.920  17.361  10.088  0.00  0.00     0.174 HD
ENDROOT
BRANCH   1  17
HETATM   17  C   UNK N   1      28.838  16.654   4.215  0.00  0.00     0.013 A 
HETATM   18  C   UNK N   1      28.568  15.361   3.655  0.00  0.00     0.023 A 
HETATM   19 Br   UNK N   1      29.818  13.905   3.588  0.00  0.00    -0.050 Br
HETATM   20  C   UNK N   1      27.362  15.123   2.991  0.00  0.00     0.020 A 
HETATM   21  C   UNK N   1      26.406  16.120   2.857  0.00  0.00     0.003 A 
HETATM   22  C   UNK N   1      26.654  17.384   3.364  0.00  0.00     0.020 A 
HETATM   23  C   UNK N   1      27.845  17.672   4.031  0.00  0.00     0.023 A 
HETATM   24 Br   UNK N   1      27.987  19.469   4.701  0.00  0.00    -0.050 Br
ENDBRANCH   1  17
BRANCH   7  25
HETATM   25  N   UNK N   1      31.470  17.288   2.902  0.00  0.00    -0.385 N 
HETATM   26  H   UNK N   1      32.157  16.801   2.392  0.00  0.00     0.157 HD
HETATM   27  H   UNK N   1      30.811  17.807   2.386  0.00  0.00     0.157 HD
ENDBRANCH   7  25
TORSDOF 2
ENDMDL
MODEL 8
REMARK VINA RESULT:      -6.5      3.666      5.589
REMARK  2 active torsions:
REMARK  status: ('A' for Active; 'I' for Inactive)
REMARK    1  A    between atoms: C_8  and  C_9 
REMARK    2  A    between atoms: C_15  and  N_16 
REMARK       I    between atoms: C_22  and  N_23 
ROOT
HETATM    1  C   UNK N   1      30.076  16.991   4.973  0.00  0.00     0.021 A 
HETATM    2  C   UNK N   1      30.094  16.919   6.373  0.00  0.00     0.032 A 
HETATM    3  C   UNK N   1      31.265  17.129   7.088  0.00  0.00     0.025 A 
HETATM    4  C   UNK N   1      31.300  17.024   8.474  0.00  0.00     0.121 A 
HETATM    5  N   UNK N   1      32.473  17.214   9.134  0.00  0.00    -0.201 N 
ATOM      6  HN  UNK N   1      32.498  17.133  10.150  1.00  0.00     0.183 HD
HETATM    7  C   UNK N   1      31.307  17.285   4.316  0.00  0.00     0.111 A 
HETATM    8  N   UNK N   1      32.439  17.500   5.048  0.00  0.00    -0.327 N 
ATOM      9  HN  UNK N   1      33.307  17.720   4.562  1.00  0.00     0.169 HD
HETATM   10  C   UNK N   1      32.444  17.431   6.404  0.00  0.00     0.134 A 
HETATM   11  N   UNK N   1      33.598  17.620   7.098  0.00  0.00    -0.176 N 
ATOM     12  HN  UNK N   1      34.458  17.843   6.599  1.00  0.00     0.186 HD
HETATM   13  C   UNK N   1      33.615  17.512   8.455  0.00  0.00     0.677 A 
HETATM   14  N   UNK N   1      34.820  17.698   9.160  0.00  0.00    -0.234 N 
HETATM   15  H   UNK N   1      35.574  18.165   8.733  0.00  0.00     0.174 HD
HETATM   16  H   UNK N   1      34.908  17.361  10.081  0.00  0.00     0.174 HD
ENDROOT
BRANCH   1  17
HETATM   17  C   UNK N   1      28.782  16.687   4.250  0.00  0.00     0.013 A 
HETATM   18  C   UNK N   1      27.789  17.687   3.986  0.00  0.00     0.023 A 
HETATM   19 Br   UNK N   1      27.843  19.494   4.634  0.00  0.00    -0.050 Br
HETATM   20  C   UNK N   1      26.614  17.347   3.309  0.00  0.00     0.020 A 
HETATM   21  C   UNK N   1      26.382  16.048   2.881  0.00  0.00     0.003 A 
HETATM   22  C   UNK N   1      27.312  15.058   3.148  0.00  0.00     0.020 A 
HETATM   23  C   UNK N   1      28.497  15.347   3.825  0.00  0.00     0.023 A 
HETATM   24 Br   UNK N   1      29.683  13.851   4.063  0.00  0.00    -0.050 Br
ENDBRANCH   1  17
BRANCH   7  25
HETATM   25  N   UNK N   1      31.420  17.242   2.914  0.00  0.00    -0.385 N 
HETATM   26  H   UNK N   1      31.381  18.020   2.312  0.00  0.00     0.157 HD
HETATM   27  H   UNK N   1      31.551  16.359   2.498  0.00  0.00     0.157 HD
ENDBRANCH   7  25
TORSDOF 2
ENDMDL
MODEL 9
REMARK VINA RESULT:      -6.2      6.633     10.141
REMARK  2 active torsions:
REMARK  status: ('A' for Active; 'I' for Inactive)
REMARK    1  A    between atoms: C_8  and  C_9 
REMARK    2  A    between atoms: C_15  and  N_16 
REMARK       I    between atoms: C_22  and  N_23 
ROOT
HETATM    1  C   UNK N   1      27.898  17.890   5.507  0.00  0.00     0.021 A 
HETATM    2  C   UNK N   1      27.739  19.009   4.676  0.00  0.00     0.032 A 
HETATM    3  C   UNK N   1      26.489  19.378   4.201  0.00  0.00     0.025 A 
HETATM    4  C   UNK N   1      26.327  20.465   3.348  0.00  0.00     0.121 A 
HETATM    5  N   UNK N   1      25.088  20.779   2.886  0.00  0.00    -0.201 N 
ATOM      6  HN  UNK N   1      24.971  21.574   2.258  1.00  0.00     0.183 HD
HETATM    7  C   UNK N   1      26.725  17.150   5.838  0.00  0.00     0.111 A 
HETATM    8  N   UNK N   1      25.507  17.547   5.366  0.00  0.00    -0.327 N 
ATOM      9  HN  UNK N   1      24.680  17.011   5.623  1.00  0.00     0.169 HD
HETATM   10  C   UNK N   1      25.366  18.633   4.565  0.00  0.00     0.134 A 
HETATM   11  N   UNK N   1      24.141  18.981   4.088  0.00  0.00    -0.176 N 
ATOM     12  HN  UNK N   1      23.321  18.439   4.357  1.00  0.00     0.186 HD
HETATM   13  C   UNK N   1      24.000  20.046   3.252  0.00  0.00     0.677 A 
HETATM   14  N   UNK N   1      22.727  20.387   2.755  0.00  0.00    -0.234 N 
HETATM   15  H   UNK N   1      21.917  20.053   3.204  0.00  0.00     0.174 HD
HETATM   16  H   UNK N   1      22.647  20.960   1.959  0.00  0.00     0.174 HD
ENDROOT
BRANCH   1  17
HETATM   17  C   UNK N   1      29.295  17.502   5.937  0.00  0.00     0.013 A 
HETATM   18  C   UNK N   1      30.240  16.897   5.043  0.00  0.00     0.023 A 
HETATM   19 Br   UNK N   1      29.856  16.333   3.248  0.00  0.00    -0.050 Br
HETATM   20  C   UNK N   1      31.519  16.564   5.496  0.00  0.00     0.020 A 
HETATM   21  C   UNK N   1      31.903  16.805   6.807  0.00  0.00     0.003 A 
HETATM   22  C   UNK N   1      31.000  17.362   7.698  0.00  0.00     0.020 A 
HETATM   23  C   UNK N   1      29.710  17.707   7.294  0.00  0.00     0.023 A 
HETATM   24 Br   UNK N   1      28.618  18.508   8.660  0.00  0.00    -0.050 Br
ENDBRANCH   1  17
BRANCH   7  25
HETATM   25  N   UNK N   1      26.799  15.936   6.549  0.00  0.00    -0.385 N 
HETATM   26  H   UNK N   1      26.620  15.824   7.511  0.00  0.00     0.157 HD
HETATM   27  H   UNK N   1      27.051  15.131   6.042  0.00  0.00     0.157 HD
ENDBRANCH   7  25
TORSDOF 2
ENDMDL
