REMARK  2 active torsions:
REMARK  status: ('A' for Active; 'I' for Inactive)
REMARK    1  A    between atoms: C_8  and  C_9 
REMARK    2  A    between atoms: C_15  and  N_16 
REMARK       I    between atoms: C_22  and  N_23 
ROOT
HETATM    1  C   UNK N   1       1.977 -12.007   0.014  0.00  0.00     0.021 A 
HETATM    2  C   UNK N   1       3.149 -11.360  -0.405  0.00  0.00     0.032 A 
HETATM    3  C   UNK N   1       4.379 -12.001  -0.356  0.00  0.00     0.025 A 
HETATM    4  C   UNK N   1       5.551 -11.355  -0.736  0.00  0.00     0.121 A 
HETATM    5  N   UNK N   1       6.738 -12.011  -0.651  0.00  0.00    -0.201 N 
ATOM      6  HN  UNK N   1       7.597 -11.535  -0.926  1.00  0.00     0.183 HD
HETATM    7  C   UNK N   1       2.103 -13.344   0.493  0.00  0.00     0.111 A 
HETATM    8  N   UNK N   1       3.325 -13.952   0.515  0.00  0.00    -0.327 N 
ATOM      9  HN  UNK N   1       3.393 -14.912   0.850  1.00  0.00     0.169 HD
HETATM   10  C   UNK N   1       4.452 -13.317   0.104  0.00  0.00     0.134 A 
HETATM   11  N   UNK N   1       5.657 -13.943   0.170  0.00  0.00    -0.176 N 
ATOM     12  HN  UNK N   1       5.710 -14.905   0.503  1.00  0.00     0.186 HD
HETATM   13  C   UNK N   1       6.795 -13.296  -0.204  0.00  0.00     0.677 A 
HETATM   14  N   UNK N   1       8.038 -13.953  -0.118  0.00  0.00    -0.234 N 
HETATM   15  H   UNK N   1       8.074 -14.935  -0.059  0.00  0.00     0.174 HD
HETATM   16  H   UNK N   1       8.872 -13.430  -0.118  0.00  0.00     0.174 HD
ENDROOT
BRANCH   1  17
HETATM   17  C   UNK N   1       0.678 -11.231  -0.001  0.00  0.00     0.013 A 
HETATM   18  C   UNK N   1      -0.567 -11.814  -0.409  0.00  0.00     0.023 A 
HETATM   19 Br   UNK N   1      -0.771 -13.574  -1.150  0.00  0.00    -0.050 Br
HETATM   20  C   UNK N   1      -1.736 -11.049  -0.398  0.00  0.00     0.020 A 
HETATM   21  C   UNK N   1      -1.722  -9.721   0.003  0.00  0.00     0.003 A 
HETATM   22  C   UNK N   1      -0.528  -9.126   0.375  0.00  0.00     0.020 A 
HETATM   23  C   UNK N   1       0.666  -9.848   0.375  0.00  0.00     0.023 A 
HETATM   24 Br   UNK N   1       2.210  -8.863   0.964  0.00  0.00    -0.050 Br
ENDBRANCH   1  17
BRANCH   7  25
HETATM   25  N   UNK N   1       1.011 -14.026   1.063  0.00  0.00    -0.385 N 
HETATM   26  H   UNK N   1       0.216 -13.603   1.461  0.00  0.00     0.157 HD
HETATM   27  H   UNK N   1       1.044 -15.010   1.063  0.00  0.00     0.157 HD
ENDBRANCH   7  25
TORSDOF 2
