MODEL 1
REMARK VINA RESULT:      -7.1      0.000      0.000
REMARK  4 active torsions:
REMARK  status: ('A' for Active; 'I' for Inactive)
REMARK       I    between atoms: N_1  and  C_2 
REMARK    1  A    between atoms: C_12  and  N_13 
REMARK    2  A    between atoms: C_15  and  C_16 
REMARK    3  A    between atoms: C_17  and  O_18 
REMARK    4  A    between atoms: C_20  and  O_21 
ROOT
HETATM    1  N   UNK N   1      36.759  14.295  13.700  0.00  0.00    -0.234 N 
HETATM    2  C   UNK N   1      35.980  14.574  12.561  0.00  0.00     0.677 A 
HETATM    3  N   UNK N   1      36.078  15.788  11.950  0.00  0.00    -0.176 N 
ATOM      4  HN  UNK N   1      36.718  16.491  12.321  1.00  0.00     0.186 HD
HETATM    5  N   UNK N   1      35.130  13.629  12.075  0.00  0.00    -0.201 N 
ATOM      6  HN  UNK N   1      35.064  12.723  12.541  1.00  0.00     0.183 HD
HETATM    7  C   UNK N   1      34.371  13.877  10.978  0.00  0.00     0.121 A 
HETATM    8  C   UNK N   1      34.464  15.110  10.347  0.00  0.00     0.025 A 
HETATM    9  C   UNK N   1      35.332  16.066  10.849  0.00  0.00     0.134 A 
HETATM   10  N   UNK N   1      35.427  17.268  10.235  0.00  0.00    -0.327 N 
ATOM     11  HN  UNK N   1      36.069  17.962  10.616  1.00  0.00     0.169 HD
HETATM   12  C   UNK N   1      34.699  17.591   9.124  0.00  0.00     0.111 A 
HETATM   13  C   UNK N   1      33.715  15.401   9.230  0.00  0.00     0.033 A 
HETATM   14  C   UNK N   1      33.774  16.628   8.553  0.00  0.00     0.024 A 
HETATM   15  H   UNK N   1      37.371  14.979  14.058  0.00  0.00     0.174 HD
HETATM   16  H   UNK N   1      36.693  13.416  14.139  0.00  0.00     0.174 HD
ENDROOT
BRANCH  14  17
HETATM   17  C   UNK N   1      32.848  16.756   7.303  0.00  0.00     0.044 A 
HETATM   18  C   UNK N   1      31.433  17.036   7.348  0.00  0.00     0.082 A 
HETATM   19  C   UNK N   1      30.691  17.133   6.158  0.00  0.00     0.038 A 
HETATM   20  C   UNK N   1      31.272  16.967   4.919  0.00  0.00     0.005 A 
HETATM   21  C   UNK N   1      32.618  16.697   4.832  0.00  0.00     0.038 A 
HETATM   22  C   UNK N   1      33.420  16.586   5.976  0.00  0.00     0.082 A 
BRANCH  18  23
HETATM   23  O   UNK N   1      30.777  17.210   8.511  0.00  0.00    -0.355 OA
HETATM   24  C   UNK N   1      30.403  18.436   9.020  0.00  0.00     0.210 C 
ENDBRANCH  18  23
BRANCH  22  25
HETATM   25  O   UNK N   1      34.741  16.319   5.803  0.00  0.00    -0.355 OA
HETATM   26  C   UNK N   1      35.263  15.062   5.583  0.00  0.00     0.210 C 
ENDBRANCH  22  25
ENDBRANCH  14  17
BRANCH  12  27
HETATM   27  N   UNK N   1      34.909  18.870   8.595  0.00  0.00    -0.385 N 
HETATM   28  H   UNK N   1      34.202  19.552   8.661  0.00  0.00     0.157 HD
HETATM   29  H   UNK N   1      35.764  19.088   8.158  0.00  0.00     0.157 HD
ENDBRANCH  12  27
TORSDOF 4
ENDMDL
MODEL 2
REMARK VINA RESULT:      -6.9      0.134      2.748
REMARK  4 active torsions:
REMARK  status: ('A' for Active; 'I' for Inactive)
REMARK       I    between atoms: N_1  and  C_2 
REMARK    1  A    between atoms: C_12  and  N_13 
REMARK    2  A    between atoms: C_15  and  C_16 
REMARK    3  A    between atoms: C_17  and  O_18 
REMARK    4  A    between atoms: C_20  and  O_21 
ROOT
HETATM    1  N   UNK N   1      36.765  14.220  13.668  0.00  0.00    -0.234 N 
HETATM    2  C   UNK N   1      36.013  14.504  12.512  0.00  0.00     0.677 A 
HETATM    3  N   UNK N   1      36.083  15.739  11.941  0.00  0.00    -0.176 N 
ATOM      4  HN  UNK N   1      36.681  16.455  12.355  1.00  0.00     0.186 HD
HETATM    5  N   UNK N   1      35.218  13.542  11.969  0.00  0.00    -0.201 N 
ATOM      6  HN  UNK N   1      35.173  12.621  12.404  1.00  0.00     0.183 HD
HETATM    7  C   UNK N   1      34.486  13.795  10.854  0.00  0.00     0.121 A 
HETATM    8  C   UNK N   1      34.551  15.050  10.265  0.00  0.00     0.025 A 
HETATM    9  C   UNK N   1      35.363  16.023  10.825  0.00  0.00     0.134 A 
HETATM   10  N   UNK N   1      35.429  17.246  10.251  0.00  0.00    -0.327 N 
ATOM     11  HN  UNK N   1      36.030  17.953  10.675  1.00  0.00     0.169 HD
HETATM   12  C   UNK N   1      34.726  17.576   9.126  0.00  0.00     0.111 A 
HETATM   13  C   UNK N   1      33.827  15.346   9.132  0.00  0.00     0.033 A 
HETATM   14  C   UNK N   1      33.860  16.596   8.495  0.00  0.00     0.024 A 
HETATM   15  H   UNK N   1      37.337  14.915  14.067  0.00  0.00     0.174 HD
HETATM   16  H   UNK N   1      36.720  13.325  14.077  0.00  0.00     0.174 HD
ENDROOT
BRANCH  14  17
HETATM   17  C   UNK N   1      32.971  16.727   7.219  0.00  0.00     0.044 A 
HETATM   18  C   UNK N   1      33.434  16.536   5.865  0.00  0.00     0.082 A 
HETATM   19  C   UNK N   1      32.544  16.675   4.785  0.00  0.00     0.038 A 
HETATM   20  C   UNK N   1      31.216  16.993   4.969  0.00  0.00     0.005 A 
HETATM   21  C   UNK N   1      30.735  17.185   6.243  0.00  0.00     0.038 A 
HETATM   22  C   UNK N   1      31.563  17.063   7.367  0.00  0.00     0.082 A 
BRANCH  18  23
HETATM   23  O   UNK N   1      34.714  16.226   5.586  0.00  0.00    -0.355 OA
HETATM   24  C   UNK N   1      35.195  14.941   5.453  0.00  0.00     0.210 C 
ENDBRANCH  18  23
BRANCH  22  25
HETATM   25  O   UNK N   1      31.008  17.267   8.591  0.00  0.00    -0.355 OA
HETATM   26  C   UNK N   1      30.301  18.393   8.952  0.00  0.00     0.210 C 
ENDBRANCH  22  25
ENDBRANCH  14  17
BRANCH  12  27
HETATM   27  N   UNK N   1      34.902  18.878   8.644  0.00  0.00    -0.385 N 
HETATM   28  H   UNK N   1      35.809  19.235   8.511  0.00  0.00     0.157 HD
HETATM   29  H   UNK N   1      34.117  19.437   8.437  0.00  0.00     0.157 HD
ENDBRANCH  12  27
TORSDOF 4
ENDMDL
MODEL 3
REMARK VINA RESULT:      -6.6     13.144     14.904
REMARK  4 active torsions:
REMARK  status: ('A' for Active; 'I' for Inactive)
REMARK       I    between atoms: N_1  and  C_2 
REMARK    1  A    between atoms: C_12  and  N_13 
REMARK    2  A    between atoms: C_15  and  C_16 
REMARK    3  A    between atoms: C_17  and  O_18 
REMARK    4  A    between atoms: C_20  and  O_21 
ROOT
HETATM    1  N   UNK N   1      20.457  20.909   0.436  0.00  0.00    -0.234 N 
HETATM    2  C   UNK N   1      20.672  20.129   1.588  0.00  0.00     0.677 A 
HETATM    3  N   UNK N   1      19.928  19.007   1.799  0.00  0.00    -0.176 N 
ATOM      4  HN  UNK N   1      19.217  18.736   1.119  1.00  0.00     0.186 HD
HETATM    5  N   UNK N   1      21.622  20.501   2.488  0.00  0.00    -0.201 N 
ATOM      6  HN  UNK N   1      22.173  21.343   2.321  1.00  0.00     0.183 HD
HETATM    7  C   UNK N   1      21.845  19.763   3.605  0.00  0.00     0.121 A 
HETATM    8  C   UNK N   1      21.093  18.617   3.829  0.00  0.00     0.025 A 
HETATM    9  C   UNK N   1      20.128  18.247   2.907  0.00  0.00     0.134 A 
HETATM   10  N   UNK N   1      19.396  17.130   3.121  0.00  0.00    -0.327 N 
ATOM     11  HN  UNK N   1      18.688  16.871   2.435  1.00  0.00     0.169 HD
HETATM   12  C   UNK N   1      19.564  16.334   4.219  0.00  0.00     0.111 A 
HETATM   13  C   UNK N   1      21.291  17.839   4.947  0.00  0.00     0.033 A 
HETATM   14  C   UNK N   1      20.562  16.671   5.218  0.00  0.00     0.024 A 
HETATM   15  H   UNK N   1      19.766  20.646  -0.216  0.00  0.00     0.174 HD
HETATM   16  H   UNK N   1      20.998  21.716   0.279  0.00  0.00     0.174 HD
ENDROOT
BRANCH  14  17
HETATM   17  C   UNK N   1      20.944  15.929   6.538  0.00  0.00     0.044 A 
HETATM   18  C   UNK N   1      20.392  16.219   7.839  0.00  0.00     0.082 A 
HETATM   19  C   UNK N   1      20.805  15.484   8.964  0.00  0.00     0.038 A 
HETATM   20  C   UNK N   1      21.738  14.474   8.875  0.00  0.00     0.005 A 
HETATM   21  C   UNK N   1      22.290  14.166   7.653  0.00  0.00     0.038 A 
HETATM   22  C   UNK N   1      21.926  14.856   6.489  0.00  0.00     0.082 A 
BRANCH  18  23
HETATM   23  O   UNK N   1      19.478  17.189   8.025  0.00  0.00    -0.355 OA
HETATM   24  C   UNK N   1      19.454  18.042   9.109  0.00  0.00     0.210 C 
ENDBRANCH  18  23
BRANCH  22  25
HETATM   25  O   UNK N   1      22.517  14.489   5.321  0.00  0.00    -0.355 OA
HETATM   26  C   UNK N   1      22.095  13.447   4.524  0.00  0.00     0.210 C 
ENDBRANCH  22  25
ENDBRANCH  14  17
BRANCH  12  27
HETATM   27  N   UNK N   1      18.738  15.206   4.301  0.00  0.00    -0.385 N 
HETATM   28  H   UNK N   1      18.761  14.636   5.103  0.00  0.00     0.157 HD
HETATM   29  H   UNK N   1      18.132  14.985   3.556  0.00  0.00     0.157 HD
ENDBRANCH  12  27
TORSDOF 4
ENDMDL
MODEL 4
REMARK VINA RESULT:      -6.5     11.950     15.135
REMARK  4 active torsions:
REMARK  status: ('A' for Active; 'I' for Inactive)
REMARK       I    between atoms: N_1  and  C_2 
REMARK    1  A    between atoms: C_12  and  N_13 
REMARK    2  A    between atoms: C_15  and  C_16 
REMARK    3  A    between atoms: C_17  and  O_18 
REMARK    4  A    between atoms: C_20  and  O_21 
ROOT
HETATM    1  N   UNK N   1      20.312  20.933   0.621  0.00  0.00    -0.234 N 
HETATM    2  C   UNK N   1      20.542  20.136   1.758  0.00  0.00     0.677 A 
HETATM    3  N   UNK N   1      19.855  18.971   1.922  0.00  0.00    -0.176 N 
ATOM      4  HN  UNK N   1      19.175  18.680   1.218  1.00  0.00     0.186 HD
HETATM    5  N   UNK N   1      21.450  20.533   2.690  0.00  0.00    -0.201 N 
ATOM      6  HN  UNK N   1      21.958  21.407   2.558  1.00  0.00     0.183 HD
HETATM    7  C   UNK N   1      21.686  19.778   3.793  0.00  0.00     0.121 A 
HETATM    8  C   UNK N   1      20.992  18.589   3.969  0.00  0.00     0.025 A 
HETATM    9  C   UNK N   1      20.070  18.193   3.015  0.00  0.00     0.134 A 
HETATM   10  N   UNK N   1      19.393  17.033   3.183  0.00  0.00    -0.327 N 
ATOM     11  HN  UNK N   1      18.717  16.755   2.473  1.00  0.00     0.169 HD
HETATM   12  C   UNK N   1      19.579  16.218   4.264  0.00  0.00     0.111 A 
HETATM   13  C   UNK N   1      21.205  17.793   5.071  0.00  0.00     0.033 A 
HETATM   14  C   UNK N   1      20.534  16.580   5.295  0.00  0.00     0.024 A 
HETATM   15  H   UNK N   1      19.651  20.652  -0.053  0.00  0.00     0.174 HD
HETATM   16  H   UNK N   1      20.813  21.773   0.498  0.00  0.00     0.174 HD
ENDROOT
BRANCH  14  17
HETATM   17  C   UNK N   1      20.925  15.824   6.604  0.00  0.00     0.044 A 
HETATM   18  C   UNK N   1      22.166  15.120   6.812  0.00  0.00     0.082 A 
HETATM   19  C   UNK N   1      22.418  14.473   8.035  0.00  0.00     0.038 A 
HETATM   20  C   UNK N   1      21.506  14.484   9.069  0.00  0.00     0.005 A 
HETATM   21  C   UNK N   1      20.309  15.143   8.910  0.00  0.00     0.038 A 
HETATM   22  C   UNK N   1      19.991  15.810   7.719  0.00  0.00     0.082 A 
BRANCH  18  23
HETATM   23  O   UNK N   1      23.116  15.051   5.861  0.00  0.00    -0.355 OA
HETATM   24  C   UNK N   1      24.455  15.302   6.075  0.00  0.00     0.210 C 
ENDBRANCH  18  23
BRANCH  22  25
HETATM   25  O   UNK N   1      18.787  16.437   7.645  0.00  0.00    -0.355 OA
HETATM   26  C   UNK N   1      18.229  17.181   8.662  0.00  0.00     0.210 C 
ENDBRANCH  22  25
ENDBRANCH  14  17
BRANCH  12  27
HETATM   27  N   UNK N   1      18.813  15.046   4.296  0.00  0.00    -0.385 N 
HETATM   28  H   UNK N   1      17.833  15.097   4.219  0.00  0.00     0.157 HD
HETATM   29  H   UNK N   1      19.254  14.171   4.396  0.00  0.00     0.157 HD
ENDBRANCH  12  27
TORSDOF 4
ENDMDL
MODEL 5
REMARK VINA RESULT:      -6.5      4.124      6.229
REMARK  4 active torsions:
REMARK  status: ('A' for Active; 'I' for Inactive)
REMARK       I    between atoms: N_1  and  C_2 
REMARK    1  A    between atoms: C_12  and  N_13 
REMARK    2  A    between atoms: C_15  and  C_16 
REMARK    3  A    between atoms: C_17  and  O_18 
REMARK    4  A    between atoms: C_20  and  O_21 
ROOT
HETATM    1  N   UNK N   1      34.328  16.863   9.281  0.00  0.00    -0.234 N 
HETATM    2  C   UNK N   1      33.175  17.037   8.491  0.00  0.00     0.677 A 
HETATM    3  N   UNK N   1      32.014  17.460   9.066  0.00  0.00    -0.176 N 
ATOM      4  HN  UNK N   1      31.985  17.649  10.068  1.00  0.00     0.186 HD
HETATM    5  N   UNK N   1      33.226  16.781   7.156  0.00  0.00    -0.201 N 
ATOM      6  HN  UNK N   1      34.100  16.464   6.736  1.00  0.00     0.183 HD
HETATM    7  C   UNK N   1      32.126  16.943   6.377  0.00  0.00     0.121 A 
HETATM    8  C   UNK N   1      30.939  17.375   6.952  0.00  0.00     0.025 A 
HETATM    9  C   UNK N   1      30.897  17.632   8.312  0.00  0.00     0.134 A 
HETATM   10  N   UNK N   1      29.742  18.055   8.875  0.00  0.00    -0.327 N 
ATOM     11  HN  UNK N   1      29.726  18.240   9.878  1.00  0.00     0.169 HD
HETATM   12  C   UNK N   1      28.594  18.246   8.157  0.00  0.00     0.111 A 
HETATM   13  C   UNK N   1      29.802  17.555   6.197  0.00  0.00     0.033 A 
HETATM   14  C   UNK N   1      28.579  17.993   6.727  0.00  0.00     0.024 A 
HETATM   15  H   UNK N   1      34.294  17.042  10.249  0.00  0.00     0.174 HD
HETATM   16  H   UNK N   1      35.169  16.564   8.866  0.00  0.00     0.174 HD
ENDROOT
BRANCH  14  17
HETATM   17  C   UNK N   1      27.412  18.139   5.701  0.00  0.00     0.044 A 
HETATM   18  C   UNK N   1      27.076  19.354   4.999  0.00  0.00     0.082 A 
HETATM   19  C   UNK N   1      26.003  19.375   4.090  0.00  0.00     0.038 A 
HETATM   20  C   UNK N   1      25.240  18.256   3.836  0.00  0.00     0.005 A 
HETATM   21  C   UNK N   1      25.525  17.078   4.486  0.00  0.00     0.038 A 
HETATM   22  C   UNK N   1      26.580  16.983   5.404  0.00  0.00     0.082 A 
BRANCH  18  23
HETATM   23  O   UNK N   1      27.762  20.498   5.183  0.00  0.00    -0.355 OA
HETATM   24  C   UNK N   1      27.396  21.495   6.063  0.00  0.00     0.210 C 
ENDBRANCH  18  23
BRANCH  22  25
HETATM   25  O   UNK N   1      26.796  15.782   6.001  0.00  0.00    -0.355 OA
HETATM   26  C   UNK N   1      25.957  15.208   6.932  0.00  0.00     0.210 C 
ENDBRANCH  22  25
ENDBRANCH  14  17
BRANCH  12  27
HETATM   27  N   UNK N   1      27.479  18.693   8.876  0.00  0.00    -0.385 N 
HETATM   28  H   UNK N   1      27.334  19.657   9.009  0.00  0.00     0.157 HD
HETATM   29  H   UNK N   1      26.839  18.042   9.247  0.00  0.00     0.157 HD
ENDBRANCH  12  27
TORSDOF 4
ENDMDL
MODEL 6
REMARK VINA RESULT:      -6.4     10.993     14.144
REMARK  4 active torsions:
REMARK  status: ('A' for Active; 'I' for Inactive)
REMARK       I    between atoms: N_1  and  C_2 
REMARK    1  A    between atoms: C_12  and  N_13 
REMARK    2  A    between atoms: C_15  and  C_16 
REMARK    3  A    between atoms: C_17  and  O_18 
REMARK    4  A    between atoms: C_20  and  O_21 
ROOT
HETATM    1  N   UNK N   1      20.646  21.174   0.413  0.00  0.00    -0.234 N 
HETATM    2  C   UNK N   1      20.659  20.266   1.488  0.00  0.00     0.677 A 
HETATM    3  N   UNK N   1      21.817  20.031   2.167  0.00  0.00    -0.176 N 
ATOM      4  HN  UNK N   1      22.672  20.516   1.893  1.00  0.00     0.186 HD
HETATM    5  N   UNK N   1      19.514  19.624   1.845  0.00  0.00    -0.201 N 
ATOM      6  HN  UNK N   1      18.653  19.806   1.329  1.00  0.00     0.183 HD
HETATM    7  C   UNK N   1      19.504  18.745   2.879  0.00  0.00     0.121 A 
HETATM    8  C   UNK N   1      20.679  18.500   3.578  0.00  0.00     0.025 A 
HETATM    9  C   UNK N   1      21.840  19.158   3.207  0.00  0.00     0.134 A 
HETATM   10  N   UNK N   1      22.985  18.922   3.888  0.00  0.00    -0.327 N 
ATOM     11  HN  UNK N   1      23.832  19.413   3.603  1.00  0.00     0.169 HD
HETATM   12  C   UNK N   1      23.055  18.055   4.942  0.00  0.00     0.111 A 
HETATM   13  C   UNK N   1      20.711  17.619   4.635  0.00  0.00     0.033 A 
HETATM   14  C   UNK N   1      21.869  17.339   5.376  0.00  0.00     0.024 A 
HETATM   15  H   UNK N   1      21.475  21.636   0.147  0.00  0.00     0.174 HD
HETATM   16  H   UNK N   1      19.809  21.349  -0.075  0.00  0.00     0.174 HD
ENDROOT
BRANCH  14  17
HETATM   17  C   UNK N   1      21.693  16.314   6.541  0.00  0.00     0.044 A 
HETATM   18  C   UNK N   1      20.970  16.568   7.763  0.00  0.00     0.082 A 
HETATM   19  C   UNK N   1      20.870  15.569   8.748  0.00  0.00     0.038 A 
HETATM   20  C   UNK N   1      21.449  14.328   8.592  0.00  0.00     0.005 A 
HETATM   21  C   UNK N   1      22.149  14.047   7.442  0.00  0.00     0.038 A 
HETATM   22  C   UNK N   1      22.290  14.993   6.418  0.00  0.00     0.082 A 
BRANCH  18  23
HETATM   23  O   UNK N   1      20.373  17.750   8.007  0.00  0.00    -0.355 OA
HETATM   24  C   UNK N   1      19.480  17.977   9.033  0.00  0.00     0.210 C 
ENDBRANCH  18  23
BRANCH  22  25
HETATM   25  O   UNK N   1      22.996  14.633   5.314  0.00  0.00    -0.355 OA
HETATM   26  C   UNK N   1      24.320  14.251   5.322  0.00  0.00     0.210 C 
ENDBRANCH  22  25
ENDBRANCH  14  17
BRANCH  12  27
HETATM   27  N   UNK N   1      24.307  17.920   5.553  0.00  0.00    -0.385 N 
HETATM   28  H   UNK N   1      24.882  18.710   5.677  0.00  0.00     0.157 HD
HETATM   29  H   UNK N   1      24.613  17.036   5.860  0.00  0.00     0.157 HD
ENDBRANCH  12  27
TORSDOF 4
ENDMDL
MODEL 7
REMARK VINA RESULT:      -6.3      4.670      6.713
REMARK  4 active torsions:
REMARK  status: ('A' for Active; 'I' for Inactive)
REMARK       I    between atoms: N_1  and  C_2 
REMARK    1  A    between atoms: C_12  and  N_13 
REMARK    2  A    between atoms: C_15  and  C_16 
REMARK    3  A    between atoms: C_17  and  O_18 
REMARK    4  A    between atoms: C_20  and  O_21 
ROOT
HETATM    1  N   UNK N   1      32.901  15.866   9.438  0.00  0.00    -0.234 N 
HETATM    2  C   UNK N   1      31.823  16.405   8.709  0.00  0.00     0.677 A 
HETATM    3  N   UNK N   1      31.808  16.315   7.350  0.00  0.00    -0.176 N 
ATOM      4  HN  UNK N   1      32.580  15.857   6.864  1.00  0.00     0.186 HD
HETATM    5  N   UNK N   1      30.800  17.013   9.367  0.00  0.00    -0.201 N 
ATOM      6  HN  UNK N   1      30.821  17.076  10.385  1.00  0.00     0.183 HD
HETATM    7  C   UNK N   1      29.750  17.538   8.684  0.00  0.00     0.121 A 
HETATM    8  C   UNK N   1      29.725  17.451   7.299  0.00  0.00     0.025 A 
HETATM    9  C   UNK N   1      30.772  16.830   6.638  0.00  0.00     0.134 A 
HETATM   10  N   UNK N   1      30.749  16.742   5.288  0.00  0.00    -0.327 N 
ATOM     11  HN  UNK N   1      31.526  16.283   4.815  1.00  0.00     0.169 HD
HETATM   12  C   UNK N   1      29.726  17.242   4.531  0.00  0.00     0.111 A 
HETATM   13  C   UNK N   1      28.679  17.967   6.569  0.00  0.00     0.033 A 
HETATM   14  C   UNK N   1      28.602  17.902   5.169  0.00  0.00     0.024 A 
HETATM   15  H   UNK N   1      33.647  15.430   8.964  0.00  0.00     0.174 HD
HETATM   16  H   UNK N   1      32.910  15.925  10.420  0.00  0.00     0.174 HD
ENDROOT
BRANCH  14  17
HETATM   17  C   UNK N   1      27.328  18.542   4.533  0.00  0.00     0.044 A 
HETATM   18  C   UNK N   1      26.988  19.942   4.594  0.00  0.00     0.082 A 
HETATM   19  C   UNK N   1      25.813  20.415   3.981  0.00  0.00     0.038 A 
HETATM   20  C   UNK N   1      24.952  19.575   3.308  0.00  0.00     0.005 A 
HETATM   21  C   UNK N   1      25.239  18.232   3.227  0.00  0.00     0.038 A 
HETATM   22  C   UNK N   1      26.392  17.691   3.814  0.00  0.00     0.082 A 
BRANCH  18  23
HETATM   23  O   UNK N   1      27.764  20.838   5.232  0.00  0.00    -0.355 OA
HETATM   24  C   UNK N   1      27.376  21.560   6.340  0.00  0.00     0.210 C 
ENDBRANCH  18  23
BRANCH  22  25
HETATM   25  O   UNK N   1      26.602  16.354   3.686  0.00  0.00    -0.355 OA
HETATM   26  C   UNK N   1      26.510  15.657   2.501  0.00  0.00     0.210 C 
ENDBRANCH  22  25
ENDBRANCH  14  17
BRANCH  12  27
HETATM   27  N   UNK N   1      29.838  17.069   3.146  0.00  0.00    -0.385 N 
HETATM   28  H   UNK N   1      29.231  16.452   2.676  0.00  0.00     0.157 HD
HETATM   29  H   UNK N   1      30.522  17.566   2.641  0.00  0.00     0.157 HD
ENDBRANCH  12  27
TORSDOF 4
ENDMDL
MODEL 8
REMARK VINA RESULT:      -6.3      3.639      5.983
REMARK  4 active torsions:
REMARK  status: ('A' for Active; 'I' for Inactive)
REMARK       I    between atoms: N_1  and  C_2 
REMARK    1  A    between atoms: C_12  and  N_13 
REMARK    2  A    between atoms: C_15  and  C_16 
REMARK    3  A    between atoms: C_17  and  O_18 
REMARK    4  A    between atoms: C_20  and  O_21 
ROOT
HETATM    1  N   UNK N   1      34.837  17.526   9.275  0.00  0.00    -0.234 N 
HETATM    2  C   UNK N   1      33.646  17.437   8.530  0.00  0.00     0.677 A 
HETATM    3  N   UNK N   1      33.689  17.487   7.169  0.00  0.00    -0.176 N 
ATOM      4  HN  UNK N   1      34.587  17.590   6.694  1.00  0.00     0.186 HD
HETATM    5  N   UNK N   1      32.455  17.301   9.173  0.00  0.00    -0.201 N 
ATOM      6  HN  UNK N   1      32.434  17.265  10.192  1.00  0.00     0.183 HD
HETATM    7  C   UNK N   1      31.295  17.212   8.474  0.00  0.00     0.121 A 
HETATM    8  C   UNK N   1      31.329  17.262   7.087  0.00  0.00     0.025 A 
HETATM    9  C   UNK N   1      32.546  17.401   6.441  0.00  0.00     0.134 A 
HETATM   10  N   UNK N   1      32.581  17.447   5.089  0.00  0.00    -0.327 N 
ATOM     11  HN  UNK N   1      33.484  17.550   4.627  1.00  0.00     0.169 HD
HETATM   12  C   UNK N   1      31.457  17.360   4.316  0.00  0.00     0.111 A 
HETATM   13  C   UNK N   1      30.176  17.172   6.340  0.00  0.00     0.033 A 
HETATM   14  C   UNK N   1      30.154  17.212   4.937  0.00  0.00     0.024 A 
HETATM   15  H   UNK N   1      35.701  17.630   8.813  0.00  0.00     0.174 HD
HETATM   16  H   UNK N   1      34.808  17.483  10.258  0.00  0.00     0.174 HD
ENDROOT
BRANCH  14  17
HETATM   17  C   UNK N   1      28.744  17.088   4.280  0.00  0.00     0.044 A 
HETATM   18  C   UNK N   1      28.209  15.883   3.693  0.00  0.00     0.082 A 
HETATM   19  C   UNK N   1      26.920  15.881   3.129  0.00  0.00     0.038 A 
HETATM   20  C   UNK N   1      26.128  17.008   3.113  0.00  0.00     0.005 A 
HETATM   21  C   UNK N   1      26.601  18.178   3.661  0.00  0.00     0.038 A 
HETATM   22  C   UNK N   1      27.875  18.254   4.241  0.00  0.00     0.082 A 
BRANCH  18  23
HETATM   23  O   UNK N   1      28.909  14.734   3.659  0.00  0.00    -0.355 OA
HETATM   24  C   UNK N   1      29.463  14.190   2.519  0.00  0.00     0.210 C 
ENDBRANCH  18  23
BRANCH  22  25
HETATM   25  O   UNK N   1      28.266  19.447   4.761  0.00  0.00    -0.355 OA
HETATM   26  C   UNK N   1      27.422  20.347   5.376  0.00  0.00     0.210 C 
ENDBRANCH  22  25
ENDBRANCH  14  17
BRANCH  12  27
HETATM   27  N   UNK N   1      31.652  17.416   2.930  0.00  0.00    -0.385 N 
HETATM   28  H   UNK N   1      31.251  16.730   2.349  0.00  0.00     0.157 HD
HETATM   29  H   UNK N   1      32.190  18.141   2.537  0.00  0.00     0.157 HD
ENDBRANCH  12  27
TORSDOF 4
ENDMDL
MODEL 9
REMARK VINA RESULT:      -6.3      2.212      2.573
REMARK  4 active torsions:
REMARK  status: ('A' for Active; 'I' for Inactive)
REMARK       I    between atoms: N_1  and  C_2 
REMARK    1  A    between atoms: C_12  and  N_13 
REMARK    2  A    between atoms: C_15  and  C_16 
REMARK    3  A    between atoms: C_17  and  O_18 
REMARK    4  A    between atoms: C_20  and  O_21 
ROOT
HETATM    1  N   UNK N   1      37.129  12.997  13.817  0.00  0.00    -0.234 N 
HETATM    2  C   UNK N   1      36.689  13.473  12.569  0.00  0.00     0.677 A 
HETATM    3  N   UNK N   1      35.380  13.809  12.391  0.00  0.00    -0.176 N 
ATOM      4  HN  UNK N   1      34.722  13.712  13.165  1.00  0.00     0.186 HD
HETATM    5  N   UNK N   1      37.573  13.598  11.542  0.00  0.00    -0.201 N 
ATOM      6  HN  UNK N   1      38.551  13.344  11.685  1.00  0.00     0.183 HD
HETATM    7  C   UNK N   1      37.169  14.056  10.330  0.00  0.00     0.121 A 
HETATM    8  C   UNK N   1      35.838  14.401  10.139  0.00  0.00     0.025 A 
HETATM    9  C   UNK N   1      34.945  14.271  11.190  0.00  0.00     0.134 A 
HETATM   10  N   UNK N   1      33.648  14.609  11.007  0.00  0.00    -0.327 N 
ATOM     11  HN  UNK N   1      33.002  14.507  11.789  1.00  0.00     0.169 HD
HETATM   12  C   UNK N   1      33.166  15.082   9.818  0.00  0.00     0.111 A 
HETATM   13  C   UNK N   1      35.389  14.874   8.927  0.00  0.00     0.033 A 
HETATM   14  C   UNK N   1      34.057  15.240   8.682  0.00  0.00     0.024 A 
HETATM   15  H   UNK N   1      36.490  12.900  14.561  0.00  0.00     0.174 HD
HETATM   16  H   UNK N   1      38.076  12.760  13.949  0.00  0.00     0.174 HD
ENDROOT
BRANCH  14  17
HETATM   17  C   UNK N   1      33.753  15.758   7.241  0.00  0.00     0.044 A 
HETATM   18  C   UNK N   1      33.555  17.143   6.885  0.00  0.00     0.082 A 
HETATM   19  C   UNK N   1      33.289  17.501   5.551  0.00  0.00     0.038 A 
HETATM   20  C   UNK N   1      33.207  16.563   4.546  0.00  0.00     0.005 A 
HETATM   21  C   UNK N   1      33.387  15.232   4.843  0.00  0.00     0.038 A 
HETATM   22  C   UNK N   1      33.656  14.801   6.150  0.00  0.00     0.082 A 
BRANCH  18  23
HETATM   23  O   UNK N   1      33.614  18.129   7.799  0.00  0.00    -0.355 OA
HETATM   24  C   UNK N   1      34.783  18.652   8.310  0.00  0.00     0.210 C 
ENDBRANCH  18  23
BRANCH  22  25
HETATM   25  O   UNK N   1      33.823  13.469   6.358  0.00  0.00    -0.355 OA
HETATM   26  C   UNK N   1      34.517  12.626   5.517  0.00  0.00     0.210 C 
ENDBRANCH  22  25
ENDBRANCH  14  17
BRANCH  12  27
HETATM   27  N   UNK N   1      31.803  15.396   9.782  0.00  0.00    -0.385 N 
HETATM   28  H   UNK N   1      31.132  14.676   9.760  0.00  0.00     0.157 HD
HETATM   29  H   UNK N   1      31.514  16.338   9.779  0.00  0.00     0.157 HD
ENDBRANCH  12  27
TORSDOF 4
ENDMDL
