MODEL 1
REMARK VINA RESULT:      -7.0      0.000      0.000
REMARK  2 active torsions:
REMARK  status: ('A' for Active; 'I' for Inactive)
REMARK       I    between atoms: N_1  and  C_2 
REMARK    1  A    between atoms: C_13  and  N_14 
REMARK    2  A    between atoms: C_19  and  C_20 
ROOT
HETATM    1  N   UNK N   1      37.247  14.292   9.432  0.00  0.00    -0.234 N 
HETATM    2  C   UNK N   1      36.913  14.101  10.787  0.00  0.00     0.677 A 
HETATM    3  N   UNK N   1      36.455  15.148  11.527  0.00  0.00    -0.201 N 
ATOM      4  HN  UNK N   1      36.362  16.067  11.096  1.00  0.00     0.183 HD
HETATM    5  C   UNK N   1      36.121  14.981  12.834  0.00  0.00     0.121 A 
HETATM    6  C   UNK N   1      36.248  13.726  13.421  0.00  0.00     0.025 A 
HETATM    7  C   UNK N   1      35.919  13.510  14.747  0.00  0.00     0.032 A 
HETATM    8  N   UNK N   1      37.046  12.870  11.351  0.00  0.00    -0.176 N 
ATOM      9  HN  UNK N   1      37.392  12.091  10.791  1.00  0.00     0.186 HD
HETATM   10  C   UNK N   1      36.723  12.669  12.656  0.00  0.00     0.134 A 
HETATM   11  N   UNK N   1      36.847  11.441  13.210  0.00  0.00    -0.327 N 
ATOM     12  HN  UNK N   1      37.196  10.683  12.624  1.00  0.00     0.169 HD
HETATM   13  C   UNK N   1      36.529  11.157  14.512  0.00  0.00     0.116 A 
HETATM   14  C   UNK N   1      36.052  12.244  15.353  0.00  0.00     0.019 A 
HETATM   15  H   UNK N   1      37.166  15.185   9.026  0.00  0.00     0.174 HD
HETATM   16  H   UNK N   1      37.560  13.532   8.890  0.00  0.00     0.174 HD
ENDROOT
BRANCH  14  17
HETATM   17  C   UNK N   1      35.704  12.224  16.822  0.00  0.00    -0.022 A 
HETATM   18  C   UNK N   1      35.399  13.446  17.462  0.00  0.00     0.012 A 
HETATM   19  C   UNK N   1      35.107  13.497  18.827  0.00  0.00     0.001 A 
HETATM   20  C   UNK N   1      35.132  12.330  19.587  0.00  0.00     0.000 A 
HETATM   21  C   UNK N   1      35.462  11.117  18.982  0.00  0.00     0.001 A 
HETATM   22  C   UNK N   1      35.756  11.072  17.615  0.00  0.00     0.012 A 
ENDBRANCH  14  17
BRANCH  13  23
HETATM   23  N   UNK N   1      36.651   9.777  14.901  0.00  0.00    -0.360 N 
HETATM   24  C   UNK N   1      37.798   9.147  15.499  0.00  0.00     0.151 A 
HETATM   25  C   UNK N   1      37.294   7.786  15.820  0.00  0.00    -0.010 A 
HETATM   26  C   UNK N   1      36.017   7.659  15.495  0.00  0.00    -0.010 A 
HETATM   27  C   UNK N   1      35.490   8.915  14.903  0.00  0.00     0.151 A 
ENDBRANCH  13  23
TORSDOF 2
ENDMDL
MODEL 2
REMARK VINA RESULT:      -6.8     22.489     25.805
REMARK  2 active torsions:
REMARK  status: ('A' for Active; 'I' for Inactive)
REMARK       I    between atoms: N_1  and  C_2 
REMARK    1  A    between atoms: C_13  and  N_14 
REMARK    2  A    between atoms: C_19  and  C_20 
ROOT
HETATM    1  N   UNK N   1      26.508  29.681  -2.851  0.00  0.00    -0.234 N 
HETATM    2  C   UNK N   1      26.335  28.522  -3.633  0.00  0.00     0.677 A 
HETATM    3  N   UNK N   1      25.281  28.433  -4.490  0.00  0.00    -0.201 N 
ATOM      4  HN  UNK N   1      24.619  29.205  -4.556  1.00  0.00     0.183 HD
HETATM    5  C   UNK N   1      25.102  27.327  -5.259  0.00  0.00     0.121 A 
HETATM    6  C   UNK N   1      26.007  26.273  -5.169  0.00  0.00     0.025 A 
HETATM    7  C   UNK N   1      25.864  25.129  -5.932  0.00  0.00     0.032 A 
HETATM    8  N   UNK N   1      27.224  27.497  -3.534  0.00  0.00    -0.176 N 
ATOM      9  HN  UNK N   1      28.010  27.570  -2.887  1.00  0.00     0.186 HD
HETATM   10  C   UNK N   1      27.073  26.375  -4.285  0.00  0.00     0.134 A 
HETATM   11  N   UNK N   1      27.965  25.363  -4.190  0.00  0.00    -0.327 N 
ATOM     12  HN  UNK N   1      28.740  25.465  -3.535  1.00  0.00     0.169 HD
HETATM   13  C   UNK N   1      27.889  24.208  -4.923  0.00  0.00     0.116 A 
HETATM   14  C   UNK N   1      26.771  24.054  -5.842  0.00  0.00     0.019 A 
HETATM   15  H   UNK N   1      25.857  30.417  -2.910  0.00  0.00     0.174 HD
HETATM   16  H   UNK N   1      27.280  29.754  -2.245  0.00  0.00     0.174 HD
ENDROOT
BRANCH  14  17
HETATM   17  C   UNK N   1      26.411  22.869  -6.706  0.00  0.00    -0.022 A 
HETATM   18  C   UNK N   1      25.122  22.305  -6.580  0.00  0.00     0.012 A 
HETATM   19  C   UNK N   1      24.742  21.186  -7.324  0.00  0.00     0.001 A 
HETATM   20  C   UNK N   1      25.651  20.592  -8.197  0.00  0.00     0.000 A 
HETATM   21  C   UNK N   1      26.940  21.112  -8.314  0.00  0.00     0.001 A 
HETATM   22  C   UNK N   1      27.314  22.233  -7.565  0.00  0.00     0.012 A 
ENDBRANCH  14  17
BRANCH  13  23
HETATM   23  N   UNK N   1      28.973  23.278  -4.745  0.00  0.00    -0.360 N 
HETATM   24  C   UNK N   1      29.990  22.944  -5.706  0.00  0.00     0.151 A 
HETATM   25  C   UNK N   1      30.906  22.074  -4.923  0.00  0.00    -0.010 A 
HETATM   26  C   UNK N   1      30.502  21.958  -3.668  0.00  0.00    -0.010 A 
HETATM   27  C   UNK N   1      29.253  22.727  -3.437  0.00  0.00     0.151 A 
ENDBRANCH  13  23
TORSDOF 2
ENDMDL
MODEL 3
REMARK VINA RESULT:      -6.8     21.580     25.413
REMARK  2 active torsions:
REMARK  status: ('A' for Active; 'I' for Inactive)
REMARK       I    between atoms: N_1  and  C_2 
REMARK    1  A    between atoms: C_13  and  N_14 
REMARK    2  A    between atoms: C_19  and  C_20 
ROOT
HETATM    1  N   UNK N   1      32.025  19.790  -4.060  0.00  0.00    -0.234 N 
HETATM    2  C   UNK N   1      31.274  20.980  -4.010  0.00  0.00     0.677 A 
HETATM    3  N   UNK N   1      31.437  21.842  -2.968  0.00  0.00    -0.201 N 
ATOM      4  HN  UNK N   1      32.100  21.617  -2.227  1.00  0.00     0.183 HD
HETATM    5  C   UNK N   1      30.726  22.999  -2.906  0.00  0.00     0.121 A 
HETATM    6  C   UNK N   1      29.822  23.306  -3.919  0.00  0.00     0.025 A 
HETATM    7  C   UNK N   1      29.079  24.472  -3.897  0.00  0.00     0.032 A 
HETATM    8  N   UNK N   1      30.390  21.268  -5.003  0.00  0.00    -0.176 N 
ATOM      9  HN  UNK N   1      30.271  20.616  -5.779  1.00  0.00     0.186 HD
HETATM   10  C   UNK N   1      29.661  22.414  -4.970  0.00  0.00     0.134 A 
HETATM   11  N   UNK N   1      28.791  22.700  -5.966  0.00  0.00    -0.327 N 
ATOM     12  HN  UNK N   1      28.694  22.029  -6.727  1.00  0.00     0.169 HD
HETATM   13  C   UNK N   1      28.032  23.840  -6.011  0.00  0.00     0.116 A 
HETATM   14  C   UNK N   1      28.155  24.788  -4.914  0.00  0.00     0.019 A 
HETATM   15  H   UNK N   1      32.654  19.574  -3.335  0.00  0.00     0.174 HD
HETATM   16  H   UNK N   1      31.922  19.175  -4.822  0.00  0.00     0.174 HD
ENDROOT
BRANCH  14  17
HETATM   17  C   UNK N   1      27.395  26.071  -4.679  0.00  0.00    -0.022 A 
HETATM   18  C   UNK N   1      26.607  26.188  -3.512  0.00  0.00     0.012 A 
HETATM   19  C   UNK N   1      25.851  27.335  -3.258  0.00  0.00     0.001 A 
HETATM   20  C   UNK N   1      25.850  28.382  -4.176  0.00  0.00     0.000 A 
HETATM   21  C   UNK N   1      26.595  28.276  -5.351  0.00  0.00     0.001 A 
HETATM   22  C   UNK N   1      27.349  27.124  -5.600  0.00  0.00     0.012 A 
ENDBRANCH  14  17
BRANCH  13  23
HETATM   23  N   UNK N   1      27.222  24.009  -7.188  0.00  0.00    -0.360 N 
HETATM   24  C   UNK N   1      25.799  23.822  -7.290  0.00  0.00     0.151 A 
HETATM   25  C   UNK N   1      25.506  24.286  -8.672  0.00  0.00    -0.010 A 
HETATM   26  C   UNK N   1      26.601  24.726  -9.271  0.00  0.00    -0.010 A 
HETATM   27  C   UNK N   1      27.782  24.610  -8.379  0.00  0.00     0.151 A 
ENDBRANCH  13  23
TORSDOF 2
ENDMDL
MODEL 4
REMARK VINA RESULT:      -6.8      6.606     10.562
REMARK  2 active torsions:
REMARK  status: ('A' for Active; 'I' for Inactive)
REMARK       I    between atoms: N_1  and  C_2 
REMARK    1  A    between atoms: C_13  and  N_14 
REMARK    2  A    between atoms: C_19  and  C_20 
ROOT
HETATM    1  N   UNK N   1      27.442  19.052   8.686  0.00  0.00    -0.234 N 
HETATM    2  C   UNK N   1      28.535  18.407   8.075  0.00  0.00     0.677 A 
HETATM    3  N   UNK N   1      28.529  18.187   6.731  0.00  0.00    -0.201 N 
ATOM      4  HN  UNK N   1      27.729  18.488   6.175  1.00  0.00     0.183 HD
HETATM    5  C   UNK N   1      29.578  17.574   6.123  0.00  0.00     0.121 A 
HETATM    6  C   UNK N   1      30.671  17.165   6.882  0.00  0.00     0.025 A 
HETATM    7  C   UNK N   1      31.759  16.538   6.306  0.00  0.00     0.032 A 
HETATM    8  N   UNK N   1      29.595  18.008   8.828  0.00  0.00    -0.176 N 
ATOM      9  HN  UNK N   1      29.591  18.174   9.835  1.00  0.00     0.186 HD
HETATM   10  C   UNK N   1      30.659  17.389   8.253  0.00  0.00     0.134 A 
HETATM   11  N   UNK N   1      31.716  17.004   9.004  0.00  0.00    -0.327 N 
ATOM     12  HN  UNK N   1      31.682  17.183  10.008  1.00  0.00     0.169 HD
HETATM   13  C   UNK N   1      32.829  16.388   8.496  0.00  0.00     0.116 A 
HETATM   14  C   UNK N   1      32.867  16.114   7.068  0.00  0.00     0.019 A 
HETATM   15  H   UNK N   1      26.667  19.327   8.144  0.00  0.00     0.174 HD
HETATM   16  H   UNK N   1      27.453  19.228   9.654  0.00  0.00     0.174 HD
ENDROOT
BRANCH  14  17
HETATM   17  C   UNK N   1      33.925  15.393   6.269  0.00  0.00    -0.022 A 
HETATM   18  C   UNK N   1      33.575  14.854   5.010  0.00  0.00     0.012 A 
HETATM   19  C   UNK N   1      34.499  14.143   4.241  0.00  0.00     0.001 A 
HETATM   20  C   UNK N   1      35.790  13.938   4.722  0.00  0.00     0.000 A 
HETATM   21  C   UNK N   1      36.149  14.432   5.976  0.00  0.00     0.001 A 
HETATM   22  C   UNK N   1      35.218  15.142   6.742  0.00  0.00     0.012 A 
ENDBRANCH  14  17
BRANCH  13  23
HETATM   23  N   UNK N   1      33.885  16.124   9.437  0.00  0.00    -0.360 N 
HETATM   24  C   UNK N   1      34.938  17.024   9.828  0.00  0.00     0.151 A 
HETATM   25  C   UNK N   1      35.616  16.278  10.920  0.00  0.00    -0.010 A 
HETATM   26  C   UNK N   1      35.011  15.126  11.162  0.00  0.00    -0.010 A 
HETATM   27  C   UNK N   1      33.849  14.934  10.259  0.00  0.00     0.151 A 
ENDBRANCH  13  23
TORSDOF 2
ENDMDL
MODEL 5
REMARK VINA RESULT:      -6.7     10.623     13.385
REMARK  2 active torsions:
REMARK  status: ('A' for Active; 'I' for Inactive)
REMARK       I    between atoms: N_1  and  C_2 
REMARK    1  A    between atoms: C_13  and  N_14 
REMARK    2  A    between atoms: C_19  and  C_20 
ROOT
HETATM    1  N   UNK N   1      35.028  14.091   4.737  0.00  0.00    -0.234 N 
HETATM    2  C   UNK N   1      33.829  14.800   4.527  0.00  0.00     0.677 A 
HETATM    3  N   UNK N   1      33.333  14.936   3.266  0.00  0.00    -0.201 N 
ATOM      4  HN  UNK N   1      33.838  14.528   2.480  1.00  0.00     0.183 HD
HETATM    5  C   UNK N   1      32.174  15.609   3.043  0.00  0.00     0.121 A 
HETATM    6  C   UNK N   1      31.485  16.166   4.117  0.00  0.00     0.025 A 
HETATM    7  C   UNK N   1      30.302  16.859   3.938  0.00  0.00     0.032 A 
HETATM    8  N   UNK N   1      33.166  15.343   5.584  0.00  0.00    -0.176 N 
ATOM      9  HN  UNK N   1      33.545  15.239   6.526  1.00  0.00     0.186 HD
HETATM   10  C   UNK N   1      32.006  16.025   5.397  0.00  0.00     0.134 A 
HETATM   11  N   UNK N   1      31.346  16.554   6.452  0.00  0.00    -0.327 N 
ATOM     12  HN  UNK N   1      31.750  16.434   7.381  1.00  0.00     0.169 HD
HETATM   13  C   UNK N   1      30.166  17.242   6.346  0.00  0.00     0.116 A 
HETATM   14  C   UNK N   1      29.601  17.432   5.019  0.00  0.00     0.019 A 
HETATM   15  H   UNK N   1      35.516  13.711   3.972  0.00  0.00     0.174 HD
HETATM   16  H   UNK N   1      35.377  13.976   5.651  0.00  0.00     0.174 HD
ENDROOT
BRANCH  14  17
HETATM   17  C   UNK N   1      28.367  18.202   4.614  0.00  0.00    -0.022 A 
HETATM   18  C   UNK N   1      27.321  17.511   3.962  0.00  0.00     0.012 A 
HETATM   19  C   UNK N   1      26.171  18.174   3.530  0.00  0.00     0.001 A 
HETATM   20  C   UNK N   1      26.049  19.548   3.721  0.00  0.00     0.000 A 
HETATM   21  C   UNK N   1      27.083  20.257   4.334  0.00  0.00     0.001 A 
HETATM   22  C   UNK N   1      28.233  19.587   4.763  0.00  0.00     0.012 A 
ENDBRANCH  14  17
BRANCH  13  23
HETATM   23  N   UNK N   1      29.571  17.663   7.587  0.00  0.00    -0.360 N 
HETATM   24  C   UNK N   1      28.237  17.377   8.044  0.00  0.00     0.151 A 
HETATM   25  C   UNK N   1      28.243  17.919   9.429  0.00  0.00    -0.010 A 
HETATM   26  C   UNK N   1      29.431  18.409   9.747  0.00  0.00    -0.010 A 
HETATM   27  C   UNK N   1      30.384  18.272   8.616  0.00  0.00     0.151 A 
ENDBRANCH  13  23
TORSDOF 2
ENDMDL
MODEL 6
REMARK VINA RESULT:      -6.6     11.917     14.951
REMARK  2 active torsions:
REMARK  status: ('A' for Active; 'I' for Inactive)
REMARK       I    between atoms: N_1  and  C_2 
REMARK    1  A    between atoms: C_13  and  N_14 
REMARK    2  A    between atoms: C_19  and  C_20 
ROOT
HETATM    1  N   UNK N   1      24.425  14.036   1.339  0.00  0.00    -0.234 N 
HETATM    2  C   UNK N   1      25.643  14.444   1.916  0.00  0.00     0.677 A 
HETATM    3  N   UNK N   1      26.765  13.694   1.736  0.00  0.00    -0.201 N 
ATOM      4  HN  UNK N   1      26.714  12.837   1.186  1.00  0.00     0.183 HD
HETATM    5  C   UNK N   1      27.951  14.075   2.278  0.00  0.00     0.121 A 
HETATM    6  C   UNK N   1      28.019  15.246   3.027  0.00  0.00     0.025 A 
HETATM    7  C   UNK N   1      29.204  15.673   3.598  0.00  0.00     0.032 A 
HETATM    8  N   UNK N   1      25.697  15.588   2.650  0.00  0.00    -0.176 N 
ATOM      9  HN  UNK N   1      24.851  16.144   2.784  1.00  0.00     0.186 HD
HETATM   10  C   UNK N   1      26.865  15.997   3.210  0.00  0.00     0.134 A 
HETATM   11  N   UNK N   1      26.916  17.141   3.930  0.00  0.00    -0.327 N 
ATOM     12  HN  UNK N   1      26.054  17.675   4.045  1.00  0.00     0.169 HD
HETATM   13  C   UNK N   1      28.058  17.626   4.512  0.00  0.00     0.116 A 
HETATM   14  C   UNK N   1      29.282  16.853   4.364  0.00  0.00     0.019 A 
HETATM   15  H   UNK N   1      24.381  13.201   0.821  0.00  0.00     0.174 HD
HETATM   16  H   UNK N   1      23.617  14.588   1.453  0.00  0.00     0.174 HD
ENDROOT
BRANCH  14  17
HETATM   17  C   UNK N   1      30.646  17.116   4.955  0.00  0.00    -0.022 A 
HETATM   18  C   UNK N   1      31.717  17.414   4.082  0.00  0.00     0.012 A 
HETATM   19  C   UNK N   1      33.010  17.629   4.565  0.00  0.00     0.001 A 
HETATM   20  C   UNK N   1      33.265  17.531   5.931  0.00  0.00     0.000 A 
HETATM   21  C   UNK N   1      32.230  17.207   6.808  0.00  0.00     0.001 A 
HETATM   22  C   UNK N   1      30.938  16.991   6.318  0.00  0.00     0.012 A 
ENDBRANCH  14  17
BRANCH  13  23
HETATM   23  N   UNK N   1      27.935  18.899   5.172  0.00  0.00    -0.360 N 
HETATM   24  C   UNK N   1      27.714  20.176   4.548  0.00  0.00     0.151 A 
HETATM   25  C   UNK N   1      27.516  21.079   5.713  0.00  0.00    -0.010 A 
HETATM   26  C   UNK N   1      27.568  20.408   6.853  0.00  0.00    -0.010 A 
HETATM   27  C   UNK N   1      27.816  18.964   6.612  0.00  0.00     0.151 A 
ENDBRANCH  13  23
TORSDOF 2
ENDMDL
MODEL 7
REMARK VINA RESULT:      -6.6      2.625      5.945
REMARK  2 active torsions:
REMARK  status: ('A' for Active; 'I' for Inactive)
REMARK       I    between atoms: N_1  and  C_2 
REMARK    1  A    between atoms: C_13  and  N_14 
REMARK    2  A    between atoms: C_19  and  C_20 
ROOT
HETATM    1  N   UNK N   1      34.937  13.214  20.154  0.00  0.00    -0.234 N 
HETATM    2  C   UNK N   1      35.302  13.423  18.810  0.00  0.00     0.677 A 
HETATM    3  N   UNK N   1      35.917  14.583  18.446  0.00  0.00    -0.201 N 
ATOM      4  HN  UNK N   1      36.105  15.295  19.150  1.00  0.00     0.183 HD
HETATM    5  C   UNK N   1      36.283  14.799  17.156  0.00  0.00     0.121 A 
HETATM    6  C   UNK N   1      36.027  13.825  16.195  0.00  0.00     0.025 A 
HETATM    7  C   UNK N   1      36.383  14.003  14.871  0.00  0.00     0.032 A 
HETATM    8  N   UNK N   1      35.042  12.466  17.879  0.00  0.00    -0.176 N 
ATOM      9  HN  UNK N   1      34.578  11.601  18.158  1.00  0.00     0.186 HD
HETATM   10  C   UNK N   1      35.393  12.651  16.579  0.00  0.00     0.134 A 
HETATM   11  N   UNK N   1      35.142  11.692  15.659  0.00  0.00    -0.327 N 
ATOM     12  HN  UNK N   1      34.677  10.839  15.969  1.00  0.00     0.169 HD
HETATM   13  C   UNK N   1      35.477  11.799  14.335  0.00  0.00     0.116 A 
HETATM   14  C   UNK N   1      36.121  13.026  13.889  0.00  0.00     0.019 A 
HETATM   15  H   UNK N   1      35.110  13.912  20.825  0.00  0.00     0.174 HD
HETATM   16  H   UNK N   1      34.509  12.369  20.421  0.00  0.00     0.174 HD
ENDROOT
BRANCH  14  17
HETATM   17  C   UNK N   1      36.527  13.430  12.493  0.00  0.00    -0.022 A 
HETATM   18  C   UNK N   1      37.532  12.685  11.836  0.00  0.00     0.012 A 
HETATM   19  C   UNK N   1      37.977  13.033  10.559  0.00  0.00     0.001 A 
HETATM   20  C   UNK N   1      37.440  14.147   9.916  0.00  0.00     0.000 A 
HETATM   21  C   UNK N   1      36.469  14.916  10.558  0.00  0.00     0.001 A 
HETATM   22  C   UNK N   1      36.029  14.563  11.838  0.00  0.00     0.012 A 
ENDBRANCH  14  17
BRANCH  13  23
HETATM   23  N   UNK N   1      35.202  10.644  13.522  0.00  0.00    -0.360 N 
HETATM   24  C   UNK N   1      34.132  10.493  12.572  0.00  0.00     0.151 A 
HETATM   25  C   UNK N   1      34.443   9.185  11.936  0.00  0.00    -0.010 A 
HETATM   26  C   UNK N   1      35.564   8.673  12.416  0.00  0.00    -0.010 A 
HETATM   27  C   UNK N   1      36.157   9.560  13.449  0.00  0.00     0.151 A 
ENDBRANCH  13  23
TORSDOF 2
ENDMDL
MODEL 8
REMARK VINA RESULT:      -6.5     18.137     19.958
REMARK  2 active torsions:
REMARK  status: ('A' for Active; 'I' for Inactive)
REMARK       I    between atoms: N_1  and  C_2 
REMARK    1  A    between atoms: C_13  and  N_14 
REMARK    2  A    between atoms: C_19  and  C_20 
ROOT
HETATM    1  N   UNK N   1      20.272  21.400   0.520  0.00  0.00    -0.234 N 
HETATM    2  C   UNK N   1      20.517  20.385   1.465  0.00  0.00     0.677 A 
HETATM    3  N   UNK N   1      20.902  20.713   2.730  0.00  0.00    -0.201 N 
ATOM      4  HN  UNK N   1      21.016  21.694   2.983  1.00  0.00     0.183 HD
HETATM    5  C   UNK N   1      21.135  19.748   3.658  0.00  0.00     0.121 A 
HETATM    6  C   UNK N   1      20.978  18.409   3.312  0.00  0.00     0.025 A 
HETATM    7  C   UNK N   1      21.203  17.394   4.223  0.00  0.00     0.032 A 
HETATM    8  N   UNK N   1      20.364  19.079   1.115  0.00  0.00    -0.176 N 
ATOM      9  HN  UNK N   1      20.078  18.841   0.165  1.00  0.00     0.186 HD
HETATM   10  C   UNK N   1      20.592  18.089   2.017  0.00  0.00     0.134 A 
HETATM   11  N   UNK N   1      20.429  16.793   1.666  0.00  0.00    -0.327 N 
ATOM     12  HN  UNK N   1      20.142  16.587   0.709  1.00  0.00     0.169 HD
HETATM   13  C   UNK N   1      20.625  15.741   2.521  0.00  0.00     0.116 A 
HETATM   14  C   UNK N   1      21.054  16.035   3.880  0.00  0.00     0.019 A 
HETATM   15  H   UNK N   1      20.397  22.344   0.768  0.00  0.00     0.174 HD
HETATM   16  H   UNK N   1      19.976  21.164  -0.389  0.00  0.00     0.174 HD
ENDROOT
BRANCH  14  17
HETATM   17  C   UNK N   1      21.407  15.076   4.991  0.00  0.00    -0.022 A 
HETATM   18  C   UNK N   1      20.361  14.494   5.742  0.00  0.00     0.012 A 
HETATM   19  C   UNK N   1      20.625  13.629   6.807  0.00  0.00     0.001 A 
HETATM   20  C   UNK N   1      21.942  13.343   7.158  0.00  0.00     0.000 A 
HETATM   21  C   UNK N   1      22.991  13.931   6.452  0.00  0.00     0.001 A 
HETATM   22  C   UNK N   1      22.720  14.798   5.388  0.00  0.00     0.012 A 
ENDBRANCH  14  17
BRANCH  13  23
HETATM   23  N   UNK N   1      20.326  14.436   1.992  0.00  0.00    -0.360 N 
HETATM   24  C   UNK N   1      19.150  13.649   2.251  0.00  0.00     0.151 A 
HETATM   25  C   UNK N   1      19.319  12.497   1.326  0.00  0.00    -0.010 A 
HETATM   26  C   UNK N   1      20.416  12.623   0.598  0.00  0.00    -0.010 A 
HETATM   27  C   UNK N   1      21.142  13.873   0.939  0.00  0.00     0.151 A 
ENDBRANCH  13  23
TORSDOF 2
ENDMDL
MODEL 9
REMARK VINA RESULT:      -6.4     11.736     14.503
REMARK  2 active torsions:
REMARK  status: ('A' for Active; 'I' for Inactive)
REMARK       I    between atoms: N_1  and  C_2 
REMARK    1  A    between atoms: C_13  and  N_14 
REMARK    2  A    between atoms: C_19  and  C_20 
ROOT
HETATM    1  N   UNK N   1      27.930  11.588   1.221  0.00  0.00    -0.234 N 
HETATM    2  C   UNK N   1      27.765  12.823   1.878  0.00  0.00     0.677 A 
HETATM    3  N   UNK N   1      26.522  13.363   2.005  0.00  0.00    -0.201 N 
ATOM      4  HN  UNK N   1      25.717  12.871   1.619  1.00  0.00     0.183 HD
HETATM    5  C   UNK N   1      26.342  14.549   2.643  0.00  0.00     0.121 A 
HETATM    6  C   UNK N   1      27.441  15.220   3.172  0.00  0.00     0.025 A 
HETATM    7  C   UNK N   1      27.305  16.429   3.829  0.00  0.00     0.032 A 
HETATM    8  N   UNK N   1      28.848  13.471   2.387  0.00  0.00    -0.176 N 
ATOM      9  HN  UNK N   1      29.777  13.061   2.285  1.00  0.00     0.186 HD
HETATM   10  C   UNK N   1      28.704  14.660   3.027  0.00  0.00     0.134 A 
HETATM   11  N   UNK N   1      29.782  15.296   3.541  0.00  0.00    -0.327 N 
ATOM     12  HN  UNK N   1      30.697  14.862   3.423  1.00  0.00     0.169 HD
HETATM   13  C   UNK N   1      29.716  16.489   4.211  0.00  0.00     0.116 A 
HETATM   14  C   UNK N   1      28.413  17.119   4.361  0.00  0.00     0.019 A 
HETATM   15  H   UNK N   1      27.150  11.126   0.838  0.00  0.00     0.174 HD
HETATM   16  H   UNK N   1      28.826  11.188   1.144  0.00  0.00     0.174 HD
ENDROOT
BRANCH  14  17
HETATM   17  C   UNK N   1      28.069  18.450   4.983  0.00  0.00    -0.022 A 
HETATM   18  C   UNK N   1      28.149  18.583   6.388  0.00  0.00     0.012 A 
HETATM   19  C   UNK N   1      27.808  19.777   7.026  0.00  0.00     0.001 A 
HETATM   20  C   UNK N   1      27.358  20.861   6.275  0.00  0.00     0.000 A 
HETATM   21  C   UNK N   1      27.240  20.743   4.890  0.00  0.00     0.001 A 
HETATM   22  C   UNK N   1      27.582  19.543   4.257  0.00  0.00     0.012 A 
ENDBRANCH  14  17
BRANCH  13  23
HETATM   23  N   UNK N   1      30.957  16.974   4.755  0.00  0.00    -0.360 N 
HETATM   24  C   UNK N   1      31.411  16.848   6.114  0.00  0.00     0.151 A 
HETATM   25  C   UNK N   1      32.798  17.380   6.046  0.00  0.00    -0.010 A 
HETATM   26  C   UNK N   1      33.120  17.722   4.809  0.00  0.00    -0.010 A 
HETATM   27  C   UNK N   1      31.991  17.477   3.877  0.00  0.00     0.151 A 
ENDBRANCH  13  23
TORSDOF 2
ENDMDL
