MODEL 1
REMARK VINA RESULT:      -7.7      0.000      0.000
REMARK  10 active torsions:
REMARK  status: ('A' for Active; 'I' for Inactive)
REMARK    1  A    between atoms: C_2  and  C_27 
REMARK    2  A    between atoms: C_24  and  C_2 
REMARK    3  A    between atoms: C_3  and  C_4 
REMARK    4  A    between atoms: C_27  and  C_3 
REMARK    5  A    between atoms: C_4  and  O_14 
REMARK    6  A    between atoms: C_28  and  C_5 
REMARK    7  A    between atoms: C_6  and  C_29 
REMARK    8  A    between atoms: N_7  and  C_18 
REMARK    9  A    between atoms: C_28  and  N_7 
REMARK   10  A    between atoms: C_29  and  N_7 
ROOT
HETATM    1  C   UNK N   1      33.128  16.969   3.946  0.00  0.00     0.015 A 
HETATM    2  C   UNK N   1      32.168  16.792   2.946  0.00  0.00     0.003 A 
HETATM    3  C   UNK N   1      30.813  16.715   3.283  0.00  0.00     0.029 A 
HETATM    4  C   UNK N   1      30.398  16.878   4.615  0.00  0.00     0.031 A 
HETATM    5  C   UNK N   1      31.379  17.116   5.596  0.00  0.00     0.044 A 
HETATM    6  C   UNK N   1      32.735  17.144   5.279  0.00  0.00     0.012 A 
ENDROOT
BRANCH   4   7
HETATM    7  N   UNK N   1      29.040  16.639   5.026  0.00  0.00    -0.372 N 
BRANCH   7   8
HETATM    8  C   UNK N   1      28.574  17.507   6.102  0.00  0.00     0.162 C 
BRANCH   8   9
HETATM    9  C   UNK N   1      27.916  18.816   5.811  0.00  0.00    -0.040 A 
HETATM   10  C   UNK N   1      27.746  19.685   6.897  0.00  0.00     0.009 A 
HETATM   11  C   UNK N   1      27.126  20.921   6.730  0.00  0.00     0.001 A 
HETATM   12  C   UNK N   1      26.661  21.297   5.469  0.00  0.00     0.000 A 
HETATM   13  C   UNK N   1      26.824  20.434   4.377  0.00  0.00     0.001 A 
HETATM   14  C   UNK N   1      27.454  19.195   4.545  0.00  0.00     0.009 A 
ENDBRANCH   8   9
ENDBRANCH   7   8
BRANCH   7  15
HETATM   15  C   UNK N   1      28.462  15.302   4.919  0.00  0.00     0.162 C 
BRANCH  15  16
HETATM   16  C   UNK N   1      27.252  15.125   4.026  0.00  0.00    -0.040 A 
HETATM   17  C   UNK N   1      27.348  15.567   2.700  0.00  0.00     0.009 A 
HETATM   18  C   UNK N   1      26.237  15.524   1.851  0.00  0.00     0.001 A 
HETATM   19  C   UNK N   1      25.012  15.057   2.328  0.00  0.00     0.000 A 
HETATM   20  C   UNK N   1      24.900  14.619   3.650  0.00  0.00     0.001 A 
HETATM   21  C   UNK N   1      26.016  14.652   4.495  0.00  0.00     0.009 A 
ENDBRANCH  15  16
ENDBRANCH   7  15
ENDBRANCH   4   7
BRANCH   6  22
HETATM   22  C   UNK N   1      33.733  17.221   6.365  0.00  0.00     0.167 C 
HETATM   23  O   UNK N   1      34.865  16.790   6.198  0.00  0.00    -0.292 OA
BRANCH  22  24
HETATM   24  C   UNK N   1      33.416  18.007   7.596  0.00  0.00     0.174 C 
BRANCH  24  25
HETATM   25  C   UNK N   1      34.584  18.186   8.503  0.00  0.00     0.229 C 
HETATM   26  O   UNK N   1      35.291  19.174   8.404  0.00  0.00    -0.285 OA
BRANCH  25  27
HETATM   27  C   UNK N   1      34.837  17.172   9.540  0.00  0.00     0.214 C 
HETATM   28  O   UNK N   1      34.163  16.152   9.578  0.00  0.00    -0.644 OA
BRANCH  27  29
HETATM   29  O   UNK N   1      35.808  17.362  10.452  0.00  0.00    -0.771 OA
HETATM   30  H   UNK N   1      36.375  18.078  10.660  0.00  0.00     0.167 HD
ENDBRANCH  27  29
ENDBRANCH  25  27
ENDBRANCH  24  25
ENDBRANCH  22  24
ENDBRANCH   6  22
TORSDOF 10
ENDMDL
MODEL 2
REMARK VINA RESULT:      -7.5     12.120     14.060
REMARK  10 active torsions:
REMARK  status: ('A' for Active; 'I' for Inactive)
REMARK    1  A    between atoms: C_2  and  C_27 
REMARK    2  A    between atoms: C_24  and  C_2 
REMARK    3  A    between atoms: C_3  and  C_4 
REMARK    4  A    between atoms: C_27  and  C_3 
REMARK    5  A    between atoms: C_4  and  O_14 
REMARK    6  A    between atoms: C_28  and  C_5 
REMARK    7  A    between atoms: C_6  and  C_29 
REMARK    8  A    between atoms: N_7  and  C_18 
REMARK    9  A    between atoms: C_28  and  N_7 
REMARK   10  A    between atoms: C_29  and  N_7 
ROOT
HETATM    1  C   UNK N   1      29.473  20.560  -7.044  0.00  0.00     0.015 A 
HETATM    2  C   UNK N   1      28.395  20.413  -7.922  0.00  0.00     0.003 A 
HETATM    3  C   UNK N   1      27.404  21.397  -7.984  0.00  0.00     0.029 A 
HETATM    4  C   UNK N   1      27.513  22.570  -7.217  0.00  0.00     0.031 A 
HETATM    5  C   UNK N   1      28.639  22.722  -6.386  0.00  0.00     0.044 A 
HETATM    6  C   UNK N   1      29.605  21.725  -6.279  0.00  0.00     0.012 A 
ENDROOT
BRANCH   4   7
HETATM    7  N   UNK N   1      26.440  23.524  -7.124  0.00  0.00    -0.372 N 
BRANCH   7   8
HETATM    8  C   UNK N   1      25.888  23.682  -5.783  0.00  0.00     0.162 C 
BRANCH   8   9
HETATM    9  C   UNK N   1      25.859  25.016  -5.110  0.00  0.00    -0.040 A 
HETATM   10  C   UNK N   1      25.149  26.031  -5.765  0.00  0.00     0.009 A 
HETATM   11  C   UNK N   1      25.081  27.314  -5.226  0.00  0.00     0.001 A 
HETATM   12  C   UNK N   1      25.733  27.595  -4.024  0.00  0.00     0.000 A 
HETATM   13  C   UNK N   1      26.447  26.587  -3.363  0.00  0.00     0.001 A 
HETATM   14  C   UNK N   1      26.510  25.296  -3.903  0.00  0.00     0.009 A 
ENDBRANCH   8   9
ENDBRANCH   7   8
BRANCH   7  15
HETATM   15  C   UNK N   1      25.557  23.753  -8.264  0.00  0.00     0.162 C 
BRANCH  15  16
HETATM   16  C   UNK N   1      25.908  24.877  -9.216  0.00  0.00    -0.040 A 
HETATM   17  C   UNK N   1      25.050  25.110 -10.298  0.00  0.00     0.009 A 
HETATM   18  C   UNK N   1      25.368  26.066 -11.269  0.00  0.00     0.001 A 
HETATM   19  C   UNK N   1      26.562  26.784 -11.177  0.00  0.00     0.000 A 
HETATM   20  C   UNK N   1      27.430  26.556 -10.107  0.00  0.00     0.001 A 
HETATM   21  C   UNK N   1      27.104  25.608  -9.130  0.00  0.00     0.009 A 
ENDBRANCH  15  16
ENDBRANCH   7  15
ENDBRANCH   4   7
BRANCH   6  22
HETATM   22  C   UNK N   1      30.673  21.854  -5.266  0.00  0.00     0.167 C 
HETATM   23  O   UNK N   1      31.606  22.624  -5.442  0.00  0.00    -0.292 OA
BRANCH  22  24
HETATM   24  C   UNK N   1      30.504  21.190  -3.936  0.00  0.00     0.174 C 
BRANCH  24  25
HETATM   25  C   UNK N   1      31.073  21.975  -2.805  0.00  0.00     0.229 C 
HETATM   26  O   UNK N   1      32.132  21.643  -2.300  0.00  0.00    -0.285 OA
BRANCH  25  27
HETATM   27  C   UNK N   1      30.356  23.175  -2.344  0.00  0.00     0.214 C 
HETATM   28  O   UNK N   1      29.498  23.082  -1.478  0.00  0.00    -0.644 OA
BRANCH  27  29
HETATM   29  O   UNK N   1      30.638  24.380  -2.874  0.00  0.00    -0.771 OA
HETATM   30  H   UNK N   1      31.212  25.079  -2.632  0.00  0.00     0.167 HD
ENDBRANCH  27  29
ENDBRANCH  25  27
ENDBRANCH  24  25
ENDBRANCH  22  24
ENDBRANCH   6  22
TORSDOF 10
ENDMDL
MODEL 3
REMARK VINA RESULT:      -7.5     11.119     13.061
REMARK  10 active torsions:
REMARK  status: ('A' for Active; 'I' for Inactive)
REMARK    1  A    between atoms: C_2  and  C_27 
REMARK    2  A    between atoms: C_24  and  C_2 
REMARK    3  A    between atoms: C_3  and  C_4 
REMARK    4  A    between atoms: C_27  and  C_3 
REMARK    5  A    between atoms: C_4  and  O_14 
REMARK    6  A    between atoms: C_28  and  C_5 
REMARK    7  A    between atoms: C_6  and  C_29 
REMARK    8  A    between atoms: N_7  and  C_18 
REMARK    9  A    between atoms: C_28  and  N_7 
REMARK   10  A    between atoms: C_29  and  N_7 
ROOT
HETATM    1  C   UNK N   1      31.231  24.831  -4.045  0.00  0.00     0.015 A 
HETATM    2  C   UNK N   1      31.038  25.823  -5.009  0.00  0.00     0.003 A 
HETATM    3  C   UNK N   1      29.804  25.939  -5.657  0.00  0.00     0.029 A 
HETATM    4  C   UNK N   1      28.730  25.106  -5.301  0.00  0.00     0.031 A 
HETATM    5  C   UNK N   1      28.931  24.154  -4.283  0.00  0.00     0.044 A 
HETATM    6  C   UNK N   1      30.171  23.997  -3.668  0.00  0.00     0.012 A 
ENDROOT
BRANCH   4   7
HETATM    7  N   UNK N   1      27.504  25.078  -6.053  0.00  0.00    -0.372 N 
BRANCH   7   8
HETATM    8  C   UNK N   1      27.069  26.380  -6.546  0.00  0.00     0.162 C 
BRANCH   8   9
HETATM    9  C   UNK N   1      26.812  27.516  -5.611  0.00  0.00    -0.040 A 
HETATM   10  C   UNK N   1      27.484  28.714  -5.884  0.00  0.00     0.009 A 
HETATM   11  C   UNK N   1      27.324  29.825  -5.057  0.00  0.00     0.001 A 
HETATM   12  C   UNK N   1      26.491  29.742  -3.940  0.00  0.00     0.000 A 
HETATM   13  C   UNK N   1      25.816  28.547  -3.659  0.00  0.00     0.001 A 
HETATM   14  C   UNK N   1      25.972  27.434  -4.494  0.00  0.00     0.009 A 
ENDBRANCH   8   9
ENDBRANCH   7   8
BRANCH   7  15
HETATM   15  C   UNK N   1      26.483  24.075  -5.763  0.00  0.00     0.162 C 
BRANCH  15  16
HETATM   16  C   UNK N   1      26.342  22.912  -6.722  0.00  0.00    -0.040 A 
HETATM   17  C   UNK N   1      25.091  22.290  -6.817  0.00  0.00     0.009 A 
HETATM   18  C   UNK N   1      24.918  21.149  -7.607  0.00  0.00     0.001 A 
HETATM   19  C   UNK N   1      26.004  20.606  -8.296  0.00  0.00     0.000 A 
HETATM   20  C   UNK N   1      27.259  21.212  -8.206  0.00  0.00     0.001 A 
HETATM   21  C   UNK N   1      27.427  22.361  -7.423  0.00  0.00     0.009 A 
ENDBRANCH  15  16
ENDBRANCH   7  15
ENDBRANCH   4   7
BRANCH   6  22
HETATM   22  C   UNK N   1      30.380  22.872  -2.734  0.00  0.00     0.167 C 
HETATM   23  O   UNK N   1      30.404  23.064  -1.527  0.00  0.00    -0.292 OA
BRANCH  22  24
HETATM   24  C   UNK N   1      30.362  21.472  -3.259  0.00  0.00     0.174 C 
BRANCH  24  25
HETATM   25  C   UNK N   1      31.606  21.096  -3.988  0.00  0.00     0.229 C 
HETATM   26  O   UNK N   1      31.555  20.774  -5.162  0.00  0.00    -0.285 OA
BRANCH  25  27
HETATM   27  C   UNK N   1      32.893  21.164  -3.274  0.00  0.00     0.214 C 
HETATM   28  O   UNK N   1      33.933  21.316  -3.899  0.00  0.00    -0.644 OA
BRANCH  27  29
HETATM   29  O   UNK N   1      32.931  21.059  -1.933  0.00  0.00    -0.771 OA
HETATM   30  H   UNK N   1      33.565  20.735  -1.323  0.00  0.00     0.167 HD
ENDBRANCH  27  29
ENDBRANCH  25  27
ENDBRANCH  24  25
ENDBRANCH  22  24
ENDBRANCH   6  22
TORSDOF 10
ENDMDL
MODEL 4
REMARK VINA RESULT:      -7.5     11.188     13.740
REMARK  10 active torsions:
REMARK  status: ('A' for Active; 'I' for Inactive)
REMARK    1  A    between atoms: C_2  and  C_27 
REMARK    2  A    between atoms: C_24  and  C_2 
REMARK    3  A    between atoms: C_3  and  C_4 
REMARK    4  A    between atoms: C_27  and  C_3 
REMARK    5  A    between atoms: C_4  and  O_14 
REMARK    6  A    between atoms: C_28  and  C_5 
REMARK    7  A    between atoms: C_6  and  C_29 
REMARK    8  A    between atoms: N_7  and  C_18 
REMARK    9  A    between atoms: C_28  and  N_7 
REMARK   10  A    between atoms: C_29  and  N_7 
ROOT
HETATM    1  C   UNK N   1      31.254  25.024  -3.702  0.00  0.00     0.015 A 
HETATM    2  C   UNK N   1      31.175  26.066  -4.629  0.00  0.00     0.003 A 
HETATM    3  C   UNK N   1      30.088  26.142  -5.505  0.00  0.00     0.029 A 
HETATM    4  C   UNK N   1      29.036  25.214  -5.421  0.00  0.00     0.031 A 
HETATM    5  C   UNK N   1      29.110  24.209  -4.437  0.00  0.00     0.044 A 
HETATM    6  C   UNK N   1      30.212  24.095  -3.594  0.00  0.00     0.012 A 
ENDROOT
BRANCH   4   7
HETATM    7  N   UNK N   1      27.990  25.154  -6.406  0.00  0.00    -0.372 N 
BRANCH   7   8
HETATM    8  C   UNK N   1      28.105  24.042  -7.342  0.00  0.00     0.162 C 
BRANCH   8   9
HETATM    9  C   UNK N   1      27.052  22.985  -7.423  0.00  0.00    -0.040 A 
HETATM   10  C   UNK N   1      27.247  21.980  -8.379  0.00  0.00     0.009 A 
HETATM   11  C   UNK N   1      26.311  20.961  -8.544  0.00  0.00     0.001 A 
HETATM   12  C   UNK N   1      25.161  20.945  -7.752  0.00  0.00     0.000 A 
HETATM   13  C   UNK N   1      24.957  21.946  -6.794  0.00  0.00     0.001 A 
HETATM   14  C   UNK N   1      25.902  22.965  -6.625  0.00  0.00     0.009 A 
ENDBRANCH   8   9
ENDBRANCH   7   8
BRANCH   7  15
HETATM   15  C   UNK N   1      27.341  26.379  -6.868  0.00  0.00     0.162 C 
BRANCH  15  16
HETATM   16  C   UNK N   1      26.841  27.351  -5.821  0.00  0.00    -0.040 A 
HETATM   17  C   UNK N   1      27.370  28.648  -5.828  0.00  0.00     0.009 A 
HETATM   18  C   UNK N   1      27.026  29.565  -4.829  0.00  0.00     0.001 A 
HETATM   19  C   UNK N   1      26.163  29.185  -3.799  0.00  0.00     0.000 A 
HETATM   20  C   UNK N   1      25.634  27.892  -3.777  0.00  0.00     0.001 A 
HETATM   21  C   UNK N   1      25.971  26.980  -4.784  0.00  0.00     0.009 A 
ENDBRANCH  15  16
ENDBRANCH   7  15
ENDBRANCH   4   7
BRANCH   6  22
HETATM   22  C   UNK N   1      30.324  22.924  -2.700  0.00  0.00     0.167 C 
HETATM   23  O   UNK N   1      30.426  23.073  -1.491  0.00  0.00    -0.292 OA
BRANCH  22  24
HETATM   24  C   UNK N   1      30.111  21.554  -3.259  0.00  0.00     0.174 C 
BRANCH  24  25
HETATM   25  C   UNK N   1      31.343  20.954  -3.845  0.00  0.00     0.229 C 
HETATM   26  O   UNK N   1      31.263  20.198  -4.798  0.00  0.00    -0.285 OA
BRANCH  25  27
HETATM   27  C   UNK N   1      32.650  21.326  -3.278  0.00  0.00     0.214 C 
HETATM   28  O   UNK N   1      33.502  21.842  -3.987  0.00  0.00    -0.644 OA
BRANCH  27  29
HETATM   29  O   UNK N   1      32.915  21.100  -1.978  0.00  0.00    -0.771 OA
HETATM   30  H   UNK N   1      32.580  20.500  -1.340  0.00  0.00     0.167 HD
ENDBRANCH  27  29
ENDBRANCH  25  27
ENDBRANCH  24  25
ENDBRANCH  22  24
ENDBRANCH   6  22
TORSDOF 10
ENDMDL
MODEL 5
REMARK VINA RESULT:      -7.4      8.751     11.481
REMARK  10 active torsions:
REMARK  status: ('A' for Active; 'I' for Inactive)
REMARK    1  A    between atoms: C_2  and  C_27 
REMARK    2  A    between atoms: C_24  and  C_2 
REMARK    3  A    between atoms: C_3  and  C_4 
REMARK    4  A    between atoms: C_27  and  C_3 
REMARK    5  A    between atoms: C_4  and  O_14 
REMARK    6  A    between atoms: C_28  and  C_5 
REMARK    7  A    between atoms: C_6  and  C_29 
REMARK    8  A    between atoms: N_7  and  C_18 
REMARK    9  A    between atoms: C_28  and  N_7 
REMARK   10  A    between atoms: C_29  and  N_7 
ROOT
HETATM    1  C   UNK N   1      22.620  17.392   3.891  0.00  0.00     0.015 A 
HETATM    2  C   UNK N   1      23.295  16.764   4.941  0.00  0.00     0.003 A 
HETATM    3  C   UNK N   1      22.583  16.280   6.042  0.00  0.00     0.029 A 
HETATM    4  C   UNK N   1      21.180  16.361   6.077  0.00  0.00     0.031 A 
HETATM    5  C   UNK N   1      20.518  16.944   4.980  0.00  0.00     0.044 A 
HETATM    6  C   UNK N   1      21.222  17.474   3.902  0.00  0.00     0.012 A 
ENDROOT
BRANCH   4   7
HETATM    7  N   UNK N   1      20.426  16.032   7.257  0.00  0.00    -0.372 N 
BRANCH   7   8
HETATM    8  C   UNK N   1      20.509  17.025   8.322  0.00  0.00     0.162 C 
BRANCH   8   9
HETATM    9  C   UNK N   1      19.282  17.517   9.020  0.00  0.00    -0.040 A 
HETATM   10  C   UNK N   1      19.437  18.645   9.835  0.00  0.00     0.009 A 
HETATM   11  C   UNK N   1      18.356  19.167  10.542  0.00  0.00     0.001 A 
HETATM   12  C   UNK N   1      17.106  18.554  10.445  0.00  0.00     0.000 A 
HETATM   13  C   UNK N   1      16.942  17.424   9.634  0.00  0.00     0.001 A 
HETATM   14  C   UNK N   1      18.027  16.905   8.919  0.00  0.00     0.009 A 
ENDBRANCH   8   9
ENDBRANCH   7   8
BRANCH   7  15
HETATM   15  C   UNK N   1      20.214  14.637   7.631  0.00  0.00     0.162 C 
BRANCH  15  16
HETATM   16  C   UNK N   1      21.162  14.024   8.640  0.00  0.00    -0.040 A 
HETATM   17  C   UNK N   1      22.518  13.946   8.300  0.00  0.00     0.009 A 
HETATM   18  C   UNK N   1      23.430  13.302   9.143  0.00  0.00     0.001 A 
HETATM   19  C   UNK N   1      22.988  12.710  10.327  0.00  0.00     0.000 A 
HETATM   20  C   UNK N   1      21.637  12.774  10.676  0.00  0.00     0.001 A 
HETATM   21  C   UNK N   1      20.728  13.429   9.836  0.00  0.00     0.009 A 
ENDBRANCH  15  16
ENDBRANCH   7  15
ENDBRANCH   4   7
BRANCH   6  22
HETATM   22  C   UNK N   1      20.494  18.229   2.861  0.00  0.00     0.167 C 
HETATM   23  O   UNK N   1      19.980  17.647   1.917  0.00  0.00    -0.292 OA
BRANCH  22  24
HETATM   24  C   UNK N   1      20.219  19.684   3.070  0.00  0.00     0.174 C 
BRANCH  24  25
HETATM   25  C   UNK N   1      21.166  20.577   2.346  0.00  0.00     0.229 C 
HETATM   26  O   UNK N   1      22.226  20.891   2.858  0.00  0.00    -0.285 OA
BRANCH  25  27
HETATM   27  C   UNK N   1      20.813  21.033   0.990  0.00  0.00     0.214 C 
HETATM   28  O   UNK N   1      20.929  20.274   0.038  0.00  0.00    -0.644 OA
BRANCH  27  29
HETATM   29  O   UNK N   1      20.362  22.285   0.792  0.00  0.00    -0.771 OA
HETATM   30  H   UNK N   1      19.656  22.653   0.298  0.00  0.00     0.167 HD
ENDBRANCH  27  29
ENDBRANCH  25  27
ENDBRANCH  24  25
ENDBRANCH  22  24
ENDBRANCH   6  22
TORSDOF 10
ENDMDL
MODEL 6
REMARK VINA RESULT:      -7.4     11.514     13.579
REMARK  10 active torsions:
REMARK  status: ('A' for Active; 'I' for Inactive)
REMARK    1  A    between atoms: C_2  and  C_27 
REMARK    2  A    between atoms: C_24  and  C_2 
REMARK    3  A    between atoms: C_3  and  C_4 
REMARK    4  A    between atoms: C_27  and  C_3 
REMARK    5  A    between atoms: C_4  and  O_14 
REMARK    6  A    between atoms: C_28  and  C_5 
REMARK    7  A    between atoms: C_6  and  C_29 
REMARK    8  A    between atoms: N_7  and  C_18 
REMARK    9  A    between atoms: C_28  and  N_7 
REMARK   10  A    between atoms: C_29  and  N_7 
ROOT
HETATM    1  C   UNK N   1      27.809  23.979  -2.984  0.00  0.00     0.015 A 
HETATM    2  C   UNK N   1      26.503  24.057  -3.472  0.00  0.00     0.003 A 
HETATM    3  C   UNK N   1      26.266  24.534  -4.764  0.00  0.00     0.029 A 
HETATM    4  C   UNK N   1      27.337  24.878  -5.607  0.00  0.00     0.031 A 
HETATM    5  C   UNK N   1      28.647  24.733  -5.113  0.00  0.00     0.044 A 
HETATM    6  C   UNK N   1      28.892  24.307  -3.810  0.00  0.00     0.012 A 
ENDROOT
BRANCH   4   7
HETATM    7  N   UNK N   1      27.133  25.529  -6.873  0.00  0.00    -0.372 N 
BRANCH   7   8
HETATM    8  C   UNK N   1      26.247  26.687  -6.821  0.00  0.00     0.162 C 
BRANCH   8   9
HETATM    9  C   UNK N   1      26.561  27.864  -5.956  0.00  0.00    -0.040 A 
HETATM   10  C   UNK N   1      27.612  28.688  -6.380  0.00  0.00     0.009 A 
HETATM   11  C   UNK N   1      27.992  29.800  -5.630  0.00  0.00     0.001 A 
HETATM   12  C   UNK N   1      27.324  30.092  -4.440  0.00  0.00     0.000 A 
HETATM   13  C   UNK N   1      26.274  29.273  -4.007  0.00  0.00     0.001 A 
HETATM   14  C   UNK N   1      25.888  28.160  -4.765  0.00  0.00     0.009 A 
ENDBRANCH   8   9
ENDBRANCH   7   8
BRANCH   7  15
HETATM   15  C   UNK N   1      27.192  24.762  -8.115  0.00  0.00     0.162 C 
BRANCH  15  16
HETATM   16  C   UNK N   1      26.683  23.336  -8.089  0.00  0.00    -0.040 A 
HETATM   17  C   UNK N   1      27.623  22.304  -8.211  0.00  0.00     0.009 A 
HETATM   18  C   UNK N   1      27.211  20.970  -8.295  0.00  0.00     0.001 A 
HETATM   19  C   UNK N   1      25.851  20.657  -8.279  0.00  0.00     0.000 A 
HETATM   20  C   UNK N   1      24.903  21.677  -8.164  0.00  0.00     0.001 A 
HETATM   21  C   UNK N   1      25.318  23.011  -8.069  0.00  0.00     0.009 A 
ENDBRANCH  15  16
ENDBRANCH   7  15
ENDBRANCH   4   7
BRANCH   6  22
HETATM   22  C   UNK N   1      30.271  24.339  -3.283  0.00  0.00     0.167 C 
HETATM   23  O   UNK N   1      30.854  25.403  -3.133  0.00  0.00    -0.292 OA
BRANCH  22  24
HETATM   24  C   UNK N   1      30.878  23.082  -2.746  0.00  0.00     0.174 C 
BRANCH  24  25
HETATM   25  C   UNK N   1      31.750  22.379  -3.728  0.00  0.00     0.229 C 
HETATM   26  O   UNK N   1      31.624  22.590  -4.921  0.00  0.00    -0.285 OA
BRANCH  25  27
HETATM   27  C   UNK N   1      32.787  21.462  -3.224  0.00  0.00     0.214 C 
HETATM   28  O   UNK N   1      33.652  21.040  -3.979  0.00  0.00    -0.644 OA
BRANCH  27  29
HETATM   29  O   UNK N   1      32.789  21.084  -1.933  0.00  0.00    -0.771 OA
HETATM   30  H   UNK N   1      32.656  21.534  -1.122  0.00  0.00     0.167 HD
ENDBRANCH  27  29
ENDBRANCH  25  27
ENDBRANCH  24  25
ENDBRANCH  22  24
ENDBRANCH   6  22
TORSDOF 10
ENDMDL
MODEL 7
REMARK VINA RESULT:      -7.4      6.720     11.824
REMARK  10 active torsions:
REMARK  status: ('A' for Active; 'I' for Inactive)
REMARK    1  A    between atoms: C_2  and  C_27 
REMARK    2  A    between atoms: C_24  and  C_2 
REMARK    3  A    between atoms: C_3  and  C_4 
REMARK    4  A    between atoms: C_27  and  C_3 
REMARK    5  A    between atoms: C_4  and  O_14 
REMARK    6  A    between atoms: C_28  and  C_5 
REMARK    7  A    between atoms: C_6  and  C_29 
REMARK    8  A    between atoms: N_7  and  C_18 
REMARK    9  A    between atoms: C_28  and  N_7 
REMARK   10  A    between atoms: C_29  and  N_7 
ROOT
HETATM    1  C   UNK N   1      37.030  14.608  10.014  0.00  0.00     0.015 A 
HETATM    2  C   UNK N   1      37.662  13.446  10.463  0.00  0.00     0.003 A 
HETATM    3  C   UNK N   1      37.200  12.798  11.612  0.00  0.00     0.029 A 
HETATM    4  C   UNK N   1      36.062  13.269  12.289  0.00  0.00     0.031 A 
HETATM    5  C   UNK N   1      35.406  14.406  11.782  0.00  0.00     0.044 A 
HETATM    6  C   UNK N   1      35.888  15.088  10.668  0.00  0.00     0.012 A 
ENDROOT
BRANCH   4   7
HETATM    7  N   UNK N   1      35.657  12.736  13.563  0.00  0.00    -0.372 N 
BRANCH   7   8
HETATM    8  C   UNK N   1      36.667  12.843  14.610  0.00  0.00     0.162 C 
BRANCH   8   9
HETATM    9  C   UNK N   1      36.507  13.801  15.745  0.00  0.00    -0.040 A 
HETATM   10  C   UNK N   1      37.291  14.961  15.698  0.00  0.00     0.009 A 
HETATM   11  C   UNK N   1      37.227  15.906  16.721  0.00  0.00     0.001 A 
HETATM   12  C   UNK N   1      36.379  15.692  17.808  0.00  0.00     0.000 A 
HETATM   13  C   UNK N   1      35.593  14.534  17.865  0.00  0.00     0.001 A 
HETATM   14  C   UNK N   1      35.653  13.588  16.834  0.00  0.00     0.009 A 
ENDBRANCH   8   9
ENDBRANCH   7   8
BRANCH   7  15
HETATM   15  C   UNK N   1      34.709  11.628  13.631  0.00  0.00     0.162 C 
BRANCH  15  16
HETATM   16  C   UNK N   1      35.087  10.424  14.468  0.00  0.00    -0.040 A 
HETATM   17  C   UNK N   1      35.730   9.358  13.826  0.00  0.00     0.009 A 
HETATM   18  C   UNK N   1      36.017   8.176  14.518  0.00  0.00     0.001 A 
HETATM   19  C   UNK N   1      35.644   8.043  15.857  0.00  0.00     0.000 A 
HETATM   20  C   UNK N   1      34.997   9.096  16.507  0.00  0.00     0.001 A 
HETATM   21  C   UNK N   1      34.721  10.282  15.816  0.00  0.00     0.009 A 
ENDBRANCH  15  16
ENDBRANCH   7  15
ENDBRANCH   4   7
BRANCH   6  22
HETATM   22  C   UNK N   1      35.270  16.373  10.279  0.00  0.00     0.167 C 
HETATM   23  O   UNK N   1      35.863  17.426  10.460  0.00  0.00    -0.292 OA
BRANCH  22  24
HETATM   24  C   UNK N   1      34.005  16.365   9.483  0.00  0.00     0.174 C 
BRANCH  24  25
HETATM   25  C   UNK N   1      34.177  15.838   8.101  0.00  0.00     0.229 C 
HETATM   26  O   UNK N   1      33.993  14.656   7.868  0.00  0.00    -0.285 OA
BRANCH  25  27
HETATM   27  C   UNK N   1      34.530  16.778   7.024  0.00  0.00     0.214 C 
HETATM   28  O   UNK N   1      34.842  16.357   5.919  0.00  0.00    -0.644 OA
BRANCH  27  29
HETATM   29  O   UNK N   1      34.512  18.105   7.248  0.00  0.00    -0.771 OA
HETATM   30  H   UNK N   1      33.830  18.739   7.353  0.00  0.00     0.167 HD
ENDBRANCH  27  29
ENDBRANCH  25  27
ENDBRANCH  24  25
ENDBRANCH  22  24
ENDBRANCH   6  22
TORSDOF 10
ENDMDL
MODEL 8
REMARK VINA RESULT:      -7.2      6.356      9.141
REMARK  10 active torsions:
REMARK  status: ('A' for Active; 'I' for Inactive)
REMARK    1  A    between atoms: C_2  and  C_27 
REMARK    2  A    between atoms: C_24  and  C_2 
REMARK    3  A    between atoms: C_3  and  C_4 
REMARK    4  A    between atoms: C_27  and  C_3 
REMARK    5  A    between atoms: C_4  and  O_14 
REMARK    6  A    between atoms: C_28  and  C_5 
REMARK    7  A    between atoms: C_6  and  C_29 
REMARK    8  A    between atoms: N_7  and  C_18 
REMARK    9  A    between atoms: C_28  and  N_7 
REMARK   10  A    between atoms: C_29  and  N_7 
ROOT
HETATM    1  C   UNK N   1      24.020  20.255   3.058  0.00  0.00     0.015 A 
HETATM    2  C   UNK N   1      25.385  20.554   3.037  0.00  0.00     0.003 A 
HETATM    3  C   UNK N   1      26.282  19.783   3.782  0.00  0.00     0.029 A 
HETATM    4  C   UNK N   1      25.832  18.664   4.504  0.00  0.00     0.031 A 
HETATM    5  C   UNK N   1      24.462  18.347   4.460  0.00  0.00     0.044 A 
HETATM    6  C   UNK N   1      23.553  19.139   3.762  0.00  0.00     0.012 A 
ENDROOT
BRANCH   4   7
HETATM    7  N   UNK N   1      26.688  17.949   5.413  0.00  0.00    -0.372 N 
BRANCH   7   8
HETATM    8  C   UNK N   1      27.914  18.654   5.769  0.00  0.00     0.162 C 
BRANCH   8   9
HETATM    9  C   UNK N   1      28.708  18.269   6.975  0.00  0.00    -0.040 A 
HETATM   10  C   UNK N   1      28.222  18.716   8.210  0.00  0.00     0.009 A 
HETATM   11  C   UNK N   1      28.903  18.424   9.391  0.00  0.00     0.001 A 
HETATM   12  C   UNK N   1      30.086  17.686   9.342  0.00  0.00     0.000 A 
HETATM   13  C   UNK N   1      30.580  17.237   8.111  0.00  0.00     0.001 A 
HETATM   14  C   UNK N   1      29.892  17.524   6.927  0.00  0.00     0.009 A 
ENDBRANCH   8   9
ENDBRANCH   7   8
BRANCH   7  15
HETATM   15  C   UNK N   1      26.709  16.488   5.412  0.00  0.00     0.162 C 
BRANCH  15  16
HETATM   16  C   UNK N   1      27.178  15.789   4.154  0.00  0.00    -0.040 A 
HETATM   17  C   UNK N   1      28.545  15.835   3.852  0.00  0.00     0.009 A 
HETATM   18  C   UNK N   1      29.030  15.297   2.655  0.00  0.00     0.001 A 
HETATM   19  C   UNK N   1      28.147  14.724   1.739  0.00  0.00     0.000 A 
HETATM   20  C   UNK N   1      26.781  14.677   2.025  0.00  0.00     0.001 A 
HETATM   21  C   UNK N   1      26.298  15.206   3.228  0.00  0.00     0.009 A 
ENDBRANCH  15  16
ENDBRANCH   7  15
ENDBRANCH   4   7
BRANCH   6  22
HETATM   22  C   UNK N   1      22.106  18.868   3.889  0.00  0.00     0.167 C 
HETATM   23  O   UNK N   1      21.712  17.820   4.381  0.00  0.00    -0.292 OA
BRANCH  22  24
HETATM   24  C   UNK N   1      21.129  19.961   3.599  0.00  0.00     0.174 C 
BRANCH  24  25
HETATM   25  C   UNK N   1      20.398  19.777   2.314  0.00  0.00     0.229 C 
HETATM   26  O   UNK N   1      19.532  18.924   2.219  0.00  0.00    -0.285 OA
BRANCH  25  27
HETATM   27  C   UNK N   1      20.713  20.669   1.186  0.00  0.00     0.214 C 
HETATM   28  O   UNK N   1      20.921  20.203   0.075  0.00  0.00    -0.644 OA
BRANCH  27  29
HETATM   29  O   UNK N   1      20.775  22.000   1.371  0.00  0.00    -0.771 OA
HETATM   30  H   UNK N   1      20.412  22.588   2.005  0.00  0.00     0.167 HD
ENDBRANCH  27  29
ENDBRANCH  25  27
ENDBRANCH  24  25
ENDBRANCH  22  24
ENDBRANCH   6  22
TORSDOF 10
ENDMDL
MODEL 9
REMARK VINA RESULT:      -7.2      7.882     10.141
REMARK  10 active torsions:
REMARK  status: ('A' for Active; 'I' for Inactive)
REMARK    1  A    between atoms: C_2  and  C_27 
REMARK    2  A    between atoms: C_24  and  C_2 
REMARK    3  A    between atoms: C_3  and  C_4 
REMARK    4  A    between atoms: C_27  and  C_3 
REMARK    5  A    between atoms: C_4  and  O_14 
REMARK    6  A    between atoms: C_28  and  C_5 
REMARK    7  A    between atoms: C_6  and  C_29 
REMARK    8  A    between atoms: N_7  and  C_18 
REMARK    9  A    between atoms: C_28  and  N_7 
REMARK   10  A    between atoms: C_29  and  N_7 
ROOT
HETATM    1  C   UNK N   1      20.245  15.609   8.909  0.00  0.00     0.015 A 
HETATM    2  C   UNK N   1      20.127  16.894   8.373  0.00  0.00     0.003 A 
HETATM    3  C   UNK N   1      20.731  17.202   7.151  0.00  0.00     0.029 A 
HETATM    4  C   UNK N   1      21.406  16.211   6.418  0.00  0.00     0.031 A 
HETATM    5  C   UNK N   1      21.459  14.908   6.949  0.00  0.00     0.044 A 
HETATM    6  C   UNK N   1      20.904  14.604   8.190  0.00  0.00     0.012 A 
ENDROOT
BRANCH   4   7
HETATM    7  N   UNK N   1      22.182  16.522   5.247  0.00  0.00    -0.372 N 
BRANCH   7   8
HETATM    8  C   UNK N   1      23.061  15.447   4.803  0.00  0.00     0.162 C 
BRANCH   8   9
HETATM    9  C   UNK N   1      23.099  15.017   3.373  0.00  0.00    -0.040 A 
HETATM   10  C   UNK N   1      24.355  14.672   2.857  0.00  0.00     0.009 A 
HETATM   11  C   UNK N   1      24.495  14.277   1.528  0.00  0.00     0.001 A 
HETATM   12  C   UNK N   1      23.373  14.233   0.698  0.00  0.00     0.000 A 
HETATM   13  C   UNK N   1      22.114  14.578   1.204  0.00  0.00     0.001 A 
HETATM   14  C   UNK N   1      21.973  14.968   2.542  0.00  0.00     0.009 A 
ENDBRANCH   8   9
ENDBRANCH   7   8
BRANCH   7  15
HETATM   15  C   UNK N   1      22.584  17.899   4.974  0.00  0.00     0.162 C 
BRANCH  15  16
HETATM   16  C   UNK N   1      21.853  18.644   3.877  0.00  0.00    -0.040 A 
HETATM   17  C   UNK N   1      22.497  19.741   3.291  0.00  0.00     0.009 A 
HETATM   18  C   UNK N   1      21.838  20.533   2.344  0.00  0.00     0.001 A 
HETATM   19  C   UNK N   1      20.519  20.246   1.989  0.00  0.00     0.000 A 
HETATM   20  C   UNK N   1      19.863  19.159   2.571  0.00  0.00     0.001 A 
HETATM   21  C   UNK N   1      20.527  18.360   3.511  0.00  0.00     0.009 A 
ENDBRANCH  15  16
ENDBRANCH   7  15
ENDBRANCH   4   7
BRANCH   6  22
HETATM   22  C   UNK N   1      21.137  13.271   8.783  0.00  0.00     0.167 C 
HETATM   23  O   UNK N   1      21.135  12.270   8.080  0.00  0.00    -0.292 OA
BRANCH  22  24
HETATM   24  C   UNK N   1      21.573  13.171  10.209  0.00  0.00     0.174 C 
BRANCH  24  25
HETATM   25  C   UNK N   1      23.016  12.840  10.367  0.00  0.00     0.229 C 
HETATM   26  O   UNK N   1      23.832  13.255   9.561  0.00  0.00    -0.285 OA
BRANCH  25  27
HETATM   27  C   UNK N   1      23.437  12.043  11.531  0.00  0.00     0.214 C 
HETATM   28  O   UNK N   1      24.623  11.953  11.817  0.00  0.00    -0.644 OA
BRANCH  27  29
HETATM   29  O   UNK N   1      22.522  11.408  12.286  0.00  0.00    -0.771 OA
HETATM   30  H   UNK N   1      21.924  11.683  12.953  0.00  0.00     0.167 HD
ENDBRANCH  27  29
ENDBRANCH  25  27
ENDBRANCH  24  25
ENDBRANCH  22  24
ENDBRANCH   6  22
TORSDOF 10
ENDMDL
