MODEL 1
REMARK VINA RESULT:      -7.2      0.000      0.000
REMARK  4 active torsions:
REMARK  status: ('A' for Active; 'I' for Inactive)
REMARK    1  A    between atoms: N_1  and  C_16 
REMARK    2  A    between atoms: C_4  and  C_5 
REMARK    3  A    between atoms: C_4  and  C_9 
REMARK    4  A    between atoms: C_5  and  N_6 
ROOT
HETATM    1  N   UNK N   1      34.571  14.990  10.185  0.00  0.00    -0.366 N 
HETATM    2  C   UNK N   1      34.598  13.536  10.065  0.00  0.00     0.125 C 
HETATM    3  C   UNK N   1      34.842  12.879  11.439  0.00  0.00     0.036 C 
HETATM    4  C   UNK N   1      36.086  13.447  12.182  0.00  0.00     0.005 C 
HETATM    5  C   UNK N   1      36.346  14.914  11.764  0.00  0.00     0.036 C 
HETATM    6  C   UNK N   1      35.031  15.595  11.415  0.00  0.00     0.125 C 
ENDROOT
BRANCH   1   7
HETATM    7  C   UNK N   1      34.191  15.842   9.103  0.00  0.00     0.118 A 
HETATM    8  N   UNK N   1      33.438  16.958   9.356  0.00  0.00    -0.338 N 
HETATM    9  C   UNK N   1      33.039  17.800   8.353  0.00  0.00     0.183 A 
ATOM     10  HN  UNK N   1      33.167  17.167  10.317  1.00  0.00     0.168 HD
HETATM   11  N   UNK N   1      33.406  17.557   7.061  0.00  0.00    -0.338 N 
HETATM   12  C   UNK N   1      34.165  16.467   6.801  0.00  0.00     0.120 A 
ATOM     13  HN  UNK N   1      33.114  18.181   6.308  1.00  0.00     0.168 HD
HETATM   14  N   UNK N   1      34.630  16.105   5.600  0.00  0.00    -0.351 N 
HETATM   15  C   UNK N   1      34.561  15.605   7.775  0.00  0.00     0.053 A 
HETATM   16  C   UNK N   1      35.348  14.975   5.813  0.00  0.00     0.091 A 
HETATM   17  H   UNK N   1      34.481  16.562   4.741  0.00  0.00     0.166 HD
HETATM   18  C   UNK N   1      35.326  14.632   7.169  0.00  0.00     0.036 A 
ENDBRANCH   1   7
BRANCH   4  19
HETATM   19  C   UNK N   1      37.330  12.653  11.766  0.00  0.00     0.125 C 
BRANCH  19  20
HETATM   20  N   UNK N   1      38.259  13.456  10.981  0.00  0.00    -0.429 N 
HETATM   21  H   UNK N   1      39.265  13.541  11.129  0.00  0.00     0.149 HD
HETATM   22  H   UNK N   1      37.864  13.986  10.205  0.00  0.00     0.149 HD
ENDBRANCH  19  20
ENDBRANCH   4  19
BRANCH   4  23
HETATM   23  C   UNK N   1      35.879  13.373  13.698  0.00  0.00    -0.048 A 
HETATM   24  C   UNK N   1      36.693  14.111  14.577  0.00  0.00     0.010 A 
HETATM   25  C   UNK N   1      36.471  14.062  15.959  0.00  0.00     0.024 A 
HETATM   26  C   UNK N   1      35.439  13.274  16.478  0.00  0.00     0.034 A 
HETATM   27 Cl   UNK N   1      35.144  13.225  18.203  0.00  0.00    -0.084 Cl
HETATM   28  C   UNK N   1      34.633  12.528  15.620  0.00  0.00     0.024 A 
HETATM   29  C   UNK N   1      34.851  12.578  14.244  0.00  0.00     0.010 A 
ENDBRANCH   4  23
TORSDOF 4
ENDMDL
MODEL 2
REMARK VINA RESULT:      -7.1     13.845     15.815
REMARK  4 active torsions:
REMARK  status: ('A' for Active; 'I' for Inactive)
REMARK    1  A    between atoms: N_1  and  C_16 
REMARK    2  A    between atoms: C_4  and  C_5 
REMARK    3  A    between atoms: C_4  and  C_9 
REMARK    4  A    between atoms: C_5  and  N_6 
ROOT
HETATM    1  N   UNK N   1      20.683  16.899   4.561  0.00  0.00    -0.366 N 
HETATM    2  C   UNK N   1      21.016  17.868   5.600  0.00  0.00     0.125 C 
HETATM    3  C   UNK N   1      21.347  17.153   6.926  0.00  0.00     0.036 C 
HETATM    4  C   UNK N   1      20.253  16.141   7.372  0.00  0.00     0.005 C 
HETATM    5  C   UNK N   1      19.502  15.575   6.142  0.00  0.00     0.036 C 
HETATM    6  C   UNK N   1      20.436  15.527   4.941  0.00  0.00     0.125 C 
ENDROOT
BRANCH   1   7
HETATM    7  C   UNK N   1      20.505  17.273   3.193  0.00  0.00     0.118 A 
HETATM    8  N   UNK N   1      20.194  16.313   2.267  0.00  0.00    -0.338 N 
HETATM    9  C   UNK N   1      20.024  16.618   0.943  0.00  0.00     0.183 A 
ATOM     10  HN  UNK N   1      20.084  15.346   2.572  1.00  0.00     0.168 HD
HETATM   11  N   UNK N   1      20.141  17.908   0.511  0.00  0.00    -0.338 N 
HETATM   12  C   UNK N   1      20.432  18.867   1.420  0.00  0.00     0.120 A 
ATOM     13  HN  UNK N   1      20.014  18.143  -0.473  1.00  0.00     0.168 HD
HETATM   14  N   UNK N   1      20.553  20.175   1.166  0.00  0.00    -0.351 N 
HETATM   15  C   UNK N   1      20.622  18.591   2.737  0.00  0.00     0.053 A 
HETATM   16  C   UNK N   1      20.828  20.754   2.361  0.00  0.00     0.091 A 
HETATM   17  H   UNK N   1      20.462  20.624   0.295  0.00  0.00     0.166 HD
HETATM   18  C   UNK N   1      20.879  19.787   3.370  0.00  0.00     0.036 A 
ENDBRANCH   1   7
BRANCH   4  19
HETATM   19  C   UNK N   1      19.203  16.871   8.219  0.00  0.00     0.125 C 
BRANCH  19  20
HETATM   20  N   UNK N   1      19.739  18.074   8.844  0.00  0.00    -0.429 N 
HETATM   21  H   UNK N   1      19.666  19.028   8.489  0.00  0.00     0.149 HD
HETATM   22  H   UNK N   1      20.236  17.950   9.725  0.00  0.00     0.149 HD
ENDBRANCH  19  20
ENDBRANCH   4  19
BRANCH   4  23
HETATM   23  C   UNK N   1      20.883  14.991   8.164  0.00  0.00    -0.048 A 
HETATM   24  C   UNK N   1      22.117  14.437   7.779  0.00  0.00     0.010 A 
HETATM   25  C   UNK N   1      22.700  13.410   8.531  0.00  0.00     0.024 A 
HETATM   26  C   UNK N   1      22.055  12.921   9.672  0.00  0.00     0.034 A 
HETATM   27 Cl   UNK N   1      22.788  11.651  10.628  0.00  0.00    -0.084 Cl
HETATM   28  C   UNK N   1      20.826  13.452  10.058  0.00  0.00     0.024 A 
HETATM   29  C   UNK N   1      20.246  14.477   9.312  0.00  0.00     0.010 A 
ENDBRANCH   4  23
TORSDOF 4
ENDMDL
MODEL 3
REMARK VINA RESULT:      -7.0      3.671      7.613
REMARK  4 active torsions:
REMARK  status: ('A' for Active; 'I' for Inactive)
REMARK    1  A    between atoms: N_1  and  C_16 
REMARK    2  A    between atoms: C_4  and  C_5 
REMARK    3  A    between atoms: C_4  and  C_9 
REMARK    4  A    between atoms: C_5  and  N_6 
ROOT
HETATM    1  N   UNK N   1      34.401  15.393   9.956  0.00  0.00    -0.366 N 
HETATM    2  C   UNK N   1      34.859  16.728   9.588  0.00  0.00     0.125 C 
HETATM    3  C   UNK N   1      33.776  17.473   8.779  0.00  0.00     0.036 C 
HETATM    4  C   UNK N   1      33.246  16.660   7.563  0.00  0.00     0.005 C 
HETATM    5  C   UNK N   1      33.363  15.140   7.833  0.00  0.00     0.036 C 
HETATM    6  C   UNK N   1      33.214  14.865   9.323  0.00  0.00     0.125 C 
ENDROOT
BRANCH   1   7
HETATM    7  C   UNK N   1      35.130  14.553  10.853  0.00  0.00     0.118 A 
HETATM    8  N   UNK N   1      34.517  14.080  11.982  0.00  0.00    -0.338 N 
HETATM    9  C   UNK N   1      35.176  13.280  12.879  0.00  0.00     0.183 A 
ATOM     10  HN  UNK N   1      33.544  14.329  12.161  1.00  0.00     0.168 HD
HETATM   11  N   UNK N   1      36.470  12.912  12.653  0.00  0.00    -0.338 N 
HETATM   12  C   UNK N   1      37.081  13.359  11.531  0.00  0.00     0.120 A 
ATOM     13  HN  UNK N   1      36.967  12.315  13.315  1.00  0.00     0.168 HD
HETATM   14  N   UNK N   1      38.331  13.069  11.151  0.00  0.00    -0.351 N 
HETATM   15  C   UNK N   1      36.458  14.167  10.634  0.00  0.00     0.053 A 
HETATM   16  C   UNK N   1      38.511  13.711   9.971  0.00  0.00     0.091 A 
HETATM   17  H   UNK N   1      38.983  12.507  11.629  0.00  0.00     0.166 HD
HETATM   18  C   UNK N   1      37.354  14.411   9.616  0.00  0.00     0.036 A 
ENDBRANCH   1   7
BRANCH   4  19
HETATM   19  C   UNK N   1      34.125  16.948   6.340  0.00  0.00     0.125 C 
BRANCH  19  20
HETATM   20  N   UNK N   1      34.877  15.776   5.912  0.00  0.00    -0.429 N 
HETATM   21  H   UNK N   1      35.862  15.747   5.650  0.00  0.00     0.149 HD
HETATM   22  H   UNK N   1      34.367  14.894   5.872  0.00  0.00     0.149 HD
ENDBRANCH  19  20
ENDBRANCH   4  19
BRANCH   4  23
HETATM   23  C   UNK N   1      31.786  17.021   7.278  0.00  0.00    -0.048 A 
HETATM   24  C   UNK N   1      30.960  17.550   8.287  0.00  0.00     0.010 A 
HETATM   25  C   UNK N   1      29.636  17.909   8.005  0.00  0.00     0.024 A 
HETATM   26  C   UNK N   1      29.121  17.740   6.716  0.00  0.00     0.034 A 
HETATM   27 Cl   UNK N   1      27.473  18.206   6.352  0.00  0.00    -0.084 Cl
HETATM   28  C   UNK N   1      29.924  17.205   5.710  0.00  0.00     0.024 A 
HETATM   29  C   UNK N   1      31.243  16.850   5.989  0.00  0.00     0.010 A 
ENDBRANCH   4  23
TORSDOF 4
ENDMDL
MODEL 4
REMARK VINA RESULT:      -6.9      6.280     10.312
REMARK  4 active torsions:
REMARK  status: ('A' for Active; 'I' for Inactive)
REMARK    1  A    between atoms: N_1  and  C_16 
REMARK    2  A    between atoms: C_4  and  C_5 
REMARK    3  A    between atoms: C_4  and  C_9 
REMARK    4  A    between atoms: C_5  and  N_6 
ROOT
HETATM    1  N   UNK N   1      31.144  16.675   6.675  0.00  0.00    -0.366 N 
HETATM    2  C   UNK N   1      31.590  16.650   5.286  0.00  0.00     0.125 C 
HETATM    3  C   UNK N   1      30.509  17.237   4.355  0.00  0.00     0.036 C 
HETATM    4  C   UNK N   1      29.108  16.589   4.551  0.00  0.00     0.005 C 
HETATM    5  C   UNK N   1      28.945  16.076   6.002  0.00  0.00     0.036 C 
HETATM    6  C   UNK N   1      29.752  16.947   6.954  0.00  0.00     0.125 C 
ENDROOT
BRANCH   1   7
HETATM    7  C   UNK N   1      32.011  16.355   7.764  0.00  0.00     0.118 A 
HETATM    8  N   UNK N   1      31.783  15.222   8.498  0.00  0.00    -0.338 N 
HETATM    9  C   UNK N   1      32.578  14.876   9.558  0.00  0.00     0.183 A 
ATOM     10  HN  UNK N   1      30.999  14.618   8.247  1.00  0.00     0.168 HD
HETATM   11  N   UNK N   1      33.647  15.653   9.900  0.00  0.00    -0.338 N 
HETATM   12  C   UNK N   1      33.893  16.767   9.171  0.00  0.00     0.120 A 
ATOM     13  HN  UNK N   1      34.245  15.401  10.687  1.00  0.00     0.168 HD
HETATM   14  N   UNK N   1      34.910  17.615   9.358  0.00  0.00    -0.351 N 
HETATM   15  C   UNK N   1      33.111  17.142   8.126  0.00  0.00     0.053 A 
HETATM   16  C   UNK N   1      34.775  18.563   8.399  0.00  0.00     0.091 A 
HETATM   17  H   UNK N   1      35.611  17.562  10.049  0.00  0.00     0.166 HD
HETATM   18  C   UNK N   1      33.654  18.297   7.607  0.00  0.00     0.036 A 
ENDBRANCH   1   7
BRANCH   4  19
HETATM   19  C   UNK N   1      28.988  15.358   3.643  0.00  0.00     0.125 C 
BRANCH  19  20
HETATM   20  N   UNK N   1      28.880  14.120   4.405  0.00  0.00    -0.429 N 
HETATM   21  H   UNK N   1      29.632  13.644   4.902  0.00  0.00     0.149 HD
HETATM   22  H   UNK N   1      27.958  13.686   4.446  0.00  0.00     0.149 HD
ENDBRANCH  19  20
ENDBRANCH   4  19
BRANCH   4  23
HETATM   23  C   UNK N   1      28.004  17.603   4.237  0.00  0.00    -0.048 A 
HETATM   24  C   UNK N   1      28.221  18.983   4.401  0.00  0.00     0.010 A 
HETATM   25  C   UNK N   1      27.216  19.904   4.077  0.00  0.00     0.024 A 
HETATM   26  C   UNK N   1      25.984  19.456   3.591  0.00  0.00     0.034 A 
HETATM   27 Cl   UNK N   1      24.730  20.601   3.165  0.00  0.00    -0.084 Cl
HETATM   28  C   UNK N   1      25.751  18.090   3.435  0.00  0.00     0.024 A 
HETATM   29  C   UNK N   1      26.752  17.174   3.755  0.00  0.00     0.010 A 
ENDBRANCH   4  23
TORSDOF 4
ENDMDL
MODEL 5
REMARK VINA RESULT:      -6.8      4.710      6.873
REMARK  4 active torsions:
REMARK  status: ('A' for Active; 'I' for Inactive)
REMARK    1  A    between atoms: N_1  and  C_16 
REMARK    2  A    between atoms: C_4  and  C_5 
REMARK    3  A    between atoms: C_4  and  C_9 
REMARK    4  A    between atoms: C_5  and  N_6 
ROOT
HETATM    1  N   UNK N   1      31.735  16.991   8.156  0.00  0.00    -0.366 N 
HETATM    2  C   UNK N   1      32.843  17.940   8.187  0.00  0.00     0.125 C 
HETATM    3  C   UNK N   1      34.150  17.268   7.717  0.00  0.00     0.036 C 
HETATM    4  C   UNK N   1      34.468  15.944   8.469  0.00  0.00     0.005 C 
HETATM    5  C   UNK N   1      33.163  15.265   8.951  0.00  0.00     0.036 C 
HETATM    6  C   UNK N   1      32.027  15.585   7.989  0.00  0.00     0.125 C 
ENDROOT
BRANCH   1   7
HETATM    7  C   UNK N   1      30.380  17.388   8.373  0.00  0.00     0.118 A 
HETATM    8  N   UNK N   1      29.928  17.575   9.651  0.00  0.00    -0.338 N 
HETATM    9  C   UNK N   1      28.635  17.945   9.913  0.00  0.00     0.183 A 
ATOM     10  HN  UNK N   1      30.571  17.436  10.431  1.00  0.00     0.168 HD
HETATM   11  N   UNK N   1      27.759  18.160   8.889  0.00  0.00    -0.338 N 
HETATM   12  C   UNK N   1      28.199  17.996   7.619  0.00  0.00     0.120 A 
ATOM     13  HN  UNK N   1      26.795  18.437   9.075  1.00  0.00     0.168 HD
HETATM   14  N   UNK N   1      27.479  18.193   6.509  0.00  0.00    -0.351 N 
HETATM   15  C   UNK N   1      29.471  17.613   7.332  0.00  0.00     0.053 A 
HETATM   16  C   UNK N   1      28.319  17.930   5.478  0.00  0.00     0.091 A 
HETATM   17  H   UNK N   1      26.536  18.471   6.453  0.00  0.00     0.166 HD
HETATM   18  C   UNK N   1      29.580  17.562   5.959  0.00  0.00     0.036 A 
ENDBRANCH   1   7
BRANCH   4  19
HETATM   19  C   UNK N   1      35.279  16.262   9.732  0.00  0.00     0.125 C 
BRANCH  19  20
HETATM   20  N   UNK N   1      34.537  15.968  10.952  0.00  0.00    -0.429 N 
HETATM   21  H   UNK N   1      34.560  16.500  11.822  0.00  0.00     0.149 HD
HETATM   22  H   UNK N   1      33.933  15.146  10.934  0.00  0.00     0.149 HD
ENDBRANCH  19  20
ENDBRANCH   4  19
BRANCH   4  23
HETATM   23  C   UNK N   1      35.240  14.987   7.557  0.00  0.00    -0.048 A 
HETATM   24  C   UNK N   1      35.256  15.169   6.162  0.00  0.00     0.010 A 
HETATM   25  C   UNK N   1      35.994  14.308   5.342  0.00  0.00     0.024 A 
HETATM   26  C   UNK N   1      36.720  13.253   5.903  0.00  0.00     0.034 A 
HETATM   27 Cl   UNK N   1      37.661  12.184   4.885  0.00  0.00    -0.084 Cl
HETATM   28  C   UNK N   1      36.703  13.052   7.282  0.00  0.00     0.024 A 
HETATM   29  C   UNK N   1      35.971  13.911   8.101  0.00  0.00     0.010 A 
ENDBRANCH   4  23
TORSDOF 4
ENDMDL
MODEL 6
REMARK VINA RESULT:      -6.7      6.159     10.032
REMARK  4 active torsions:
REMARK  status: ('A' for Active; 'I' for Inactive)
REMARK    1  A    between atoms: N_1  and  C_16 
REMARK    2  A    between atoms: C_4  and  C_5 
REMARK    3  A    between atoms: C_4  and  C_9 
REMARK    4  A    between atoms: C_5  and  N_6 
ROOT
HETATM    1  N   UNK N   1      30.521  16.656   8.209  0.00  0.00    -0.366 N 
HETATM    2  C   UNK N   1      29.444  17.363   8.894  0.00  0.00     0.125 C 
HETATM    3  C   UNK N   1      28.155  17.347   8.045  0.00  0.00     0.036 C 
HETATM    4  C   UNK N   1      28.370  17.842   6.586  0.00  0.00     0.005 C 
HETATM    5  C   UNK N   1      29.822  17.563   6.126  0.00  0.00     0.036 C 
HETATM    6  C   UNK N   1      30.353  16.313   6.815  0.00  0.00     0.125 C 
ENDROOT
BRANCH   1   7
HETATM    7  C   UNK N   1      31.771  16.368   8.839  0.00  0.00     0.118 A 
HETATM    8  N   UNK N   1      31.888  15.252   9.624  0.00  0.00    -0.338 N 
HETATM    9  C   UNK N   1      33.061  14.937  10.259  0.00  0.00     0.183 A 
ATOM     10  HN  UNK N   1      31.081  14.639   9.740  1.00  0.00     0.168 HD
HETATM   11  N   UNK N   1      34.163  15.728  10.103  0.00  0.00    -0.338 N 
HETATM   12  C   UNK N   1      34.064  16.823   9.315  0.00  0.00     0.120 A 
ATOM     13  HN  UNK N   1      35.040  15.499  10.570  1.00  0.00     0.168 HD
HETATM   14  N   UNK N   1      35.053  17.681   9.038  0.00  0.00    -0.351 N 
HETATM   15  C   UNK N   1      32.909  17.169   8.687  0.00  0.00     0.053 A 
HETATM   16  C   UNK N   1      34.512  18.603   8.204  0.00  0.00     0.091 A 
HETATM   17  H   UNK N   1      35.979  17.649   9.370  0.00  0.00     0.166 HD
HETATM   18  C   UNK N   1      33.166  18.312   7.964  0.00  0.00     0.036 A 
ENDBRANCH   1   7
BRANCH   4  19
HETATM   19  C   UNK N   1      28.188  19.364   6.536  0.00  0.00     0.125 C 
BRANCH  19  20
HETATM   20  N   UNK N   1      27.064  19.811   7.348  0.00  0.00    -0.429 N 
HETATM   21  H   UNK N   1      27.074  20.001   8.351  0.00  0.00     0.149 HD
HETATM   22  H   UNK N   1      26.176  19.949   6.866  0.00  0.00     0.149 HD
ENDBRANCH  19  20
ENDBRANCH   4  19
BRANCH   4  23
HETATM   23  C   UNK N   1      27.388  17.147   5.639  0.00  0.00    -0.048 A 
HETATM   24  C   UNK N   1      26.578  16.086   6.086  0.00  0.00     0.010 A 
HETATM   25  C   UNK N   1      25.658  15.482   5.219  0.00  0.00     0.024 A 
HETATM   26  C   UNK N   1      25.540  15.926   3.899  0.00  0.00     0.034 A 
HETATM   27 Cl   UNK N   1      24.378  15.188   2.817  0.00  0.00    -0.084 Cl
HETATM   28  C   UNK N   1      26.345  16.967   3.440  0.00  0.00     0.024 A 
HETATM   29  C   UNK N   1      27.259  17.572   4.302  0.00  0.00     0.010 A 
ENDBRANCH   4  23
TORSDOF 4
ENDMDL
MODEL 7
REMARK VINA RESULT:      -6.7      1.372      2.248
REMARK  4 active torsions:
REMARK  status: ('A' for Active; 'I' for Inactive)
REMARK    1  A    between atoms: N_1  and  C_16 
REMARK    2  A    between atoms: C_4  and  C_5 
REMARK    3  A    between atoms: C_4  and  C_9 
REMARK    4  A    between atoms: C_5  and  N_6 
ROOT
HETATM    1  N   UNK N   1      34.311  15.007   9.173  0.00  0.00    -0.366 N 
HETATM    2  C   UNK N   1      34.645  13.604   8.950  0.00  0.00     0.125 C 
HETATM    3  C   UNK N   1      34.980  12.904  10.284  0.00  0.00     0.036 C 
HETATM    4  C   UNK N   1      36.054  13.655  11.122  0.00  0.00     0.005 C 
HETATM    5  C   UNK N   1      36.015  15.173  10.821  0.00  0.00     0.036 C 
HETATM    6  C   UNK N   1      34.597  15.594  10.463  0.00  0.00     0.125 C 
ENDROOT
BRANCH   1   7
HETATM    7  C   UNK N   1      33.793  15.845   8.139  0.00  0.00     0.118 A 
HETATM    8  N   UNK N   1      34.590  16.174   7.075  0.00  0.00    -0.338 N 
HETATM    9  C   UNK N   1      34.145  16.983   6.063  0.00  0.00     0.183 A 
ATOM     10  HN  UNK N   1      35.541  15.806   7.034  1.00  0.00     0.168 HD
HETATM   11  N   UNK N   1      32.871  17.470   6.080  0.00  0.00    -0.338 N 
HETATM   12  C   UNK N   1      32.068  17.138   7.118  0.00  0.00     0.120 A 
ATOM     13  HN  UNK N   1      32.531  18.072   5.329  1.00  0.00     0.168 HD
HETATM   14  N   UNK N   1      30.791  17.508   7.269  0.00  0.00    -0.351 N 
HETATM   15  C   UNK N   1      32.488  16.351   8.143  0.00  0.00     0.053 A 
HETATM   16  C   UNK N   1      30.382  16.937   8.429  0.00  0.00     0.091 A 
HETATM   17  H   UNK N   1      30.260  18.076   6.665  0.00  0.00     0.166 HD
HETATM   18  C   UNK N   1      31.424  16.204   9.005  0.00  0.00     0.036 A 
ENDBRANCH   1   7
BRANCH   4  19
HETATM   19  C   UNK N   1      37.449  13.170  10.707  0.00  0.00     0.125 C 
BRANCH  19  20
HETATM   20  N   UNK N   1      38.287  14.256  10.216  0.00  0.00    -0.429 N 
HETATM   21  H   UNK N   1      38.720  14.323   9.294  0.00  0.00     0.149 HD
HETATM   22  H   UNK N   1      38.457  15.030  10.858  0.00  0.00     0.149 HD
ENDBRANCH  19  20
ENDBRANCH   4  19
BRANCH   4  23
HETATM   23  C   UNK N   1      35.822  13.420  12.617  0.00  0.00    -0.048 A 
HETATM   24  C   UNK N   1      36.478  14.203  13.584  0.00  0.00     0.010 A 
HETATM   25  C   UNK N   1      36.231  14.002  14.948  0.00  0.00     0.024 A 
HETATM   26  C   UNK N   1      35.331  13.015  15.361  0.00  0.00     0.034 A 
HETATM   27 Cl   UNK N   1      35.002  12.772  17.063  0.00  0.00    -0.084 Cl
HETATM   28  C   UNK N   1      34.684  12.223  14.414  0.00  0.00     0.024 A 
HETATM   29  C   UNK N   1      34.927  12.424  13.056  0.00  0.00     0.010 A 
ENDBRANCH   4  23
TORSDOF 4
ENDMDL
MODEL 8
REMARK VINA RESULT:      -6.7     12.532     13.992
REMARK  4 active torsions:
REMARK  status: ('A' for Active; 'I' for Inactive)
REMARK    1  A    between atoms: N_1  and  C_16 
REMARK    2  A    between atoms: C_4  and  C_5 
REMARK    3  A    between atoms: C_4  and  C_9 
REMARK    4  A    between atoms: C_5  and  N_6 
ROOT
HETATM    1  N   UNK N   1      21.236  14.078   5.676  0.00  0.00    -0.366 N 
HETATM    2  C   UNK N   1      21.018  12.637   5.596  0.00  0.00     0.125 C 
HETATM    3  C   UNK N   1      21.443  11.948   6.910  0.00  0.00     0.036 C 
HETATM    4  C   UNK N   1      22.885  12.315   7.362  0.00  0.00     0.005 C 
HETATM    5  C   UNK N   1      23.270  13.726   6.855  0.00  0.00     0.036 C 
HETATM    6  C   UNK N   1      22.029  14.603   6.766  0.00  0.00     0.125 C 
ENDROOT
BRANCH   1   7
HETATM    7  C   UNK N   1      20.771  14.981   4.671  0.00  0.00     0.118 A 
HETATM    8  N   UNK N   1      19.921  15.996   5.019  0.00  0.00    -0.338 N 
HETATM    9  C   UNK N   1      19.438  16.881   4.091  0.00  0.00     0.183 A 
ATOM     10  HN  UNK N   1      19.639  16.097   5.994  1.00  0.00     0.168 HD
HETATM   11  N   UNK N   1      19.816  16.784   2.783  0.00  0.00    -0.338 N 
HETATM   12  C   UNK N   1      20.670  15.795   2.432  0.00  0.00     0.120 A 
ATOM     13  HN  UNK N   1      19.462  17.441   2.088  1.00  0.00     0.168 HD
HETATM   14  N   UNK N   1      21.157  15.581   1.204  0.00  0.00    -0.351 N 
HETATM   15  C   UNK N   1      21.151  14.894   3.327  0.00  0.00     0.053 A 
HETATM   16  C   UNK N   1      21.978  14.509   1.319  0.00  0.00     0.091 A 
HETATM   17  H   UNK N   1      20.960  16.095   0.387  0.00  0.00     0.166 HD
HETATM   18  C   UNK N   1      21.997  14.050   2.640  0.00  0.00     0.036 A 
ENDBRANCH   1   7
BRANCH   4  19
HETATM   19  C   UNK N   1      23.881  11.341   6.721  0.00  0.00     0.125 C 
BRANCH  19  20
HETATM   20  N   UNK N   1      24.772  12.004   5.778  0.00  0.00    -0.429 N 
HETATM   21  H   UNK N   1      25.612  12.536   6.005  0.00  0.00     0.149 HD
HETATM   22  H   UNK N   1      24.532  11.929   4.789  0.00  0.00     0.149 HD
ENDBRANCH  19  20
ENDBRANCH   4  19
BRANCH   4  23
HETATM   23  C   UNK N   1      22.991  12.271   8.889  0.00  0.00    -0.048 A 
HETATM   24  C   UNK N   1      21.839  12.306   9.696  0.00  0.00     0.010 A 
HETATM   25  C   UNK N   1      21.947  12.229  11.091  0.00  0.00     0.024 A 
HETATM   26  C   UNK N   1      23.204  12.122  11.693  0.00  0.00     0.034 A 
HETATM   27 Cl   UNK N   1      23.345  12.005  13.434  0.00  0.00    -0.084 Cl
HETATM   28  C   UNK N   1      24.354  12.099  10.906  0.00  0.00     0.024 A 
HETATM   29  C   UNK N   1      24.248  12.173   9.518  0.00  0.00     0.010 A 
ENDBRANCH   4  23
TORSDOF 4
ENDMDL
MODEL 9
REMARK VINA RESULT:      -6.7      4.157      8.262
REMARK  4 active torsions:
REMARK  status: ('A' for Active; 'I' for Inactive)
REMARK    1  A    between atoms: N_1  and  C_16 
REMARK    2  A    between atoms: C_4  and  C_5 
REMARK    3  A    between atoms: C_4  and  C_9 
REMARK    4  A    between atoms: C_5  and  N_6 
ROOT
HETATM    1  N   UNK N   1      35.604  12.919  15.244  0.00  0.00    -0.366 N 
HETATM    2  C   UNK N   1      36.631  13.812  14.721  0.00  0.00     0.125 C 
HETATM    3  C   UNK N   1      36.318  14.210  13.263  0.00  0.00     0.036 C 
HETATM    4  C   UNK N   1      36.049  12.991  12.335  0.00  0.00     0.005 C 
HETATM    5  C   UNK N   1      35.474  11.806  13.148  0.00  0.00     0.036 C 
HETATM    6  C   UNK N   1      34.659  12.329  14.322  0.00  0.00     0.125 C 
ENDROOT
BRANCH   1   7
HETATM    7  C   UNK N   1      35.549  12.534  16.619  0.00  0.00     0.118 A 
HETATM    8  N   UNK N   1      35.148  13.446  17.558  0.00  0.00    -0.338 N 
HETATM    9  C   UNK N   1      35.089  13.131  18.890  0.00  0.00     0.183 A 
ATOM     10  HN  UNK N   1      34.885  14.385  17.259  1.00  0.00     0.168 HD
HETATM   11  N   UNK N   1      35.413  11.875  19.316  0.00  0.00    -0.338 N 
HETATM   12  C   UNK N   1      35.794  10.961  18.395  0.00  0.00     0.120 A 
ATOM     13  HN  UNK N   1      35.369  11.632  20.306  1.00  0.00     0.168 HD
HETATM   14  N   UNK N   1      36.115   9.686  18.643  0.00  0.00    -0.351 N 
HETATM   15  C   UNK N   1      35.877  11.251  17.070  0.00  0.00     0.053 A 
HETATM   16  C   UNK N   1      36.412   9.143  17.437  0.00  0.00     0.091 A 
HETATM   17  H   UNK N   1      36.133   9.236  19.519  0.00  0.00     0.166 HD
HETATM   18  C   UNK N   1      36.274  10.099  16.425  0.00  0.00     0.036 A 
ENDBRANCH   1   7
BRANCH   4  19
HETATM   19  C   UNK N   1      37.377  12.503  11.743  0.00  0.00     0.125 C 
BRANCH  19  20
HETATM   20  N   UNK N   1      38.097  13.567  11.054  0.00  0.00    -0.429 N 
HETATM   21  H   UNK N   1      39.097  13.760  11.111  0.00  0.00     0.149 HD
HETATM   22  H   UNK N   1      37.546  14.180  10.454  0.00  0.00     0.149 HD
ENDBRANCH  19  20
ENDBRANCH   4  19
BRANCH   4  23
HETATM   23  C   UNK N   1      35.069  13.376  11.223  0.00  0.00    -0.048 A 
HETATM   24  C   UNK N   1      34.534  14.675  11.146  0.00  0.00     0.010 A 
HETATM   25  C   UNK N   1      33.666  15.025  10.104  0.00  0.00     0.024 A 
HETATM   26  C   UNK N   1      33.319  14.082   9.131  0.00  0.00     0.034 A 
HETATM   27 Cl   UNK N   1      32.251  14.518   7.815  0.00  0.00    -0.084 Cl
HETATM   28  C   UNK N   1      33.832  12.788   9.202  0.00  0.00     0.024 A 
HETATM   29  C   UNK N   1      34.699  12.439  10.237  0.00  0.00     0.010 A 
ENDBRANCH   4  23
TORSDOF 4
ENDMDL
