MODEL 1
REMARK VINA RESULT:      -7.0      0.000      0.000
REMARK  5 active torsions:
REMARK  status: ('A' for Active; 'I' for Inactive)
REMARK    1  A    between atoms: N_1  and  C_15 
REMARK    2  A    between atoms: C_4  and  N_5 
REMARK    3  A    between atoms: C_4  and  C_27 
REMARK    4  A    between atoms: C_8  and  C_18 
REMARK    5  A    between atoms: C_18  and  C_27 
ROOT
HETATM    1  N   UNK N   1      20.610  16.021   4.877  0.00  0.00    -0.366 N 
HETATM    2  C   UNK N   1      20.433  16.016   6.311  0.00  0.00     0.125 C 
HETATM    3  C   UNK N   1      21.777  15.701   6.970  0.00  0.00     0.031 C 
HETATM    4  C   UNK N   1      22.460  14.509   4.837  0.00  0.00     0.031 C 
HETATM    5  C   UNK N   1      21.075  14.803   4.269  0.00  0.00     0.125 C 
HETATM    6  C   UNK N   1      22.477  14.456   6.373  0.00  0.00    -0.018 C 
ENDROOT
BRANCH   1   7
HETATM    7  C   UNK N   1      20.534  17.216   4.095  0.00  0.00     0.118 A 
HETATM    8  N   UNK N   1      19.383  17.514   3.414  0.00  0.00    -0.338 N 
HETATM    9  C   UNK N   1      19.281  18.628   2.623  0.00  0.00     0.183 A 
ATOM     10  HN  UNK N   1      18.580  16.889   3.499  1.00  0.00     0.168 HD
HETATM   11  N   UNK N   1      20.342  19.474   2.483  0.00  0.00    -0.338 N 
HETATM   12  C   UNK N   1      21.486  19.189   3.147  0.00  0.00     0.120 A 
ATOM     13  HN  UNK N   1      20.275  20.303   1.891  1.00  0.00     0.168 HD
HETATM   14  N   UNK N   1      22.616  19.905   3.104  0.00  0.00    -0.351 N 
HETATM   15  C   UNK N   1      21.614  18.097   3.943  0.00  0.00     0.053 A 
HETATM   16  C   UNK N   1      23.494  19.248   3.902  0.00  0.00     0.091 A 
HETATM   17  H   UNK N   1      22.776  20.736   2.599  0.00  0.00     0.166 HD
HETATM   18  C   UNK N   1      22.898  18.107   4.444  0.00  0.00     0.036 A 
ENDBRANCH   1   7
BRANCH   6  19
HETATM   19  C   UNK N   1      23.966  14.495   6.750  0.00  0.00     0.120 C 
BRANCH  19  20
HETATM   20  N   UNK N   1      24.581  15.787   6.476  0.00  0.00    -0.429 N 
HETATM   21  H   UNK N   1      24.779  16.435   7.239  0.00  0.00     0.149 HD
HETATM   22  H   UNK N   1      24.814  16.046   5.518  0.00  0.00     0.149 HD
ENDBRANCH  19  20
ENDBRANCH   6  19
BRANCH   6  23
HETATM   23  C   UNK N   1      21.797  13.134   6.795  0.00  0.00     0.049 C 
BRANCH  23  24
HETATM   24  C   UNK N   1      21.963  12.765   8.236  0.00  0.00    -0.057 A 
HETATM   25  C   UNK N   1      21.163  13.341   9.233  0.00  0.00     0.009 A 
HETATM   26  C   UNK N   1      21.388  13.020  10.577  0.00  0.00     0.024 A 
HETATM   27  C   UNK N   1      22.414  12.134  10.925  0.00  0.00     0.034 A 
HETATM   28 Cl   UNK N   1      22.718  11.758  12.606  0.00  0.00    -0.084 Cl
HETATM   29  C   UNK N   1      23.205  11.556   9.930  0.00  0.00     0.024 A 
HETATM   30  C   UNK N   1      22.978  11.869   8.589  0.00  0.00     0.009 A 
ENDBRANCH  23  24
ENDBRANCH   6  23
TORSDOF 5
ENDMDL
MODEL 2
REMARK VINA RESULT:      -7.0      1.379      1.953
REMARK  5 active torsions:
REMARK  status: ('A' for Active; 'I' for Inactive)
REMARK    1  A    between atoms: N_1  and  C_15 
REMARK    2  A    between atoms: C_4  and  N_5 
REMARK    3  A    between atoms: C_4  and  C_27 
REMARK    4  A    between atoms: C_8  and  C_18 
REMARK    5  A    between atoms: C_18  and  C_27 
ROOT
HETATM    1  N   UNK N   1      20.017  15.153   3.708  0.00  0.00    -0.366 N 
HETATM    2  C   UNK N   1      19.164  15.277   4.868  0.00  0.00     0.125 C 
HETATM    3  C   UNK N   1      20.026  15.661   6.072  0.00  0.00     0.031 C 
HETATM    4  C   UNK N   1      22.005  14.584   4.907  0.00  0.00     0.031 C 
HETATM    5  C   UNK N   1      21.072  14.176   3.772  0.00  0.00     0.125 C 
HETATM    6  C   UNK N   1      21.272  14.762   6.247  0.00  0.00    -0.018 C 
ENDROOT
BRANCH   1   7
HETATM    7  C   UNK N   1      19.976  16.078   2.618  0.00  0.00     0.118 A 
HETATM    8  N   UNK N   1      19.563  15.656   1.382  0.00  0.00    -0.338 N 
HETATM    9  C   UNK N   1      19.544  16.499   0.301  0.00  0.00     0.183 A 
ATOM     10  HN  UNK N   1      19.259  14.689   1.263  1.00  0.00     0.168 HD
HETATM   11  N   UNK N   1      19.954  17.794   0.430  0.00  0.00    -0.338 N 
HETATM   12  C   UNK N   1      20.370  18.221   1.645  0.00  0.00     0.120 A 
ATOM     13  HN  UNK N   1      19.948  18.426  -0.372  1.00  0.00     0.168 HD
HETATM   14  N   UNK N   1      20.815  19.450   1.933  0.00  0.00    -0.351 N 
HETATM   15  C   UNK N   1      20.391  17.411   2.734  0.00  0.00     0.053 A 
HETATM   16  C   UNK N   1      21.130  19.423   3.251  0.00  0.00     0.091 A 
HETATM   17  H   UNK N   1      20.896  20.214   1.316  0.00  0.00     0.166 HD
HETATM   18  C   UNK N   1      20.878  18.158   3.786  0.00  0.00     0.036 A 
ENDBRANCH   1   7
BRANCH   6  19
HETATM   19  C   UNK N   1      22.283  15.485   7.153  0.00  0.00     0.120 C 
BRANCH  19  20
HETATM   20  N   UNK N   1      23.448  15.963   6.422  0.00  0.00    -0.429 N 
HETATM   21  H   UNK N   1      23.334  16.441   5.527  0.00  0.00     0.149 HD
HETATM   22  H   UNK N   1      24.383  15.820   6.805  0.00  0.00     0.149 HD
ENDBRANCH  19  20
ENDBRANCH   6  19
BRANCH   6  23
HETATM   23  C   UNK N   1      20.918  13.352   6.769  0.00  0.00     0.049 C 
BRANCH  23  24
HETATM   24  C   UNK N   1      21.486  13.008   8.111  0.00  0.00    -0.057 A 
HETATM   25  C   UNK N   1      22.683  12.291   8.234  0.00  0.00     0.009 A 
HETATM   26  C   UNK N   1      23.152  11.932   9.503  0.00  0.00     0.024 A 
HETATM   27  C   UNK N   1      22.422  12.281  10.645  0.00  0.00     0.034 A 
HETATM   28 Cl   UNK N   1      22.988  11.804  12.231  0.00  0.00    -0.084 Cl
HETATM   29  C   UNK N   1      21.233  13.002  10.522  0.00  0.00     0.024 A 
HETATM   30  C   UNK N   1      20.768  13.367   9.257  0.00  0.00     0.009 A 
ENDBRANCH  23  24
ENDBRANCH   6  23
TORSDOF 5
ENDMDL
MODEL 3
REMARK VINA RESULT:      -6.9     12.236     15.870
REMARK  5 active torsions:
REMARK  status: ('A' for Active; 'I' for Inactive)
REMARK    1  A    between atoms: N_1  and  C_15 
REMARK    2  A    between atoms: C_4  and  N_5 
REMARK    3  A    between atoms: C_4  and  C_27 
REMARK    4  A    between atoms: C_8  and  C_18 
REMARK    5  A    between atoms: C_18  and  C_27 
ROOT
HETATM    1  N   UNK N   1      36.187  14.639  11.815  0.00  0.00    -0.366 N 
HETATM    2  C   UNK N   1      35.305  15.660  11.296  0.00  0.00     0.125 C 
HETATM    3  C   UNK N   1      34.308  15.006  10.338  0.00  0.00     0.031 C 
HETATM    4  C   UNK N   1      36.006  13.163   9.944  0.00  0.00     0.031 C 
HETATM    5  C   UNK N   1      36.974  13.905  10.860  0.00  0.00     0.125 C 
HETATM    6  C   UNK N   1      34.977  14.094   9.282  0.00  0.00    -0.018 C 
ENDROOT
BRANCH   1   7
HETATM    7  C   UNK N   1      36.152  14.212  13.180  0.00  0.00     0.118 A 
HETATM    8  N   UNK N   1      36.887  14.881  14.122  0.00  0.00    -0.338 N 
HETATM    9  C   UNK N   1      36.912  14.482  15.433  0.00  0.00     0.183 A 
ATOM     10  HN  UNK N   1      37.428  15.699  13.841  1.00  0.00     0.168 HD
HETATM   11  N   UNK N   1      36.206  13.386  15.835  0.00  0.00    -0.338 N 
HETATM   12  C   UNK N   1      35.480  12.714  14.912  0.00  0.00     0.120 A 
ATOM     13  HN  UNK N   1      36.225  13.080  16.808  1.00  0.00     0.168 HD
HETATM   14  N   UNK N   1      34.748  11.616  15.139  0.00  0.00    -0.351 N 
HETATM   15  C   UNK N   1      35.429  13.090  13.608  0.00  0.00     0.053 A 
HETATM   16  C   UNK N   1      34.212  11.282  13.939  0.00  0.00     0.091 A 
HETATM   17  H   UNK N   1      34.625  11.150  15.998  0.00  0.00     0.166 HD
HETATM   18  C   UNK N   1      34.620  12.185  12.956  0.00  0.00     0.036 A 
ENDBRANCH   1   7
BRANCH   6  19
HETATM   19  C   UNK N   1      33.916  13.151   8.695  0.00  0.00     0.120 C 
BRANCH  19  20
HETATM   20  N   UNK N   1      32.569  13.471   9.149  0.00  0.00    -0.429 N 
HETATM   21  H   UNK N   1      31.872  12.732   9.255  0.00  0.00     0.149 HD
HETATM   22  H   UNK N   1      32.321  14.437   9.363  0.00  0.00     0.149 HD
ENDBRANCH  19  20
ENDBRANCH   6  19
BRANCH   6  23
HETATM   23  C   UNK N   1      35.719  14.897   8.190  0.00  0.00     0.049 C 
BRANCH  23  24
HETATM   24  C   UNK N   1      34.838  15.565   7.182  0.00  0.00    -0.057 A 
HETATM   25  C   UNK N   1      34.616  15.000   5.919  0.00  0.00     0.009 A 
HETATM   26  C   UNK N   1      33.838  15.683   4.978  0.00  0.00     0.024 A 
HETATM   27  C   UNK N   1      33.289  16.932   5.294  0.00  0.00     0.034 A 
HETATM   28 Cl   UNK N   1      32.344  17.804   4.108  0.00  0.00    -0.084 Cl
HETATM   29  C   UNK N   1      33.505  17.490   6.556  0.00  0.00     0.024 A 
HETATM   30  C   UNK N   1      34.275  16.807   7.498  0.00  0.00     0.009 A 
ENDBRANCH  23  24
ENDBRANCH   6  23
TORSDOF 5
ENDMDL
MODEL 4
REMARK VINA RESULT:      -6.8      3.892      7.803
REMARK  5 active torsions:
REMARK  status: ('A' for Active; 'I' for Inactive)
REMARK    1  A    between atoms: N_1  and  C_15 
REMARK    2  A    between atoms: C_4  and  N_5 
REMARK    3  A    between atoms: C_4  and  C_27 
REMARK    4  A    between atoms: C_8  and  C_18 
REMARK    5  A    between atoms: C_18  and  C_27 
ROOT
HETATM    1  N   UNK N   1      20.843  13.732   8.662  0.00  0.00    -0.366 N 
HETATM    2  C   UNK N   1      20.873  13.223   7.310  0.00  0.00     0.125 C 
HETATM    3  C   UNK N   1      21.707  14.173   6.448  0.00  0.00     0.031 C 
HETATM    4  C   UNK N   1      21.153  16.030   8.084  0.00  0.00     0.031 C 
HETATM    5  C   UNK N   1      20.284  15.043   8.857  0.00  0.00     0.125 C 
HETATM    6  C   UNK N   1      21.302  15.658   6.600  0.00  0.00    -0.018 C 
ENDROOT
BRANCH   1   7
HETATM    7  C   UNK N   1      21.513  13.081   9.746  0.00  0.00     0.118 A 
HETATM    8  N   UNK N   1      20.782  12.515  10.757  0.00  0.00    -0.338 N 
HETATM    9  C   UNK N   1      21.383  11.915  11.832  0.00  0.00     0.183 A 
ATOM     10  HN  UNK N   1      19.762  12.539  10.707  1.00  0.00     0.168 HD
HETATM   11  N   UNK N   1      22.744  11.877  11.930  0.00  0.00    -0.338 N 
HETATM   12  C   UNK N   1      23.476  12.437  10.940  0.00  0.00     0.120 A 
ATOM     13  HN  UNK N   1      23.198  11.436  12.730  1.00  0.00     0.168 HD
HETATM   14  N   UNK N   1      24.813  12.497  10.892  0.00  0.00    -0.351 N 
HETATM   15  C   UNK N   1      22.908  13.030   9.859  0.00  0.00     0.053 A 
HETATM   16  C   UNK N   1      25.107  13.150   9.741  0.00  0.00     0.091 A 
HETATM   17  H   UNK N   1      25.449  12.140  11.554  0.00  0.00     0.166 HD
HETATM   18  C   UNK N   1      23.935  13.501   9.068  0.00  0.00     0.036 A 
ENDBRANCH   1   7
BRANCH   6  19
HETATM   19  C   UNK N   1      22.450  16.542   6.088  0.00  0.00     0.120 C 
BRANCH  19  20
HETATM   20  N   UNK N   1      23.762  15.966   6.354  0.00  0.00    -0.429 N 
HETATM   21  H   UNK N   1      24.585  16.308   5.856  0.00  0.00     0.149 HD
HETATM   22  H   UNK N   1      23.859  15.219   7.042  0.00  0.00     0.149 HD
ENDBRANCH  19  20
ENDBRANCH   6  19
BRANCH   6  23
HETATM   23  C   UNK N   1      19.959  15.980   5.908  0.00  0.00     0.049 C 
BRANCH  23  24
HETATM   24  C   UNK N   1      20.052  16.276   4.443  0.00  0.00    -0.057 A 
HETATM   25  C   UNK N   1      20.070  17.593   3.966  0.00  0.00     0.009 A 
HETATM   26  C   UNK N   1      20.093  17.833   2.587  0.00  0.00     0.024 A 
HETATM   27  C   UNK N   1      20.090  16.760   1.688  0.00  0.00     0.034 A 
HETATM   28 Cl   UNK N   1      20.086  17.057  -0.037  0.00  0.00    -0.084 Cl
HETATM   29  C   UNK N   1      20.080  15.448   2.165  0.00  0.00     0.024 A 
HETATM   30  C   UNK N   1      20.063  15.207   3.540  0.00  0.00     0.009 A 
ENDBRANCH  23  24
ENDBRANCH   6  23
TORSDOF 5
ENDMDL
MODEL 5
REMARK VINA RESULT:      -6.8      1.814      2.405
REMARK  5 active torsions:
REMARK  status: ('A' for Active; 'I' for Inactive)
REMARK    1  A    between atoms: N_1  and  C_15 
REMARK    2  A    between atoms: C_4  and  N_5 
REMARK    3  A    between atoms: C_4  and  C_27 
REMARK    4  A    between atoms: C_8  and  C_18 
REMARK    5  A    between atoms: C_18  and  C_27 
ROOT
HETATM    1  N   UNK N   1      20.287  16.731   4.628  0.00  0.00    -0.366 N 
HETATM    2  C   UNK N   1      21.545  16.695   5.338  0.00  0.00     0.125 C 
HETATM    3  C   UNK N   1      21.881  15.240   5.669  0.00  0.00     0.031 C 
HETATM    4  C   UNK N   1      19.399  14.722   5.571  0.00  0.00     0.031 C 
HETATM    5  C   UNK N   1      19.135  16.201   5.309  0.00  0.00     0.125 C 
HETATM    6  C   UNK N   1      20.711  14.476   6.334  0.00  0.00    -0.018 C 
ENDROOT
BRANCH   1   7
HETATM    7  C   UNK N   1      20.193  17.076   3.243  0.00  0.00     0.118 A 
HETATM    8  N   UNK N   1      19.952  16.099   2.313  0.00  0.00    -0.338 N 
HETATM    9  C   UNK N   1      19.892  16.380   0.972  0.00  0.00     0.183 A 
ATOM     10  HN  UNK N   1      19.813  15.138   2.626  1.00  0.00     0.168 HD
HETATM   11  N   UNK N   1      20.084  17.654   0.525  0.00  0.00    -0.338 N 
HETATM   12  C   UNK N   1      20.327  18.626   1.434  0.00  0.00     0.120 A 
ATOM     13  HN  UNK N   1      20.046  17.869  -0.472  1.00  0.00     0.168 HD
HETATM   14  N   UNK N   1      20.551  19.917   1.159  0.00  0.00    -0.351 N 
HETATM   15  C   UNK N   1      20.385  18.380   2.768  0.00  0.00     0.053 A 
HETATM   16  C   UNK N   1      20.758  20.514   2.359  0.00  0.00     0.091 A 
HETATM   17  H   UNK N   1      20.563  20.344   0.272  0.00  0.00     0.166 HD
HETATM   18  C   UNK N   1      20.662  19.578   3.391  0.00  0.00     0.036 A 
ENDBRANCH   1   7
BRANCH   6  19
HETATM   19  C   UNK N   1      20.964  12.966   6.201  0.00  0.00     0.120 C 
BRANCH  19  20
HETATM   20  N   UNK N   1      19.953  12.297   5.394  0.00  0.00    -0.429 N 
HETATM   21  H   UNK N   1      19.995  12.342   4.375  0.00  0.00     0.149 HD
HETATM   22  H   UNK N   1      19.199  11.781   5.848  0.00  0.00     0.149 HD
ENDBRANCH  19  20
ENDBRANCH   6  19
BRANCH   6  23
HETATM   23  C   UNK N   1      20.478  14.906   7.800  0.00  0.00     0.049 C 
BRANCH  23  24
HETATM   24  C   UNK N   1      21.147  14.049   8.829  0.00  0.00    -0.057 A 
HETATM   25  C   UNK N   1      20.410  13.406   9.832  0.00  0.00     0.009 A 
HETATM   26  C   UNK N   1      21.074  12.664  10.816  0.00  0.00     0.024 A 
HETATM   27  C   UNK N   1      22.471  12.572  10.802  0.00  0.00     0.034 A 
HETATM   28 Cl   UNK N   1      23.305  11.673  12.050  0.00  0.00    -0.084 Cl
HETATM   29  C   UNK N   1      23.203  13.208   9.797  0.00  0.00     0.024 A 
HETATM   30  C   UNK N   1      22.542  13.942   8.812  0.00  0.00     0.009 A 
ENDBRANCH  23  24
ENDBRANCH   6  23
TORSDOF 5
ENDMDL
MODEL 6
REMARK VINA RESULT:      -6.6      9.595     12.713
REMARK  5 active torsions:
REMARK  status: ('A' for Active; 'I' for Inactive)
REMARK    1  A    between atoms: N_1  and  C_15 
REMARK    2  A    between atoms: C_4  and  N_5 
REMARK    3  A    between atoms: C_4  and  C_27 
REMARK    4  A    between atoms: C_8  and  C_18 
REMARK    5  A    between atoms: C_18  and  C_27 
ROOT
HETATM    1  N   UNK N   1      33.442  16.662   8.376  0.00  0.00    -0.366 N 
HETATM    2  C   UNK N   1      32.202  15.935   8.223  0.00  0.00     0.125 C 
HETATM    3  C   UNK N   1      32.163  15.322   6.822  0.00  0.00     0.031 C 
HETATM    4  C   UNK N   1      33.746  17.150   6.056  0.00  0.00     0.031 C 
HETATM    5  C   UNK N   1      33.685  17.744   7.460  0.00  0.00     0.125 C 
HETATM    6  C   UNK N   1      32.493  16.334   5.699  0.00  0.00    -0.018 C 
ENDROOT
BRANCH   1   7
HETATM    7  C   UNK N   1      34.490  16.224   9.246  0.00  0.00     0.118 A 
HETATM    8  N   UNK N   1      34.663  16.832  10.462  0.00  0.00    -0.338 N 
HETATM    9  C   UNK N   1      35.677  16.470  11.311  0.00  0.00     0.183 A 
ATOM     10  HN  UNK N   1      34.019  17.572  10.744  1.00  0.00     0.168 HD
HETATM   11  N   UNK N   1      36.558  15.491  10.955  0.00  0.00    -0.338 N 
HETATM   12  C   UNK N   1      36.400  14.887   9.754  0.00  0.00     0.120 A 
ATOM     13  HN  UNK N   1      37.318  15.220  11.579  1.00  0.00     0.168 HD
HETATM   14  N   UNK N   1      37.183  13.925   9.252  0.00  0.00    -0.351 N 
HETATM   15  C   UNK N   1      35.401  15.219   8.897  0.00  0.00     0.053 A 
HETATM   16  C   UNK N   1      36.665  13.632   8.034  0.00  0.00     0.091 A 
HETATM   17  H   UNK N   1      37.971  13.515   9.679  0.00  0.00     0.166 HD
HETATM   18  C   UNK N   1      35.546  14.427   7.778  0.00  0.00     0.036 A 
ENDBRANCH   1   7
BRANCH   6  19
HETATM   19  C   UNK N   1      32.880  15.558   4.429  0.00  0.00     0.120 C 
BRANCH  19  20
HETATM   20  N   UNK N   1      33.030  16.425   3.268  0.00  0.00    -0.429 N 
HETATM   21  H   UNK N   1      33.880  16.976   3.144  0.00  0.00     0.149 HD
HETATM   22  H   UNK N   1      32.284  16.480   2.575  0.00  0.00     0.149 HD
ENDBRANCH  19  20
ENDBRANCH   6  19
BRANCH   6  23
HETATM   23  C   UNK N   1      31.346  17.338   5.448  0.00  0.00     0.049 C 
BRANCH  23  24
HETATM   24  C   UNK N   1      29.973  16.825   5.753  0.00  0.00    -0.057 A 
HETATM   25  C   UNK N   1      29.394  15.797   4.997  0.00  0.00     0.009 A 
HETATM   26  C   UNK N   1      28.084  15.386   5.270  0.00  0.00     0.024 A 
HETATM   27  C   UNK N   1      27.352  16.005   6.290  0.00  0.00     0.034 A 
HETATM   28 Cl   UNK N   1      25.703  15.516   6.611  0.00  0.00    -0.084 Cl
HETATM   29  C   UNK N   1      27.933  17.024   7.048  0.00  0.00     0.024 A 
HETATM   30  C   UNK N   1      29.242  17.430   6.781  0.00  0.00     0.009 A 
ENDBRANCH  23  24
ENDBRANCH   6  23
TORSDOF 5
ENDMDL
MODEL 7
REMARK VINA RESULT:      -6.5     12.030     14.363
REMARK  5 active torsions:
REMARK  status: ('A' for Active; 'I' for Inactive)
REMARK    1  A    between atoms: N_1  and  C_15 
REMARK    2  A    between atoms: C_4  and  N_5 
REMARK    3  A    between atoms: C_4  and  C_27 
REMARK    4  A    between atoms: C_8  and  C_18 
REMARK    5  A    between atoms: C_18  and  C_27 
ROOT
HETATM    1  N   UNK N   1      35.562  15.664  10.119  0.00  0.00    -0.366 N 
HETATM    2  C   UNK N   1      36.671  14.822   9.733  0.00  0.00     0.125 C 
HETATM    3  C   UNK N   1      36.307  13.366  10.030  0.00  0.00     0.031 C 
HETATM    4  C   UNK N   1      34.702  14.206  11.806  0.00  0.00     0.031 C 
HETATM    5  C   UNK N   1      35.162  15.628  11.501  0.00  0.00     0.125 C 
HETATM    6  C   UNK N   1      35.765  13.148  11.463  0.00  0.00    -0.018 C 
ENDROOT
BRANCH   1   7
HETATM    7  C   UNK N   1      34.749  16.355   9.167  0.00  0.00     0.118 A 
HETATM    8  N   UNK N   1      34.875  17.711   9.020  0.00  0.00    -0.338 N 
HETATM    9  C   UNK N   1      34.089  18.417   8.146  0.00  0.00     0.183 A 
ATOM     10  HN  UNK N   1      35.573  18.208   9.574  1.00  0.00     0.168 HD
HETATM   11  N   UNK N   1      33.142  17.779   7.400  0.00  0.00    -0.338 N 
HETATM   12  C   UNK N   1      33.005  16.440   7.540  0.00  0.00     0.120 A 
ATOM     13  HN  UNK N   1      32.550  18.299   6.752  1.00  0.00     0.168 HD
HETATM   14  N   UNK N   1      32.118  15.672   6.897  0.00  0.00    -0.351 N 
HETATM   15  C   UNK N   1      33.774  15.714   8.391  0.00  0.00     0.053 A 
HETATM   16  C   UNK N   1      32.329  14.413   7.352  0.00  0.00     0.091 A 
HETATM   17  H   UNK N   1      31.451  15.961   6.231  0.00  0.00     0.166 HD
HETATM   18  C   UNK N   1      33.361  14.402   8.293  0.00  0.00     0.036 A 
ENDBRANCH   1   7
BRANCH   6  19
HETATM   19  C   UNK N   1      35.013  11.808  11.512  0.00  0.00     0.120 C 
BRANCH  19  20
HETATM   20  N   UNK N   1      33.950  11.725  10.519  0.00  0.00    -0.429 N 
HETATM   21  H   UNK N   1      33.322  12.516  10.370  0.00  0.00     0.149 HD
HETATM   22  H   UNK N   1      33.832  10.874   9.970  0.00  0.00     0.149 HD
ENDBRANCH  19  20
ENDBRANCH   6  19
BRANCH   6  23
HETATM   23  C   UNK N   1      36.871  13.242  12.537  0.00  0.00     0.049 C 
BRANCH  23  24
HETATM   24  C   UNK N   1      36.505  12.686  13.878  0.00  0.00    -0.057 A 
HETATM   25  C   UNK N   1      35.685  13.399  14.763  0.00  0.00     0.009 A 
HETATM   26  C   UNK N   1      35.416  12.878  16.034  0.00  0.00     0.024 A 
HETATM   27  C   UNK N   1      35.970  11.653  16.422  0.00  0.00     0.034 A 
HETATM   28 Cl   UNK N   1      35.662  11.015  18.022  0.00  0.00    -0.084 Cl
HETATM   29  C   UNK N   1      36.781  10.940  15.536  0.00  0.00     0.024 A 
HETATM   30  C   UNK N   1      37.045  11.455  14.266  0.00  0.00     0.009 A 
ENDBRANCH  23  24
ENDBRANCH   6  23
TORSDOF 5
ENDMDL
MODEL 8
REMARK VINA RESULT:      -6.4     12.133     14.351
REMARK  5 active torsions:
REMARK  status: ('A' for Active; 'I' for Inactive)
REMARK    1  A    between atoms: N_1  and  C_15 
REMARK    2  A    between atoms: C_4  and  N_5 
REMARK    3  A    between atoms: C_4  and  C_27 
REMARK    4  A    between atoms: C_8  and  C_18 
REMARK    5  A    between atoms: C_18  and  C_27 
ROOT
HETATM    1  N   UNK N   1      34.514  15.969  10.256  0.00  0.00    -0.366 N 
HETATM    2  C   UNK N   1      35.688  16.472  10.934  0.00  0.00     0.125 C 
HETATM    3  C   UNK N   1      36.727  15.352  11.010  0.00  0.00     0.031 C 
HETATM    4  C   UNK N   1      34.828  13.677  10.857  0.00  0.00     0.031 C 
HETATM    5  C   UNK N   1      33.845  14.844  10.852  0.00  0.00     0.125 C 
HETATM    6  C   UNK N   1      36.156  14.019  11.551  0.00  0.00    -0.018 C 
ENDROOT
BRANCH   1   7
HETATM    7  C   UNK N   1      34.130  16.410   8.951  0.00  0.00     0.118 A 
HETATM    8  N   UNK N   1      33.190  17.398   8.815  0.00  0.00    -0.338 N 
HETATM    9  C   UNK N   1      32.765  17.823   7.583  0.00  0.00     0.183 A 
ATOM     10  HN  UNK N   1      32.798  17.829   9.653  1.00  0.00     0.168 HD
HETATM   11  N   UNK N   1      33.265  17.257   6.447  0.00  0.00    -0.338 N 
HETATM   12  C   UNK N   1      34.190  16.277   6.569  0.00  0.00     0.120 A 
ATOM     13  HN  UNK N   1      32.949  17.566   5.527  1.00  0.00     0.168 HD
HETATM   14  N   UNK N   1      34.765  15.613   5.559  0.00  0.00    -0.351 N 
HETATM   15  C   UNK N   1      34.636  15.841   7.775  0.00  0.00     0.053 A 
HETATM   16  C   UNK N   1      35.607  14.724   6.141  0.00  0.00     0.091 A 
HETATM   17  H   UNK N   1      34.610  15.744   4.595  0.00  0.00     0.166 HD
HETATM   18  C   UNK N   1      35.551  14.839   7.531  0.00  0.00     0.036 A 
ENDBRANCH   1   7
BRANCH   6  19
HETATM   19  C   UNK N   1      37.108  12.877  11.161  0.00  0.00     0.120 C 
BRANCH  19  20
HETATM   20  N   UNK N   1      38.473  13.334  10.943  0.00  0.00    -0.429 N 
HETATM   21  H   UNK N   1      38.939  13.916  11.641  0.00  0.00     0.149 HD
HETATM   22  H   UNK N   1      38.967  13.073  10.089  0.00  0.00     0.149 HD
ENDBRANCH  19  20
ENDBRANCH   6  19
BRANCH   6  23
HETATM   23  C   UNK N   1      35.883  14.065  13.071  0.00  0.00     0.049 C 
BRANCH  23  24
HETATM   24  C   UNK N   1      35.817  12.730  13.746  0.00  0.00    -0.057 A 
HETATM   25  C   UNK N   1      36.937  12.176  14.378  0.00  0.00     0.009 A 
HETATM   26  C   UNK N   1      36.857  10.898  14.943  0.00  0.00     0.024 A 
HETATM   27  C   UNK N   1      35.661  10.173  14.871  0.00  0.00     0.034 A 
HETATM   28 Cl   UNK N   1      35.567   8.562  15.547  0.00  0.00    -0.084 Cl
HETATM   29  C   UNK N   1      34.543  10.730  14.247  0.00  0.00     0.024 A 
HETATM   30  C   UNK N   1      34.620  12.006  13.689  0.00  0.00     0.009 A 
ENDBRANCH  23  24
ENDBRANCH   6  23
TORSDOF 5
ENDMDL
MODEL 9
REMARK VINA RESULT:      -6.4      9.942     13.213
REMARK  5 active torsions:
REMARK  status: ('A' for Active; 'I' for Inactive)
REMARK    1  A    between atoms: N_1  and  C_15 
REMARK    2  A    between atoms: C_4  and  N_5 
REMARK    3  A    between atoms: C_4  and  C_27 
REMARK    4  A    between atoms: C_8  and  C_18 
REMARK    5  A    between atoms: C_18  and  C_27 
ROOT
HETATM    1  N   UNK N   1      34.273  16.042   8.234  0.00  0.00    -0.366 N 
HETATM    2  C   UNK N   1      34.266  17.345   7.609  0.00  0.00     0.125 C 
HETATM    3  C   UNK N   1      32.886  17.976   7.806  0.00  0.00     0.031 C 
HETATM    4  C   UNK N   1      31.927  15.638   8.018  0.00  0.00     0.031 C 
HETATM    5  C   UNK N   1      33.321  15.078   7.749  0.00  0.00     0.125 C 
HETATM    6  C   UNK N   1      31.720  17.037   7.416  0.00  0.00    -0.018 C 
ENDROOT
BRANCH   1   7
HETATM    7  C   UNK N   1      35.030  15.756   9.413  0.00  0.00     0.118 A 
HETATM    8  N   UNK N   1      34.732  16.399  10.586  0.00  0.00    -0.338 N 
HETATM    9  C   UNK N   1      35.456  16.183  11.730  0.00  0.00     0.183 A 
ATOM     10  HN  UNK N   1      33.950  17.054  10.609  1.00  0.00     0.168 HD
HETATM   11  N   UNK N   1      36.513  15.320  11.725  0.00  0.00    -0.338 N 
HETATM   12  C   UNK N   1      36.819  14.684  10.571  0.00  0.00     0.120 A 
ATOM     13  HN  UNK N   1      37.059  15.159  12.572  1.00  0.00     0.168 HD
HETATM   14  N   UNK N   1      37.829  13.822  10.397  0.00  0.00    -0.351 N 
HETATM   15  C   UNK N   1      36.116  14.871   9.426  0.00  0.00     0.053 A 
HETATM   16  C   UNK N   1      37.766  13.447   9.095  0.00  0.00     0.091 A 
HETATM   17  H   UNK N   1      38.481  13.523  11.073  0.00  0.00     0.166 HD
HETATM   18  C   UNK N   1      36.703  14.088   8.455  0.00  0.00     0.036 A 
ENDBRANCH   1   7
BRANCH   6  19
HETATM   19  C   UNK N   1      30.427  17.555   8.066  0.00  0.00     0.120 C 
BRANCH  19  20
HETATM   20  N   UNK N   1      30.665  18.204   9.348  0.00  0.00    -0.429 N 
HETATM   21  H   UNK N   1      31.606  18.502   9.607  0.00  0.00     0.149 HD
HETATM   22  H   UNK N   1      29.888  18.362   9.990  0.00  0.00     0.149 HD
ENDBRANCH  19  20
ENDBRANCH   6  19
BRANCH   6  23
HETATM   23  C   UNK N   1      31.582  16.866   5.887  0.00  0.00     0.049 C 
BRANCH  23  24
HETATM   24  C   UNK N   1      30.178  16.738   5.385  0.00  0.00    -0.057 A 
HETATM   25  C   UNK N   1      29.499  15.514   5.422  0.00  0.00     0.009 A 
HETATM   26  C   UNK N   1      28.209  15.417   4.885  0.00  0.00     0.024 A 
HETATM   27  C   UNK N   1      27.604  16.538   4.306  0.00  0.00     0.034 A 
HETATM   28 Cl   UNK N   1      26.006  16.411   3.604  0.00  0.00    -0.084 Cl
HETATM   29  C   UNK N   1      28.279  17.760   4.276  0.00  0.00     0.024 A 
HETATM   30  C   UNK N   1      29.562  17.860   4.817  0.00  0.00     0.009 A 
ENDBRANCH  23  24
ENDBRANCH   6  23
TORSDOF 5
ENDMDL
