MODEL 1
REMARK VINA RESULT:      -7.7      0.000      0.000
REMARK  4 active torsions:
REMARK  status: ('A' for Active; 'I' for Inactive)
REMARK    1  A    between atoms: N_1  and  C_14 
REMARK    2  A    between atoms: C_3  and  C_4 
REMARK    3  A    between atoms: C_3  and  C_7 
REMARK    4  A    between atoms: C_4  and  N_5 
ROOT
HETATM    1  N   UNK N   1      20.112  16.942   4.585  0.00  0.00    -0.366 N 
HETATM    2  C   UNK N   1      19.058  16.114   5.158  0.00  0.00     0.127 C 
HETATM    3  C   UNK N   1      20.663  15.549   7.090  0.00  0.00     0.130 C 
HETATM    4  C   UNK N   1      21.219  17.350   5.426  0.00  0.00     0.127 C 
HETATM    5  C   UNK N   1      19.228  15.967   6.682  0.00  0.00     0.059 C 
HETATM    6  C   UNK N   1      21.727  16.090   6.119  0.00  0.00     0.059 C 
ENDROOT
BRANCH   1   7
HETATM    7  C   UNK N   1      20.124  17.290   3.201  0.00  0.00     0.118 A 
HETATM    8  N   UNK N   1      19.867  16.333   2.255  0.00  0.00    -0.338 N 
HETATM    9  C   UNK N   1      19.883  16.623   0.916  0.00  0.00     0.183 A 
ATOM     10  HN  UNK N   1      19.659  15.381   2.556  1.00  0.00     0.168 HD
HETATM   11  N   UNK N   1      20.136  17.895   0.487  0.00  0.00    -0.338 N 
HETATM   12  C   UNK N   1      20.371  18.852   1.415  0.00  0.00     0.120 A 
ATOM     13  HN  UNK N   1      20.148  18.118  -0.508  1.00  0.00     0.168 HD
HETATM   14  N   UNK N   1      20.606  20.145   1.164  0.00  0.00    -0.351 N 
HETATM   15  C   UNK N   1      20.379  18.591   2.746  0.00  0.00     0.053 A 
HETATM   16  C   UNK N   1      20.766  20.729   2.377  0.00  0.00     0.091 A 
HETATM   17  H   UNK N   1      20.653  20.582   0.282  0.00  0.00     0.166 HD
HETATM   18  C   UNK N   1      20.630  19.780   3.394  0.00  0.00     0.036 A 
ENDBRANCH   1   7
BRANCH   3  19
HETATM   19  C   UNK N   1      20.809  14.024   7.238  0.00  0.00     0.077 C 
BRANCH  19  20
HETATM   20  C   UNK N   1      21.474  13.548   8.497  0.00  0.00    -0.056 A 
HETATM   21  C   UNK N   1      22.867  13.415   8.590  0.00  0.00     0.009 A 
HETATM   22  C   UNK N   1      23.443  12.921   9.766  0.00  0.00     0.024 A 
HETATM   23  C   UNK N   1      22.630  12.565  10.849  0.00  0.00     0.034 A 
HETATM   24 Cl   UNK N   1      23.345  11.930  12.315  0.00  0.00    -0.084 Cl
HETATM   25  C   UNK N   1      21.245  12.711  10.761  0.00  0.00     0.024 A 
HETATM   26  C   UNK N   1      20.669  13.202   9.587  0.00  0.00     0.009 A 
ENDBRANCH  19  20
ENDBRANCH   3  19
BRANCH   3  27
HETATM   27  N   UNK N   1      20.926  16.130   8.394  0.00  0.00    -0.070 N 
HETATM   28  H   UNK N   1      21.625  16.855   8.552  0.00  0.00     0.275 HD
HETATM   29  H   UNK N   1      20.384  15.797   9.192  0.00  0.00     0.275 HD
HETATM   30  H   UNK N   1      21.080  16.513   9.327  0.00  0.00     0.275 HD
ENDBRANCH   3  27
TORSDOF 4
ENDMDL
MODEL 2
REMARK VINA RESULT:      -7.5     10.096     11.755
REMARK  4 active torsions:
REMARK  status: ('A' for Active; 'I' for Inactive)
REMARK    1  A    between atoms: N_1  and  C_14 
REMARK    2  A    between atoms: C_3  and  C_4 
REMARK    3  A    between atoms: C_3  and  C_7 
REMARK    4  A    between atoms: C_4  and  N_5 
ROOT
HETATM    1  N   UNK N   1      30.316  16.948   5.392  0.00  0.00    -0.366 N 
HETATM    2  C   UNK N   1      31.254  17.567   4.464  0.00  0.00     0.127 C 
HETATM    3  C   UNK N   1      32.786  15.521   4.771  0.00  0.00     0.130 C 
HETATM    4  C   UNK N   1      30.438  15.533   5.672  0.00  0.00     0.127 C 
HETATM    5  C   UNK N   1      32.136  16.511   3.772  0.00  0.00     0.059 C 
HETATM    6  C   UNK N   1      31.903  15.279   6.010  0.00  0.00     0.059 C 
ENDROOT
BRANCH   1   7
HETATM    7  C   UNK N   1      29.337  17.715   6.094  0.00  0.00     0.118 A 
HETATM    8  N   UNK N   1      28.338  18.343   5.398  0.00  0.00    -0.338 N 
HETATM    9  C   UNK N   1      27.388  19.100   6.033  0.00  0.00     0.183 A 
ATOM     10  HN  UNK N   1      28.301  18.245   4.384  1.00  0.00     0.168 HD
HETATM   11  N   UNK N   1      27.401  19.229   7.393  0.00  0.00    -0.338 N 
HETATM   12  C   UNK N   1      28.373  18.595   8.089  0.00  0.00     0.120 A 
ATOM     13  HN  UNK N   1      26.695  19.789   7.870  1.00  0.00     0.168 HD
HETATM   14  N   UNK N   1      28.509  18.596   9.421  0.00  0.00    -0.351 N 
HETATM   15  C   UNK N   1      29.336  17.853   7.488  0.00  0.00     0.053 A 
HETATM   16  C   UNK N   1      29.596  17.827   9.676  0.00  0.00     0.091 A 
HETATM   17  H   UNK N   1      27.940  19.060  10.078  0.00  0.00     0.166 HD
HETATM   18  C   UNK N   1      30.140  17.344   8.483  0.00  0.00     0.036 A 
ENDBRANCH   1   7
BRANCH   3  19
HETATM   19  C   UNK N   1      34.194  15.965   5.205  0.00  0.00     0.077 C 
BRANCH  19  20
HETATM   20  C   UNK N   1      34.398  16.148   6.681  0.00  0.00    -0.056 A 
HETATM   21  C   UNK N   1      34.108  17.362   7.319  0.00  0.00     0.009 A 
HETATM   22  C   UNK N   1      34.359  17.506   8.689  0.00  0.00     0.024 A 
HETATM   23  C   UNK N   1      34.896  16.440   9.420  0.00  0.00     0.034 A 
HETATM   24 Cl   UNK N   1      35.229  16.622  11.128  0.00  0.00    -0.084 Cl
HETATM   25  C   UNK N   1      35.173  15.227   8.786  0.00  0.00     0.024 A 
HETATM   26  C   UNK N   1      34.924  15.083   7.419  0.00  0.00     0.009 A 
ENDBRANCH  19  20
ENDBRANCH   3  19
BRANCH   3  27
HETATM   27  N   UNK N   1      32.932  14.251   4.085  0.00  0.00    -0.070 N 
HETATM   28  H   UNK N   1      32.188  13.556   4.028  0.00  0.00     0.275 HD
HETATM   29  H   UNK N   1      33.825  14.042   3.636  0.00  0.00     0.275 HD
HETATM   30  H   UNK N   1      33.076  13.369   3.592  0.00  0.00     0.275 HD
ENDBRANCH   3  27
TORSDOF 4
ENDMDL
MODEL 3
REMARK VINA RESULT:      -7.4     14.959     17.612
REMARK  4 active torsions:
REMARK  status: ('A' for Active; 'I' for Inactive)
REMARK    1  A    between atoms: N_1  and  C_14 
REMARK    2  A    between atoms: C_3  and  C_4 
REMARK    3  A    between atoms: C_3  and  C_7 
REMARK    4  A    between atoms: C_4  and  N_5 
ROOT
HETATM    1  N   UNK N   1      35.908  13.422  13.288  0.00  0.00    -0.366 N 
HETATM    2  C   UNK N   1      35.057  12.274  13.573  0.00  0.00     0.127 C 
HETATM    3  C   UNK N   1      35.636  12.562  16.064  0.00  0.00     0.130 C 
HETATM    4  C   UNK N   1      36.273  14.310  14.372  0.00  0.00     0.127 C 
HETATM    5  C   UNK N   1      34.522  12.317  15.016  0.00  0.00     0.059 C 
HETATM    6  C   UNK N   1      36.782  13.428  15.507  0.00  0.00     0.059 C 
ENDROOT
BRANCH   1   7
HETATM    7  C   UNK N   1      36.457  13.646  11.989  0.00  0.00     0.118 A 
HETATM    8  N   UNK N   1      37.708  13.176  11.688  0.00  0.00    -0.338 N 
HETATM    9  C   UNK N   1      38.277  13.382  10.459  0.00  0.00     0.183 A 
ATOM     10  HN  UNK N   1      38.229  12.659  12.397  1.00  0.00     0.168 HD
HETATM   11  N   UNK N   1      37.592  14.050   9.484  0.00  0.00    -0.338 N 
HETATM   12  C   UNK N   1      36.348  14.501   9.766  0.00  0.00     0.120 A 
ATOM     13  HN  UNK N   1      38.009  14.205   8.566  1.00  0.00     0.168 HD
HETATM   14  N   UNK N   1      35.538  15.146   8.917  0.00  0.00    -0.351 N 
HETATM   15  C   UNK N   1      35.766  14.327  10.979  0.00  0.00     0.053 A 
HETATM   16  C   UNK N   1      34.400  15.388   9.613  0.00  0.00     0.091 A 
HETATM   17  H   UNK N   1      35.728  15.393   7.983  0.00  0.00     0.166 HD
HETATM   18  C   UNK N   1      34.509  14.887  10.913  0.00  0.00     0.036 A 
ENDBRANCH   1   7
BRANCH   3  19
HETATM   19  C   UNK N   1      36.198  11.250  16.641  0.00  0.00     0.077 C 
BRANCH  19  20
HETATM   20  C   UNK N   1      35.479  10.700  17.838  0.00  0.00    -0.056 A 
HETATM   21  C   UNK N   1      35.701  11.206  19.126  0.00  0.00     0.009 A 
HETATM   22  C   UNK N   1      35.046  10.631  20.222  0.00  0.00     0.024 A 
HETATM   23  C   UNK N   1      34.170   9.555  20.031  0.00  0.00     0.034 A 
HETATM   24 Cl   UNK N   1      33.365   8.822  21.401  0.00  0.00    -0.084 Cl
HETATM   25  C   UNK N   1      33.941   9.061  18.746  0.00  0.00     0.024 A 
HETATM   26  C   UNK N   1      34.595   9.633  17.652  0.00  0.00     0.009 A 
ENDBRANCH  19  20
ENDBRANCH   3  19
BRANCH   3  27
HETATM   27  N   UNK N   1      35.037  13.290  17.167  0.00  0.00    -0.070 N 
HETATM   28  H   UNK N   1      35.583  13.751  17.895  0.00  0.00     0.275 HD
HETATM   29  H   UNK N   1      34.020  13.343  17.218  0.00  0.00     0.275 HD
HETATM   30  H   UNK N   1      34.577  13.792  17.927  0.00  0.00     0.275 HD
ENDBRANCH   3  27
TORSDOF 4
ENDMDL
MODEL 4
REMARK VINA RESULT:      -7.4      9.818     11.322
REMARK  4 active torsions:
REMARK  status: ('A' for Active; 'I' for Inactive)
REMARK    1  A    between atoms: N_1  and  C_14 
REMARK    2  A    between atoms: C_3  and  C_4 
REMARK    3  A    between atoms: C_3  and  C_7 
REMARK    4  A    between atoms: C_4  and  N_5 
ROOT
HETATM    1  N   UNK N   1      30.000  16.995   5.723  0.00  0.00    -0.366 N 
HETATM    2  C   UNK N   1      30.863  17.745   4.821  0.00  0.00     0.127 C 
HETATM    3  C   UNK N   1      32.192  15.578   4.417  0.00  0.00     0.130 C 
HETATM    4  C   UNK N   1      30.003  15.548   5.655  0.00  0.00     0.127 C 
HETATM    5  C   UNK N   1      31.524  16.823   3.780  0.00  0.00     0.059 C 
HETATM    6  C   UNK N   1      31.465  15.113   5.692  0.00  0.00     0.059 C 
ENDROOT
BRANCH   1   7
HETATM    7  C   UNK N   1      29.214  17.643   6.724  0.00  0.00     0.118 A 
HETATM    8  N   UNK N   1      29.327  17.257   8.034  0.00  0.00    -0.338 N 
HETATM    9  C   UNK N   1      28.581  17.843   9.022  0.00  0.00     0.183 A 
ATOM     10  HN  UNK N   1      29.982  16.515   8.278  1.00  0.00     0.168 HD
HETATM   11  N   UNK N   1      27.713  18.855   8.725  0.00  0.00    -0.338 N 
HETATM   12  C   UNK N   1      27.610  19.257   7.437  0.00  0.00     0.120 A 
ATOM     13  HN  UNK N   1      27.157  19.297   9.457  1.00  0.00     0.168 HD
HETATM   14  N   UNK N   1      26.832  20.248   6.986  0.00  0.00    -0.351 N 
HETATM   15  C   UNK N   1      28.322  18.684   6.435  0.00  0.00     0.053 A 
HETATM   16  C   UNK N   1      27.058  20.310   5.650  0.00  0.00     0.091 A 
HETATM   17  H   UNK N   1      26.221  20.814   7.513  0.00  0.00     0.166 HD
HETATM   18  C   UNK N   1      27.990  19.340   5.270  0.00  0.00     0.036 A 
ENDBRANCH   1   7
BRANCH   3  19
HETATM   19  C   UNK N   1      33.686  15.800   4.711  0.00  0.00     0.077 C 
BRANCH  19  20
HETATM   20  C   UNK N   1      34.034  16.101   6.140  0.00  0.00    -0.056 A 
HETATM   21  C   UNK N   1      33.884  17.386   6.680  0.00  0.00     0.009 A 
HETATM   22  C   UNK N   1      34.267  17.636   8.003  0.00  0.00     0.024 A 
HETATM   23  C   UNK N   1      34.796  16.603   8.786  0.00  0.00     0.034 A 
HETATM   24 Cl   UNK N   1      35.294  16.916  10.435  0.00  0.00    -0.084 Cl
HETATM   25  C   UNK N   1      34.934  15.321   8.252  0.00  0.00     0.024 A 
HETATM   26  C   UNK N   1      34.553  15.072   6.931  0.00  0.00     0.009 A 
ENDBRANCH  19  20
ENDBRANCH   3  19
BRANCH   3  27
HETATM   27  N   UNK N   1      32.105  14.501   3.448  0.00  0.00    -0.070 N 
HETATM   28  H   UNK N   1      31.447  13.725   3.532  0.00  0.00     0.275 HD
HETATM   29  H   UNK N   1      32.732  14.520   2.644  0.00  0.00     0.275 HD
HETATM   30  H   UNK N   1      32.075  13.762   2.744  0.00  0.00     0.275 HD
ENDBRANCH   3  27
TORSDOF 4
ENDMDL
MODEL 5
REMARK VINA RESULT:      -7.3     15.261     17.546
REMARK  4 active torsions:
REMARK  status: ('A' for Active; 'I' for Inactive)
REMARK    1  A    between atoms: N_1  and  C_14 
REMARK    2  A    between atoms: C_3  and  C_4 
REMARK    3  A    between atoms: C_3  and  C_7 
REMARK    4  A    between atoms: C_4  and  N_5 
ROOT
HETATM    1  N   UNK N   1      28.350  24.773  -4.019  0.00  0.00    -0.366 N 
HETATM    2  C   UNK N   1      28.927  26.071  -4.341  0.00  0.00     0.127 C 
HETATM    3  C   UNK N   1      26.607  27.112  -3.943  0.00  0.00     0.130 C 
HETATM    4  C   UNK N   1      27.082  24.723  -3.322  0.00  0.00     0.127 C 
HETATM    5  C   UNK N   1      28.132  27.216  -3.687  0.00  0.00     0.059 C 
HETATM    6  C   UNK N   1      26.135  25.653  -4.072  0.00  0.00     0.059 C 
ENDROOT
BRANCH   1   7
HETATM    7  C   UNK N   1      28.960  23.553  -4.444  0.00  0.00     0.118 A 
HETATM    8  N   UNK N   1      29.822  22.895  -3.607  0.00  0.00    -0.338 N 
HETATM    9  C   UNK N   1      30.438  21.730  -3.983  0.00  0.00     0.183 A 
ATOM     10  HN  UNK N   1      30.010  23.282  -2.683  1.00  0.00     0.168 HD
HETATM   11  N   UNK N   1      30.186  21.178  -5.207  0.00  0.00    -0.338 N 
HETATM   12  C   UNK N   1      29.320  21.811  -6.032  0.00  0.00     0.120 A 
ATOM     13  HN  UNK N   1      30.640  20.310  -5.491  1.00  0.00     0.168 HD
HETATM   14  N   UNK N   1      28.945  21.390  -7.246  0.00  0.00    -0.351 N 
HETATM   15  C   UNK N   1      28.709  22.974  -5.694  0.00  0.00     0.053 A 
HETATM   16  C   UNK N   1      28.063  22.315  -7.696  0.00  0.00     0.091 A 
HETATM   17  H   UNK N   1      29.248  20.578  -7.715  0.00  0.00     0.166 HD
HETATM   18  C   UNK N   1      27.891  23.325  -6.746  0.00  0.00     0.036 A 
ENDBRANCH   1   7
BRANCH   3  19
HETATM   19  C   UNK N   1      26.163  27.922  -5.175  0.00  0.00     0.077 C 
BRANCH  19  20
HETATM   20  C   UNK N   1      26.473  27.309  -6.509  0.00  0.00    -0.056 A 
HETATM   21  C   UNK N   1      27.627  27.653  -7.227  0.00  0.00     0.009 A 
HETATM   22  C   UNK N   1      27.855  27.095  -8.490  0.00  0.00     0.024 A 
HETATM   23  C   UNK N   1      26.933  26.193  -9.034  0.00  0.00     0.034 A 
HETATM   24 Cl   UNK N   1      27.204  25.507 -10.621  0.00  0.00    -0.084 Cl
HETATM   25  C   UNK N   1      25.791  25.841  -8.313  0.00  0.00     0.024 A 
HETATM   26  C   UNK N   1      25.563  26.398  -7.053  0.00  0.00     0.009 A 
ENDBRANCH  19  20
ENDBRANCH   3  19
BRANCH   3  27
HETATM   27  N   UNK N   1      25.937  27.688  -2.792  0.00  0.00    -0.070 N 
HETATM   28  H   UNK N   1      26.427  27.970  -1.942  0.00  0.00     0.275 HD
HETATM   29  H   UNK N   1      24.926  27.817  -2.833  0.00  0.00     0.275 HD
HETATM   30  H   UNK N   1      25.428  28.089  -2.003  0.00  0.00     0.275 HD
ENDBRANCH   3  27
TORSDOF 4
ENDMDL
MODEL 6
REMARK VINA RESULT:      -7.3     10.792     12.832
REMARK  4 active torsions:
REMARK  status: ('A' for Active; 'I' for Inactive)
REMARK    1  A    between atoms: N_1  and  C_14 
REMARK    2  A    between atoms: C_3  and  C_4 
REMARK    3  A    between atoms: C_3  and  C_7 
REMARK    4  A    between atoms: C_4  and  N_5 
ROOT
HETATM    1  N   UNK N   1      31.747  16.975   8.141  0.00  0.00    -0.366 N 
HETATM    2  C   UNK N   1      32.838  17.940   8.102  0.00  0.00     0.127 C 
HETATM    3  C   UNK N   1      34.463  16.003   8.581  0.00  0.00     0.130 C 
HETATM    4  C   UNK N   1      32.053  15.565   8.015  0.00  0.00     0.127 C 
HETATM    5  C   UNK N   1      34.171  17.264   7.731  0.00  0.00     0.059 C 
HETATM    6  C   UNK N   1      33.176  15.272   9.004  0.00  0.00     0.059 C 
ENDROOT
BRANCH   1   7
HETATM    7  C   UNK N   1      30.398  17.375   8.384  0.00  0.00     0.118 A 
HETATM    8  N   UNK N   1      29.965  17.567   9.670  0.00  0.00    -0.338 N 
HETATM    9  C   UNK N   1      28.675  17.938   9.945  0.00  0.00     0.183 A 
ATOM     10  HN  UNK N   1      30.619  17.430  10.440  1.00  0.00     0.168 HD
HETATM   11  N   UNK N   1      27.784  18.150   8.931  0.00  0.00    -0.338 N 
HETATM   12  C   UNK N   1      28.209  17.982   7.657  0.00  0.00     0.120 A 
ATOM     13  HN  UNK N   1      26.824  18.427   9.130  1.00  0.00     0.168 HD
HETATM   14  N   UNK N   1      27.475  18.177   6.555  0.00  0.00    -0.351 N 
HETATM   15  C   UNK N   1      29.475  17.600   7.355  0.00  0.00     0.053 A 
HETATM   16  C   UNK N   1      28.302  17.912   5.515  0.00  0.00     0.091 A 
HETATM   17  H   UNK N   1      26.530  18.454   6.510  0.00  0.00     0.166 HD
HETATM   18  C   UNK N   1      29.567  17.546   5.981  0.00  0.00     0.036 A 
ENDBRANCH   1   7
BRANCH   3  19
HETATM   19  C   UNK N   1      35.324  16.316   9.819  0.00  0.00     0.077 C 
BRANCH  19  20
HETATM   20  C   UNK N   1      35.775  15.130  10.621  0.00  0.00    -0.056 A 
HETATM   21  C   UNK N   1      35.053  14.676  11.733  0.00  0.00     0.009 A 
HETATM   22  C   UNK N   1      35.534  13.596  12.483  0.00  0.00     0.024 A 
HETATM   23  C   UNK N   1      36.733  12.970  12.121  0.00  0.00     0.034 A 
HETATM   24 Cl   UNK N   1      37.348  11.632  13.067  0.00  0.00    -0.084 Cl
HETATM   25  C   UNK N   1      37.444  13.415  11.005  0.00  0.00     0.024 A 
HETATM   26  C   UNK N   1      36.965  14.492  10.257  0.00  0.00     0.009 A 
ENDBRANCH  19  20
ENDBRANCH   3  19
BRANCH   3  27
HETATM   27  N   UNK N   1      35.229  15.092   7.751  0.00  0.00    -0.070 N 
HETATM   28  H   UNK N   1      34.801  14.440   7.093  0.00  0.00     0.275 HD
HETATM   29  H   UNK N   1      36.247  15.104   7.828  0.00  0.00     0.275 HD
HETATM   30  H   UNK N   1      35.804  14.467   7.184  0.00  0.00     0.275 HD
ENDBRANCH   3  27
TORSDOF 4
ENDMDL
MODEL 7
REMARK VINA RESULT:      -7.3      9.550     11.542
REMARK  4 active torsions:
REMARK  status: ('A' for Active; 'I' for Inactive)
REMARK    1  A    between atoms: N_1  and  C_14 
REMARK    2  A    between atoms: C_3  and  C_4 
REMARK    3  A    between atoms: C_3  and  C_7 
REMARK    4  A    between atoms: C_4  and  N_5 
ROOT
HETATM    1  N   UNK N   1      31.681  16.704   7.506  0.00  0.00    -0.366 N 
HETATM    2  C   UNK N   1      31.707  15.255   7.364  0.00  0.00     0.127 C 
HETATM    3  C   UNK N   1      33.545  15.542   5.586  0.00  0.00     0.130 C 
HETATM    4  C   UNK N   1      32.796  17.479   7.003  0.00  0.00     0.127 C 
HETATM    5  C   UNK N   1      33.070  14.768   6.841  0.00  0.00     0.059 C 
HETATM    6  C   UNK N   1      33.053  17.000   5.578  0.00  0.00     0.059 C 
ENDROOT
BRANCH   1   7
HETATM    7  C   UNK N   1      30.550  17.386   8.051  0.00  0.00     0.118 A 
HETATM    8  N   UNK N   1      30.548  17.755   9.371  0.00  0.00    -0.338 N 
HETATM    9  C   UNK N   1      29.478  18.397   9.935  0.00  0.00     0.183 A 
ATOM     10  HN  UNK N   1      31.364  17.545   9.946  1.00  0.00     0.168 HD
HETATM   11  N   UNK N   1      28.382  18.710   9.182  0.00  0.00    -0.338 N 
HETATM   12  C   UNK N   1      28.384  18.367   7.872  0.00  0.00     0.120 A 
ATOM     13  HN  UNK N   1      27.583  19.189   9.596  1.00  0.00     0.168 HD
HETATM   14  N   UNK N   1      27.407  18.625   6.995  0.00  0.00    -0.351 N 
HETATM   15  C   UNK N   1      29.421  17.716   7.290  0.00  0.00     0.053 A 
HETATM   16  C   UNK N   1      27.838  18.122   5.812  0.00  0.00     0.091 A 
HETATM   17  H   UNK N   1      26.552  19.082   7.171  0.00  0.00     0.166 HD
HETATM   18  C   UNK N   1      29.101  17.543   5.961  0.00  0.00     0.036 A 
ENDBRANCH   1   7
BRANCH   3  19
HETATM   19  C   UNK N   1      33.141  14.841   4.276  0.00  0.00     0.077 C 
BRANCH  19  20
HETATM   20  C   UNK N   1      31.733  15.076   3.815  0.00  0.00    -0.056 A 
HETATM   21  C   UNK N   1      31.386  16.201   3.052  0.00  0.00     0.009 A 
HETATM   22  C   UNK N   1      30.051  16.408   2.684  0.00  0.00     0.024 A 
HETATM   23  C   UNK N   1      29.066  15.493   3.073  0.00  0.00     0.034 A 
HETATM   24 Cl   UNK N   1      27.394  15.758   2.631  0.00  0.00    -0.084 Cl
HETATM   25  C   UNK N   1      29.415  14.367   3.821  0.00  0.00     0.024 A 
HETATM   26  C   UNK N   1      30.746  14.160   4.190  0.00  0.00     0.009 A 
ENDBRANCH  19  20
ENDBRANCH   3  19
BRANCH   3  27
HETATM   27  N   UNK N   1      34.996  15.572   5.622  0.00  0.00    -0.070 N 
HETATM   28  H   UNK N   1      35.528  16.154   6.269  0.00  0.00     0.275 HD
HETATM   29  H   UNK N   1      35.510  14.981   4.968  0.00  0.00     0.275 HD
HETATM   30  H   UNK N   1      36.017  15.564   5.615  0.00  0.00     0.275 HD
ENDBRANCH   3  27
TORSDOF 4
ENDMDL
MODEL 8
REMARK VINA RESULT:      -7.3     15.282     17.640
REMARK  4 active torsions:
REMARK  status: ('A' for Active; 'I' for Inactive)
REMARK    1  A    between atoms: N_1  and  C_14 
REMARK    2  A    between atoms: C_3  and  C_4 
REMARK    3  A    between atoms: C_3  and  C_7 
REMARK    4  A    between atoms: C_4  and  N_5 
ROOT
HETATM    1  N   UNK N   1      28.349  24.681  -4.223  0.00  0.00    -0.366 N 
HETATM    2  C   UNK N   1      28.925  25.991  -4.493  0.00  0.00     0.127 C 
HETATM    3  C   UNK N   1      26.637  27.026  -3.931  0.00  0.00     0.130 C 
HETATM    4  C   UNK N   1      27.112  24.600  -3.474  0.00  0.00     0.127 C 
HETATM    5  C   UNK N   1      28.172  27.101  -3.738  0.00  0.00     0.059 C 
HETATM    6  C   UNK N   1      26.143  25.581  -4.125  0.00  0.00     0.059 C 
ENDROOT
BRANCH   1   7
HETATM    7  C   UNK N   1      28.925  23.484  -4.747  0.00  0.00     0.118 A 
HETATM    8  N   UNK N   1      28.517  23.008  -5.965  0.00  0.00    -0.338 N 
HETATM    9  C   UNK N   1      29.035  21.856  -6.496  0.00  0.00     0.183 A 
ATOM     10  HN  UNK N   1      27.811  23.524  -6.489  1.00  0.00     0.168 HD
HETATM   11  N   UNK N   1      29.999  21.157  -5.826  0.00  0.00    -0.338 N 
HETATM   12  C   UNK N   1      30.423  21.632  -4.631  0.00  0.00     0.120 A 
ATOM     13  HN  UNK N   1      30.390  20.300  -6.217  1.00  0.00     0.168 HD
HETATM   14  N   UNK N   1      31.375  21.085  -3.865  0.00  0.00    -0.351 N 
HETATM   15  C   UNK N   1      29.917  22.759  -4.073  0.00  0.00     0.053 A 
HETATM   16  C   UNK N   1      31.481  21.895  -2.783  0.00  0.00     0.091 A 
HETATM   17  H   UNK N   1      31.891  20.266  -4.049  0.00  0.00     0.166 HD
HETATM   18  C   UNK N   1      30.578  22.957  -2.881  0.00  0.00     0.036 A 
ENDBRANCH   1   7
BRANCH   3  19
HETATM   19  C   UNK N   1      26.147  27.912  -5.091  0.00  0.00     0.077 C 
BRANCH  19  20
HETATM   20  C   UNK N   1      26.559  27.476  -6.467  0.00  0.00    -0.056 A 
HETATM   21  C   UNK N   1      25.867  26.472  -7.159  0.00  0.00     0.009 A 
HETATM   22  C   UNK N   1      26.314  26.061  -8.420  0.00  0.00     0.024 A 
HETATM   23  C   UNK N   1      27.447  26.653  -8.991  0.00  0.00     0.034 A 
HETATM   24 Cl   UNK N   1      28.019  26.128 -10.559  0.00  0.00    -0.084 Cl
HETATM   25  C   UNK N   1      28.127  27.661  -8.306  0.00  0.00     0.024 A 
HETATM   26  C   UNK N   1      27.683  28.071  -7.047  0.00  0.00     0.009 A 
ENDBRANCH  19  20
ENDBRANCH   3  19
BRANCH   3  27
HETATM   27  N   UNK N   1      26.025  27.537  -2.718  0.00  0.00    -0.070 N 
HETATM   28  H   UNK N   1      25.353  27.006  -2.164  0.00  0.00     0.275 HD
HETATM   29  H   UNK N   1      26.279  28.474  -2.404  0.00  0.00     0.275 HD
HETATM   30  H   UNK N   1      25.617  27.934  -1.871  0.00  0.00     0.275 HD
ENDBRANCH   3  27
TORSDOF 4
ENDMDL
MODEL 9
REMARK VINA RESULT:      -7.0     15.026     17.163
REMARK  4 active torsions:
REMARK  status: ('A' for Active; 'I' for Inactive)
REMARK    1  A    between atoms: N_1  and  C_14 
REMARK    2  A    between atoms: C_3  and  C_4 
REMARK    3  A    between atoms: C_3  and  C_7 
REMARK    4  A    between atoms: C_4  and  N_5 
ROOT
HETATM    1  N   UNK N   1      28.090  23.801  -5.719  0.00  0.00    -0.366 N 
HETATM    2  C   UNK N   1      26.643  23.647  -5.637  0.00  0.00     0.127 C 
HETATM    3  C   UNK N   1      26.418  25.659  -7.227  0.00  0.00     0.130 C 
HETATM    4  C   UNK N   1      28.651  24.585  -6.800  0.00  0.00     0.127 C 
HETATM    5  C   UNK N   1      25.947  24.223  -6.883  0.00  0.00     0.059 C 
HETATM    6  C   UNK N   1      27.885  25.903  -6.828  0.00  0.00     0.059 C 
ENDROOT
BRANCH   1   7
HETATM    7  C   UNK N   1      28.960  23.272  -4.718  0.00  0.00     0.118 A 
HETATM    8  N   UNK N   1      28.999  23.848  -3.476  0.00  0.00    -0.338 N 
HETATM    9  C   UNK N   1      29.830  23.379  -2.492  0.00  0.00     0.183 A 
ATOM     10  HN  UNK N   1      28.394  24.645  -3.278  1.00  0.00     0.168 HD
HETATM   11  N   UNK N   1      30.634  22.298  -2.723  0.00  0.00    -0.338 N 
HETATM   12  C   UNK N   1      30.587  21.711  -3.941  0.00  0.00     0.120 A 
ATOM     13  HN  UNK N   1      31.253  21.944  -1.995  1.00  0.00     0.168 HD
HETATM   14  N   UNK N   1      31.285  20.632  -4.318  0.00  0.00    -0.351 N 
HETATM   15  C   UNK N   1      29.787  22.163  -4.939  0.00  0.00     0.053 A 
HETATM   16  C   UNK N   1      30.915  20.388  -5.599  0.00  0.00     0.091 A 
HETATM   17  H   UNK N   1      31.932  20.123  -3.778  0.00  0.00     0.166 HD
HETATM   18  C   UNK N   1      29.975  21.331  -6.021  0.00  0.00     0.036 A 
ENDBRANCH   1   7
BRANCH   3  19
HETATM   19  C   UNK N   1      25.514  26.738  -6.604  0.00  0.00     0.077 C 
BRANCH  19  20
HETATM   20  C   UNK N   1      26.090  27.479  -5.433  0.00  0.00    -0.056 A 
HETATM   21  C   UNK N   1      26.861  28.638  -5.602  0.00  0.00     0.009 A 
HETATM   22  C   UNK N   1      27.421  29.271  -4.486  0.00  0.00     0.024 A 
HETATM   23  C   UNK N   1      27.209  28.750  -3.204  0.00  0.00     0.034 A 
HETATM   24 Cl   UNK N   1      27.923  29.528  -1.808  0.00  0.00    -0.084 Cl
HETATM   25  C   UNK N   1      26.431  27.603  -3.036  0.00  0.00     0.024 A 
HETATM   26  C   UNK N   1      25.873  26.970  -4.149  0.00  0.00     0.009 A 
ENDBRANCH  19  20
ENDBRANCH   3  19
BRANCH   3  27
HETATM   27  N   UNK N   1      26.328  25.808  -8.667  0.00  0.00    -0.070 N 
HETATM   28  H   UNK N   1      27.128  26.036  -9.258  0.00  0.00     0.275 HD
HETATM   29  H   UNK N   1      25.419  25.678  -9.113  0.00  0.00     0.275 HD
HETATM   30  H   UNK N   1      26.222  25.904  -9.678  0.00  0.00     0.275 HD
ENDBRANCH   3  27
TORSDOF 4
ENDMDL
