MODEL 1
REMARK VINA RESULT:      -7.1      0.000      0.000
REMARK  6 active torsions:
REMARK  status: ('A' for Active; 'I' for Inactive)
REMARK    1  A    between atoms: C_7  and  C_6 
REMARK    2  A    between atoms: C_14  and  C_15 
REMARK    3  A    between atoms: O_16  and  C_15 
REMARK    4  A    between atoms: C_17  and  O_18 
REMARK    5  A    between atoms: C_19  and  O_20 
REMARK    6  A    between atoms: C_21  and  O_22 
ROOT
HETATM    1  C   UNK N   1      35.205  13.098  16.228  0.00  0.00     0.048 C 
HETATM    2  C   UNK N   1      36.347  13.768  15.550  0.00  0.00     0.133 C 
HETATM    3  N   UNK N   1      34.312  12.758  15.393  0.00  0.00    -0.266 N 
ATOM      4  HN  UNK N   1      33.426  12.319  15.649  1.00  0.00     0.194 HD
HETATM    5  O   UNK N   1      34.662  13.036  14.168  0.00  0.00    -0.237 OA
HETATM    6  C   UNK N   1      35.971  13.505  14.083  0.00  0.00     0.224 C 
HETATM    7  O   UNK N   1      36.040  14.695  13.311  0.00  0.00    -0.341 OA
HETATM    8  C   UNK N   1      35.788  14.419  11.933  0.00  0.00     0.180 C 
HETATM    9  C   UNK N   1      36.855  13.463  11.358  0.00  0.00     0.180 C 
HETATM   10  C   UNK N   1      36.790  12.141  12.123  0.00  0.00     0.183 C 
HETATM   11  C   UNK N   1      36.983  12.438  13.598  0.00  0.00     0.214 C 
ENDROOT
BRANCH  11  12
HETATM   12  O   UNK N   1      36.873  11.260  14.345  0.00  0.00    -0.387 OA
HETATM   13  H   UNK N   1      36.944  10.360  13.992  0.00  0.00     0.210 HD
ENDBRANCH  11  12
BRANCH   8  14
HETATM   14  C   UNK N   1      35.814  15.728  11.151  0.00  0.00     0.198 C 
BRANCH  14  15
HETATM   15  O   UNK N   1      37.124  16.064  10.810  0.00  0.00    -0.398 OA
HETATM   16  H   UNK N   1      37.789  16.236  11.494  0.00  0.00     0.209 HD
ENDBRANCH  14  15
ENDBRANCH   8  14
BRANCH   1  17
HETATM   17  C   UNK N   1      35.327  12.411  17.515  0.00  0.00    -0.011 A 
HETATM   18  C   UNK N   1      35.218  13.093  18.732  0.00  0.00     0.013 A 
HETATM   19  C   UNK N   1      35.255  12.378  19.935  0.00  0.00     0.001 A 
HETATM   20  C   UNK N   1      35.334  10.982  19.921  0.00  0.00     0.000 A 
HETATM   21  C   UNK N   1      35.405  10.297  18.706  0.00  0.00     0.001 A 
HETATM   22  C   UNK N   1      35.419  11.012  17.509  0.00  0.00     0.013 A 
ENDBRANCH   1  17
BRANCH  10  23
HETATM   23  O   UNK N   1      37.793  11.274  11.680  0.00  0.00    -0.390 OA
HETATM   24  H   UNK N   1      38.091  11.298  10.758  0.00  0.00     0.210 HD
ENDBRANCH  10  23
BRANCH   9  25
HETATM   25  O   UNK N   1      36.626  13.225  10.001  0.00  0.00    -0.390 OA
HETATM   26  H   UNK N   1      35.842  13.456   9.477  0.00  0.00     0.210 HD
ENDBRANCH   9  25
TORSDOF 6
ENDMDL
MODEL 2
REMARK VINA RESULT:      -6.7     16.128     17.354
REMARK  6 active torsions:
REMARK  status: ('A' for Active; 'I' for Inactive)
REMARK    1  A    between atoms: C_7  and  C_6 
REMARK    2  A    between atoms: C_14  and  C_15 
REMARK    3  A    between atoms: O_16  and  C_15 
REMARK    4  A    between atoms: C_17  and  O_18 
REMARK    5  A    between atoms: C_19  and  O_20 
REMARK    6  A    between atoms: C_21  and  O_22 
ROOT
HETATM    1  C   UNK N   1      21.430  15.212   8.497  0.00  0.00     0.048 C 
HETATM    2  C   UNK N   1      22.091  15.252   7.165  0.00  0.00     0.133 C 
HETATM    3  N   UNK N   1      20.436  16.001   8.538  0.00  0.00    -0.266 N 
ATOM      4  HN  UNK N   1      19.865  16.158   9.369  1.00  0.00     0.194 HD
HETATM    5  O   UNK N   1      20.232  16.585   7.390  0.00  0.00    -0.237 OA
HETATM    6  C   UNK N   1      21.066  16.094   6.388  0.00  0.00     0.224 C 
HETATM    7  O   UNK N   1      21.697  17.152   5.682  0.00  0.00    -0.341 OA
HETATM    8  C   UNK N   1      20.749  17.863   4.885  0.00  0.00     0.180 C 
HETATM    9  C   UNK N   1      20.121  16.940   3.820  0.00  0.00     0.180 C 
HETATM   10  C   UNK N   1      19.383  15.805   4.529  0.00  0.00     0.183 C 
HETATM   11  C   UNK N   1      20.370  15.093   5.435  0.00  0.00     0.214 C 
ENDROOT
BRANCH  11  12
HETATM   12  O   UNK N   1      19.721  14.080   6.151  0.00  0.00    -0.387 OA
HETATM   13  H   UNK N   1      18.762  13.955   6.208  0.00  0.00     0.210 HD
ENDBRANCH  11  12
BRANCH   8  14
HETATM   14  C   UNK N   1      21.454  19.023   4.191  0.00  0.00     0.198 C 
BRANCH  14  15
HETATM   15  O   UNK N   1      20.612  20.133   4.122  0.00  0.00    -0.398 OA
HETATM   16  H   UNK N   1      19.816  20.120   3.567  0.00  0.00     0.209 HD
ENDBRANCH  14  15
ENDBRANCH   8  14
BRANCH   1  17
HETATM   17  C   UNK N   1      21.512  14.064   9.400  0.00  0.00    -0.011 A 
HETATM   18  C   UNK N   1      22.734  13.467   9.731  0.00  0.00     0.013 A 
HETATM   19  C   UNK N   1      22.769  12.426  10.666  0.00  0.00     0.001 A 
HETATM   20  C   UNK N   1      21.597  12.027  11.318  0.00  0.00     0.000 A 
HETATM   21  C   UNK N   1      20.383  12.648  11.016  0.00  0.00     0.001 A 
HETATM   22  C   UNK N   1      20.340  13.650  10.048  0.00  0.00     0.013 A 
ENDBRANCH   1  17
BRANCH  10  23
HETATM   23  O   UNK N   1      18.862  14.904   3.596  0.00  0.00    -0.390 OA
HETATM   24  H   UNK N   1      19.444  14.275   3.142  0.00  0.00     0.210 HD
ENDBRANCH  10  23
BRANCH   9  25
HETATM   25  O   UNK N   1      19.221  17.648   3.019  0.00  0.00    -0.390 OA
HETATM   26  H   UNK N   1      19.078  18.607   2.986  0.00  0.00     0.210 HD
ENDBRANCH   9  25
TORSDOF 6
ENDMDL
MODEL 3
REMARK VINA RESULT:      -6.5     16.621     18.348
REMARK  6 active torsions:
REMARK  status: ('A' for Active; 'I' for Inactive)
REMARK    1  A    between atoms: C_7  and  C_6 
REMARK    2  A    between atoms: C_14  and  C_15 
REMARK    3  A    between atoms: O_16  and  C_15 
REMARK    4  A    between atoms: C_17  and  O_18 
REMARK    5  A    between atoms: C_19  and  O_20 
REMARK    6  A    between atoms: C_21  and  O_22 
ROOT
HETATM    1  C   UNK N   1      21.684  16.855   6.667  0.00  0.00     0.048 C 
HETATM    2  C   UNK N   1      22.223  16.763   5.284  0.00  0.00     0.133 C 
HETATM    3  N   UNK N   1      21.058  17.946   6.843  0.00  0.00    -0.266 N 
ATOM      4  HN  UNK N   1      20.642  18.230   7.731  1.00  0.00     0.194 HD
HETATM    5  O   UNK N   1      21.011  18.659   5.752  0.00  0.00    -0.237 OA
HETATM    6  C   UNK N   1      21.535  17.984   4.652  0.00  0.00     0.224 C 
HETATM    7  O   UNK N   1      22.465  18.795   3.950  0.00  0.00    -0.341 OA
HETATM    8  C   UNK N   1      21.799  19.867   3.284  0.00  0.00     0.180 C 
HETATM    9  C   UNK N   1      20.805  19.331   2.232  0.00  0.00     0.180 C 
HETATM   10  C   UNK N   1      19.747  18.489   2.944  0.00  0.00     0.183 C 
HETATM   11  C   UNK N   1      20.456  17.391   3.715  0.00  0.00     0.214 C 
ENDROOT
BRANCH  11  12
HETATM   12  O   UNK N   1      19.526  16.628   4.431  0.00  0.00    -0.387 OA
HETATM   13  H   UNK N   1      19.672  16.237   5.306  0.00  0.00     0.210 HD
ENDBRANCH  11  12
BRANCH   8  14
HETATM   14  C   UNK N   1      22.837  20.744   2.592  0.00  0.00     0.198 C 
BRANCH  14  15
HETATM   15  O   UNK N   1      22.592  22.091   2.860  0.00  0.00    -0.398 OA
HETATM   16  H   UNK N   1      23.267  22.647   3.280  0.00  0.00     0.209 HD
ENDBRANCH  14  15
ENDBRANCH   8  14
BRANCH   1  17
HETATM   17  C   UNK N   1      21.393  15.684   7.495  0.00  0.00    -0.011 A 
HETATM   18  C   UNK N   1      22.110  14.489   7.366  0.00  0.00     0.013 A 
HETATM   19  C   UNK N   1      21.852  13.425   8.239  0.00  0.00     0.001 A 
HETATM   20  C   UNK N   1      20.929  13.577   9.279  0.00  0.00     0.000 A 
HETATM   21  C   UNK N   1      20.239  14.783   9.431  0.00  0.00     0.001 A 
HETATM   22  C   UNK N   1      20.459  15.824   8.531  0.00  0.00     0.013 A 
ENDBRANCH   1  17
BRANCH  10  23
HETATM   23  O   UNK N   1      18.869  17.923   2.015  0.00  0.00    -0.390 OA
HETATM   24  H   UNK N   1      17.953  17.724   2.262  0.00  0.00     0.210 HD
ENDBRANCH  10  23
BRANCH   9  25
HETATM   25  O   UNK N   1      20.182  20.384   1.558  0.00  0.00    -0.390 OA
HETATM   26  H   UNK N   1      19.642  20.343   0.752  0.00  0.00     0.210 HD
ENDBRANCH   9  25
TORSDOF 6
ENDMDL
MODEL 4
REMARK VINA RESULT:      -6.5      1.711      2.919
REMARK  6 active torsions:
REMARK  status: ('A' for Active; 'I' for Inactive)
REMARK    1  A    between atoms: C_7  and  C_6 
REMARK    2  A    between atoms: C_14  and  C_15 
REMARK    3  A    between atoms: O_16  and  C_15 
REMARK    4  A    between atoms: C_17  and  O_18 
REMARK    5  A    between atoms: C_19  and  O_20 
REMARK    6  A    between atoms: C_21  and  O_22 
ROOT
HETATM    1  C   UNK N   1      36.719  13.026  14.597  0.00  0.00     0.048 C 
HETATM    2  C   UNK N   1      36.886  12.168  13.393  0.00  0.00     0.133 C 
HETATM    3  N   UNK N   1      36.637  14.252  14.278  0.00  0.00    -0.266 N 
ATOM      4  HN  UNK N   1      36.557  15.014  14.953  1.00  0.00     0.194 HD
HETATM    5  O   UNK N   1      36.663  14.419  12.985  0.00  0.00    -0.237 OA
HETATM    6  C   UNK N   1      36.638  13.212  12.292  0.00  0.00     0.224 C 
HETATM    7  O   UNK N   1      37.655  13.168  11.302  0.00  0.00    -0.341 OA
HETATM    8  C   UNK N   1      37.361  14.069  10.235  0.00  0.00     0.180 C 
HETATM    9  C   UNK N   1      36.046  13.677   9.528  0.00  0.00     0.180 C 
HETATM   10  C   UNK N   1      34.904  13.756  10.541  0.00  0.00     0.183 C 
HETATM   11  C   UNK N   1      35.248  12.856  11.713  0.00  0.00     0.214 C 
ENDROOT
BRANCH  11  12
HETATM   12  O   UNK N   1      34.253  12.943  12.694  0.00  0.00    -0.387 OA
HETATM   13  H   UNK N   1      33.397  13.386  12.592  0.00  0.00     0.210 HD
ENDBRANCH  11  12
BRANCH   8  14
HETATM   14  C   UNK N   1      38.503  14.034   9.225  0.00  0.00     0.198 C 
BRANCH  14  15
HETATM   15  O   UNK N   1      38.253  13.076   8.242  0.00  0.00    -0.398 OA
HETATM   16  H   UNK N   1      37.521  13.183   7.615  0.00  0.00     0.209 HD
ENDBRANCH  14  15
ENDBRANCH   8  14
BRANCH   1  17
HETATM   17  C   UNK N   1      36.151  12.540  15.856  0.00  0.00    -0.011 A 
HETATM   18  C   UNK N   1      36.298  11.211  16.271  0.00  0.00     0.013 A 
HETATM   19  C   UNK N   1      35.811  10.817  17.523  0.00  0.00     0.001 A 
HETATM   20  C   UNK N   1      35.241  11.759  18.385  0.00  0.00     0.000 A 
HETATM   21  C   UNK N   1      35.129  13.094  17.987  0.00  0.00     0.001 A 
HETATM   22  C   UNK N   1      35.568  13.477  16.721  0.00  0.00     0.013 A 
ENDBRANCH   1  17
BRANCH  10  23
HETATM   23  O   UNK N   1      33.706  13.335   9.957  0.00  0.00    -0.390 OA
HETATM   24  H   UNK N   1      33.220  13.921   9.356  0.00  0.00     0.210 HD
ENDBRANCH  10  23
BRANCH   9  25
HETATM   25  O   UNK N   1      35.780  14.540   8.462  0.00  0.00    -0.390 OA
HETATM   26  H   UNK N   1      35.979  14.407   7.521  0.00  0.00     0.210 HD
ENDBRANCH   9  25
TORSDOF 6
ENDMDL
MODEL 5
REMARK VINA RESULT:      -6.5      1.508      1.703
REMARK  6 active torsions:
REMARK  status: ('A' for Active; 'I' for Inactive)
REMARK    1  A    between atoms: C_7  and  C_6 
REMARK    2  A    between atoms: C_14  and  C_15 
REMARK    3  A    between atoms: O_16  and  C_15 
REMARK    4  A    between atoms: C_17  and  O_18 
REMARK    5  A    between atoms: C_19  and  O_20 
REMARK    6  A    between atoms: C_21  and  O_22 
ROOT
HETATM    1  C   UNK N   1      34.712  12.141  14.814  0.00  0.00     0.048 C 
HETATM    2  C   UNK N   1      35.265  13.488  14.509  0.00  0.00     0.133 C 
HETATM    3  N   UNK N   1      34.414  11.516  13.749  0.00  0.00    -0.266 N 
ATOM      4  HN  UNK N   1      33.984  10.590  13.730  1.00  0.00     0.194 HD
HETATM    5  O   UNK N   1      34.726  12.199  12.683  0.00  0.00    -0.237 OA
HETATM    6  C   UNK N   1      35.422  13.367  12.984  0.00  0.00     0.224 C 
HETATM    7  O   UNK N   1      34.858  14.486  12.317  0.00  0.00    -0.341 OA
HETATM    8  C   UNK N   1      35.101  14.412  10.913  0.00  0.00     0.180 C 
HETATM    9  C   UNK N   1      36.614  14.441  10.611  0.00  0.00     0.180 C 
HETATM   10  C   UNK N   1      37.267  13.225  11.267  0.00  0.00     0.183 C 
HETATM   11  C   UNK N   1      36.948  13.259  12.750  0.00  0.00     0.214 C 
ENDROOT
BRANCH  11  12
HETATM   12  O   UNK N   1      37.479  12.128  13.382  0.00  0.00    -0.387 OA
HETATM   13  H   UNK N   1      37.339  11.883  14.309  0.00  0.00     0.210 HD
ENDBRANCH  11  12
BRANCH   8  14
HETATM   14  C   UNK N   1      34.431  15.599  10.229  0.00  0.00     0.198 C 
BRANCH  14  15
HETATM   15  O   UNK N   1      34.837  16.795  10.822  0.00  0.00    -0.398 OA
HETATM   16  H   UNK N   1      34.451  17.092  11.661  0.00  0.00     0.209 HD
ENDBRANCH  14  15
ENDBRANCH   8  14
BRANCH   1  17
HETATM   17  C   UNK N   1      35.003  11.415  16.051  0.00  0.00    -0.011 A 
HETATM   18  C   UNK N   1      35.294  12.079  17.248  0.00  0.00     0.013 A 
HETATM   19  C   UNK N   1      35.481  11.342  18.424  0.00  0.00     0.001 A 
HETATM   20  C   UNK N   1      35.311   9.953  18.418  0.00  0.00     0.000 A 
HETATM   21  C   UNK N   1      34.983   9.294  17.231  0.00  0.00     0.001 A 
HETATM   22  C   UNK N   1      34.847  10.022  16.050  0.00  0.00     0.013 A 
ENDBRANCH   1  17
BRANCH  10  23
HETATM   23  O   UNK N   1      38.652  13.255  11.080  0.00  0.00    -0.390 OA
HETATM   24  H   UNK N   1      39.252  13.189  11.838  0.00  0.00     0.210 HD
ENDBRANCH  10  23
BRANCH   9  25
HETATM   25  O   UNK N   1      36.846  14.405   9.234  0.00  0.00    -0.390 OA
HETATM   26  H   UNK N   1      36.195  14.459   8.517  0.00  0.00     0.210 HD
ENDBRANCH   9  25
TORSDOF 6
ENDMDL
MODEL 6
REMARK VINA RESULT:      -6.4      4.358      8.863
REMARK  6 active torsions:
REMARK  status: ('A' for Active; 'I' for Inactive)
REMARK    1  A    between atoms: C_7  and  C_6 
REMARK    2  A    between atoms: C_14  and  C_15 
REMARK    3  A    between atoms: O_16  and  C_15 
REMARK    4  A    between atoms: C_17  and  O_18 
REMARK    5  A    between atoms: C_19  and  O_20 
REMARK    6  A    between atoms: C_21  and  O_22 
ROOT
HETATM    1  C   UNK N   1      33.500  16.706   8.432  0.00  0.00     0.048 C 
HETATM    2  C   UNK N   1      33.396  15.352   9.039  0.00  0.00     0.133 C 
HETATM    3  N   UNK N   1      34.530  17.318   8.853  0.00  0.00    -0.266 N 
ATOM      4  HN  UNK N   1      34.771  18.276   8.593  1.00  0.00     0.194 HD
HETATM    5  O   UNK N   1      35.242  16.576   9.654  0.00  0.00    -0.237 OA
HETATM    6  C   UNK N   1      34.765  15.270   9.733  0.00  0.00     0.224 C 
HETATM    7  O   UNK N   1      34.635  14.852  11.084  0.00  0.00    -0.341 OA
HETATM    8  C   UNK N   1      35.918  14.681  11.686  0.00  0.00     0.180 C 
HETATM    9  C   UNK N   1      36.724  13.581  10.964  0.00  0.00     0.180 C 
HETATM   10  C   UNK N   1      36.938  14.004   9.511  0.00  0.00     0.183 C 
HETATM   11  C   UNK N   1      35.579  14.259   8.888  0.00  0.00     0.214 C 
ENDROOT
BRANCH  11  12
HETATM   12  O   UNK N   1      35.730  14.707   7.570  0.00  0.00    -0.387 OA
HETATM   13  H   UNK N   1      35.418  15.557   7.224  0.00  0.00     0.210 HD
ENDBRANCH  11  12
BRANCH   8  14
HETATM   14  C   UNK N   1      35.733  14.290  13.148  0.00  0.00     0.198 C 
BRANCH  14  15
HETATM   15  O   UNK N   1      36.828  14.709  13.905  0.00  0.00    -0.398 OA
HETATM   16  H   UNK N   1      36.755  14.825  14.865  0.00  0.00     0.209 HD
ENDBRANCH  14  15
ENDBRANCH   8  14
BRANCH   1  17
HETATM   17  C   UNK N   1      32.892  17.059   7.148  0.00  0.00    -0.011 A 
HETATM   18  C   UNK N   1      33.664  17.380   6.026  0.00  0.00     0.013 A 
HETATM   19  C   UNK N   1      33.038  17.627   4.799  0.00  0.00     0.001 A 
HETATM   20  C   UNK N   1      31.651  17.489   4.676  0.00  0.00     0.000 A 
HETATM   21  C   UNK N   1      30.883  17.131   5.787  0.00  0.00     0.001 A 
HETATM   22  C   UNK N   1      31.501  16.935   7.021  0.00  0.00     0.013 A 
ENDBRANCH   1  17
BRANCH  10  23
HETATM   23  O   UNK N   1      37.602  12.998   8.803  0.00  0.00    -0.390 OA
HETATM   24  H   UNK N   1      38.454  13.177   8.377  0.00  0.00     0.210 HD
ENDBRANCH  10  23
BRANCH   9  25
HETATM   25  O   UNK N   1      37.965  13.392  11.579  0.00  0.00    -0.390 OA
HETATM   26  H   UNK N   1      38.771  13.012  11.194  0.00  0.00     0.210 HD
ENDBRANCH   9  25
TORSDOF 6
ENDMDL
MODEL 7
REMARK VINA RESULT:      -6.4      4.892      8.358
REMARK  6 active torsions:
REMARK  status: ('A' for Active; 'I' for Inactive)
REMARK    1  A    between atoms: C_7  and  C_6 
REMARK    2  A    between atoms: C_14  and  C_15 
REMARK    3  A    between atoms: O_16  and  C_15 
REMARK    4  A    between atoms: C_17  and  O_18 
REMARK    5  A    between atoms: C_19  and  O_20 
REMARK    6  A    between atoms: C_21  and  O_22 
ROOT
HETATM    1  C   UNK N   1      33.215  16.251   8.121  0.00  0.00     0.048 C 
HETATM    2  C   UNK N   1      34.201  16.716   9.132  0.00  0.00     0.133 C 
HETATM    3  N   UNK N   1      33.395  15.027   7.835  0.00  0.00    -0.266 N 
ATOM      4  HN  UNK N   1      32.853  14.517   7.135  1.00  0.00     0.194 HD
HETATM    5  O   UNK N   1      34.353  14.499   8.544  0.00  0.00    -0.237 OA
HETATM    6  C   UNK N   1      34.835  15.370   9.519  0.00  0.00     0.224 C 
HETATM    7  O   UNK N   1      36.253  15.439   9.487  0.00  0.00    -0.341 OA
HETATM    8  C   UNK N   1      36.829  14.216   9.946  0.00  0.00     0.180 C 
HETATM    9  C   UNK N   1      36.437  13.937  11.412  0.00  0.00     0.180 C 
HETATM   10  C   UNK N   1      34.917  13.802  11.495  0.00  0.00     0.183 C 
HETATM   11  C   UNK N   1      34.299  15.071  10.939  0.00  0.00     0.214 C 
ENDROOT
BRANCH  11  12
HETATM   12  O   UNK N   1      32.903  14.967  10.942  0.00  0.00    -0.387 OA
HETATM   13  H   UNK N   1      32.361  14.660  11.685  0.00  0.00     0.210 HD
ENDBRANCH  11  12
BRANCH   8  14
HETATM   14  C   UNK N   1      38.347  14.312   9.842  0.00  0.00     0.198 C 
BRANCH  14  15
HETATM   15  O   UNK N   1      38.909  13.039   9.739  0.00  0.00    -0.398 OA
HETATM   16  H   UNK N   1      38.532  12.287  10.223  0.00  0.00     0.209 HD
ENDBRANCH  14  15
ENDBRANCH   8  14
BRANCH   1  17
HETATM   17  C   UNK N   1      31.909  16.881   7.923  0.00  0.00    -0.011 A 
HETATM   18  C   UNK N   1      31.007  16.428   6.954  0.00  0.00     0.013 A 
HETATM   19  C   UNK N   1      29.736  17.008   6.862  0.00  0.00     0.001 A 
HETATM   20  C   UNK N   1      29.343  17.991   7.777  0.00  0.00     0.000 A 
HETATM   21  C   UNK N   1      30.230  18.417   8.769  0.00  0.00     0.001 A 
HETATM   22  C   UNK N   1      31.513  17.876   8.829  0.00  0.00     0.013 A 
ENDBRANCH   1  17
BRANCH  10  23
HETATM   23  O   UNK N   1      34.516  13.622  12.822  0.00  0.00    -0.390 OA
HETATM   24  H   UNK N   1      35.142  13.289  13.484  0.00  0.00     0.210 HD
ENDBRANCH  10  23
BRANCH   9  25
HETATM   25  O   UNK N   1      37.032  12.758  11.868  0.00  0.00    -0.390 OA
HETATM   26  H   UNK N   1      37.123  12.449  12.783  0.00  0.00     0.210 HD
ENDBRANCH   9  25
TORSDOF 6
ENDMDL
MODEL 8
REMARK VINA RESULT:      -6.3      3.595      5.895
REMARK  6 active torsions:
REMARK  status: ('A' for Active; 'I' for Inactive)
REMARK    1  A    between atoms: C_7  and  C_6 
REMARK    2  A    between atoms: C_14  and  C_15 
REMARK    3  A    between atoms: O_16  and  C_15 
REMARK    4  A    between atoms: C_17  and  O_18 
REMARK    5  A    between atoms: C_19  and  O_20 
REMARK    6  A    between atoms: C_21  and  O_22 
ROOT
HETATM    1  C   UNK N   1      36.351  14.234  11.064  0.00  0.00     0.048 C 
HETATM    2  C   UNK N   1      35.515  13.678   9.966  0.00  0.00     0.133 C 
HETATM    3  N   UNK N   1      36.385  15.503  11.016  0.00  0.00    -0.266 N 
ATOM      4  HN  UNK N   1      36.932  16.084  11.652  1.00  0.00     0.194 HD
HETATM    5  O   UNK N   1      35.637  15.972  10.057  0.00  0.00    -0.237 OA
HETATM    6  C   UNK N   1      34.894  14.977   9.427  0.00  0.00     0.224 C 
HETATM    7  O   UNK N   1      35.019  15.061   8.015  0.00  0.00    -0.341 OA
HETATM    8  C   UNK N   1      34.349  16.219   7.516  0.00  0.00     0.180 C 
HETATM    9  C   UNK N   1      32.837  16.155   7.818  0.00  0.00     0.180 C 
HETATM   10  C   UNK N   1      32.642  16.113   9.333  0.00  0.00     0.183 C 
HETATM   11  C   UNK N   1      33.414  14.926   9.877  0.00  0.00     0.214 C 
ENDROOT
BRANCH  11  12
HETATM   12  O   UNK N   1      33.311  14.883  11.273  0.00  0.00    -0.387 OA
HETATM   13  H   UNK N   1      33.829  14.312  11.859  0.00  0.00     0.210 HD
ENDBRANCH  11  12
BRANCH   8  14
HETATM   14  C   UNK N   1      34.556  16.302   6.008  0.00  0.00     0.198 C 
BRANCH  14  15
HETATM   15  O   UNK N   1      34.212  17.570   5.539  0.00  0.00    -0.398 OA
HETATM   16  H   UNK N   1      33.322  17.750   5.197  0.00  0.00     0.209 HD
ENDBRANCH  14  15
ENDBRANCH   8  14
BRANCH   1  17
HETATM   17  C   UNK N   1      36.601  13.526  12.320  0.00  0.00    -0.011 A 
HETATM   18  C   UNK N   1      37.234  12.278  12.354  0.00  0.00     0.013 A 
HETATM   19  C   UNK N   1      37.528  11.681  13.585  0.00  0.00     0.001 A 
HETATM   20  C   UNK N   1      37.251  12.356  14.779  0.00  0.00     0.000 A 
HETATM   21  C   UNK N   1      36.653  13.618  14.745  0.00  0.00     0.001 A 
HETATM   22  C   UNK N   1      36.314  14.191  13.521  0.00  0.00     0.013 A 
ENDBRANCH   1  17
BRANCH  10  23
HETATM   23  O   UNK N   1      31.286  15.980   9.646  0.00  0.00    -0.390 OA
HETATM   24  H   UNK N   1      31.013  15.633  10.510  0.00  0.00     0.210 HD
ENDBRANCH  10  23
BRANCH   9  25
HETATM   25  O   UNK N   1      32.180  17.273   7.297  0.00  0.00    -0.390 OA
HETATM   26  H   UNK N   1      32.104  18.157   7.688  0.00  0.00     0.210 HD
ENDBRANCH   9  25
TORSDOF 6
ENDMDL
MODEL 9
REMARK VINA RESULT:      -6.3      1.602      2.879
REMARK  6 active torsions:
REMARK  status: ('A' for Active; 'I' for Inactive)
REMARK    1  A    between atoms: C_7  and  C_6 
REMARK    2  A    between atoms: C_14  and  C_15 
REMARK    3  A    between atoms: O_16  and  C_15 
REMARK    4  A    between atoms: C_17  and  O_18 
REMARK    5  A    between atoms: C_19  and  O_20 
REMARK    6  A    between atoms: C_21  and  O_22 
ROOT
HETATM    1  C   UNK N   1      35.825  12.078  14.740  0.00  0.00     0.048 C 
HETATM    2  C   UNK N   1      34.869  12.566  13.710  0.00  0.00     0.133 C 
HETATM    3  N   UNK N   1      36.961  11.830  14.230  0.00  0.00    -0.266 N 
ATOM      4  HN  UNK N   1      37.751  11.448  14.751  1.00  0.00     0.194 HD
HETATM    5  O   UNK N   1      36.996  12.123  12.960  0.00  0.00    -0.237 OA
HETATM    6  C   UNK N   1      35.832  12.754  12.527  0.00  0.00     0.224 C 
HETATM    7  O   UNK N   1      35.326  12.144  11.349  0.00  0.00    -0.341 OA
HETATM    8  C   UNK N   1      36.178  12.412  10.235  0.00  0.00     0.180 C 
HETATM    9  C   UNK N   1      36.250  13.927   9.947  0.00  0.00     0.180 C 
HETATM   10  C   UNK N   1      36.837  14.630  11.170  0.00  0.00     0.183 C 
HETATM   11  C   UNK N   1      35.977  14.287  12.372  0.00  0.00     0.214 C 
ENDROOT
BRANCH  11  12
HETATM   12  O   UNK N   1      36.513  14.865  13.528  0.00  0.00    -0.387 OA
HETATM   13  H   UNK N   1      36.787  14.383  14.324  0.00  0.00     0.210 HD
ENDBRANCH  11  12
BRANCH   8  14
HETATM   14  C   UNK N   1      35.632  11.693   9.007  0.00  0.00     0.198 C 
BRANCH  14  15
HETATM   15  O   UNK N   1      36.668  11.375   8.128  0.00  0.00    -0.398 OA
HETATM   16  H   UNK N   1      36.701  10.512   7.687  0.00  0.00     0.209 HD
ENDBRANCH  14  15
ENDBRANCH   8  14
BRANCH   1  17
HETATM   17  C   UNK N   1      35.696  12.386  16.165  0.00  0.00    -0.011 A 
HETATM   18  C   UNK N   1      35.479  13.691  16.624  0.00  0.00     0.013 A 
HETATM   19  C   UNK N   1      35.277  13.922  17.990  0.00  0.00     0.001 A 
HETATM   20  C   UNK N   1      35.226  12.848  18.886  0.00  0.00     0.000 A 
HETATM   21  C   UNK N   1      35.406  11.543  18.423  0.00  0.00     0.001 A 
HETATM   22  C   UNK N   1      35.657  11.317  17.071  0.00  0.00     0.013 A 
ENDBRANCH   1  17
BRANCH  10  23
HETATM   23  O   UNK N   1      36.849  16.014  10.976  0.00  0.00    -0.390 OA
HETATM   24  H   UNK N   1      36.121  16.451  10.508  0.00  0.00     0.210 HD
ENDBRANCH  10  23
BRANCH   9  25
HETATM   25  O   UNK N   1      37.055  14.181   8.835  0.00  0.00    -0.390 OA
HETATM   26  H   UNK N   1      37.494  13.539   8.255  0.00  0.00     0.210 HD
ENDBRANCH   9  25
TORSDOF 6
ENDMDL
