MODEL 1
REMARK VINA RESULT:      -7.6      0.000      0.000
REMARK  9 active torsions:
REMARK  status: ('A' for Active; 'I' for Inactive)
REMARK    1  A    between atoms: C_1  and  C_2 
REMARK    2  A    between atoms: C_1  and  C_22 
REMARK    3  A    between atoms: C_2  and  O_4 
REMARK    4  A    between atoms: O_4  and  C_5 
REMARK    5  A    between atoms: C_6  and  C_5 
REMARK       I    between atoms: N_10  and  C_11 
REMARK    6  A    between atoms: C_11  and  C_12 
REMARK    7  A    between atoms: C_12  and  N_13 
REMARK       I    between atoms: N_13  and  C_14 
REMARK    8  A    between atoms: C_14  and  O_15 
REMARK    9  A    between atoms: O_15  and  C_16 
ROOT
HETATM    1  C   UNK N   1      35.798  13.727   9.499  0.00  0.00     0.111 C 
HETATM    2  C   UNK N   1      37.117  14.288   9.023  0.00  0.00     0.029 C 
HETATM    3  C   UNK N   1      38.150  13.360   9.713  0.00  0.00     0.022 C 
HETATM    4  C   UNK N   1      37.400  12.663  10.859  0.00  0.00     0.126 C 
HETATM    5  N   UNK N   1      36.145  13.343  10.846  0.00  0.00    -0.344 N 
HETATM    6  C   UNK N   1      35.576  13.786  12.012  0.00  0.00     0.238 C 
HETATM    7  O   UNK N   1      34.680  14.607  12.004  0.00  0.00    -0.272 OA
ENDROOT
BRANCH   1   8
HETATM    8  C   UNK N   1      34.556  14.604   9.295  0.00  0.00     0.204 C 
BRANCH   8   9
HETATM    9  O   UNK N   1      34.964  15.773   8.676  0.00  0.00    -0.319 OA
BRANCH   9  10
HETATM   10  C   UNK N   1      34.722  17.023   9.140  0.00  0.00     0.263 C 
HETATM   11  O   UNK N   1      35.016  17.294  10.293  0.00  0.00    -0.265 OA
BRANCH  10  12
HETATM   12  C   UNK N   1      34.148  18.090   8.257  0.00  0.00     0.149 C 
BRANCH  12  13
HETATM   13  C   UNK N   1      32.784  17.763   7.763  0.00  0.00    -0.047 A 
HETATM   14  C   UNK N   1      31.692  17.969   8.610  0.00  0.00     0.031 A 
HETATM   15  C   UNK N   1      30.401  17.678   8.169  0.00  0.00     0.034 A 
HETATM   16 Cl   UNK N   1      29.038  17.943   9.233  0.00  0.00    -0.084 Cl
HETATM   17  C   UNK N   1      30.199  17.181   6.878  0.00  0.00     0.024 A 
HETATM   18  C   UNK N   1      31.291  16.976   6.028  0.00  0.00     0.002 A 
HETATM   19  C   UNK N   1      32.585  17.270   6.469  0.00  0.00     0.007 A 
ENDBRANCH  12  13
ENDBRANCH  10  12
ENDBRANCH   9  10
ENDBRANCH   8   9
ENDBRANCH   1   8
BRANCH   6  20
HETATM   20  C   UNK N   1      36.074  13.283  13.333  0.00  0.00     0.227 C 
BRANCH  20  21
HETATM   21  N   UNK N   1      36.731  14.327  14.074  0.00  0.00    -0.328 N 
HETATM   22  C   UNK N   1      36.959  14.227  15.403  0.00  0.00     0.361 C 
HETATM   23  O   UNK N   1      37.566  15.121  15.966  0.00  0.00    -0.238 OA
HETATM   24  H   UNK N   1      37.024  15.138  13.598  0.00  0.00     0.165 HD
BRANCH  22  25
HETATM   25  O   UNK N   1      36.496  13.140  16.095  0.00  0.00    -0.294 OA
BRANCH  25  26
HETATM   26  C   UNK N   1      35.409  13.048  16.962  0.00  0.00     0.061 C 
HETATM   27  C   UNK N   1      35.360  14.108  18.056  0.00  0.00     0.046 C 
HETATM   28  C   UNK N   1      35.456  11.695  17.640  0.00  0.00     0.046 C 
HETATM   29  C   UNK N   1      34.128  13.130  16.156  0.00  0.00     0.046 C 
ENDBRANCH  25  26
ENDBRANCH  22  25
ENDBRANCH  20  21
ENDBRANCH   6  20
TORSDOF 9
ENDMDL
MODEL 2
REMARK VINA RESULT:      -7.5      3.033      8.979
REMARK  9 active torsions:
REMARK  status: ('A' for Active; 'I' for Inactive)
REMARK    1  A    between atoms: C_1  and  C_2 
REMARK    2  A    between atoms: C_1  and  C_22 
REMARK    3  A    between atoms: C_2  and  O_4 
REMARK    4  A    between atoms: O_4  and  C_5 
REMARK    5  A    between atoms: C_6  and  C_5 
REMARK       I    between atoms: N_10  and  C_11 
REMARK    6  A    between atoms: C_11  and  C_12 
REMARK    7  A    between atoms: C_12  and  N_13 
REMARK       I    between atoms: N_13  and  C_14 
REMARK    8  A    between atoms: C_14  and  O_15 
REMARK    9  A    between atoms: O_15  and  C_16 
ROOT
HETATM    1  C   UNK N   1      37.184  12.940  12.098  0.00  0.00     0.111 C 
HETATM    2  C   UNK N   1      37.552  12.039  10.943  0.00  0.00     0.029 C 
HETATM    3  C   UNK N   1      37.726  13.041   9.773  0.00  0.00     0.022 C 
HETATM    4  C   UNK N   1      37.015  14.333  10.207  0.00  0.00     0.126 C 
HETATM    5  N   UNK N   1      36.380  13.925  11.419  0.00  0.00    -0.344 N 
HETATM    6  C   UNK N   1      35.071  14.248  11.665  0.00  0.00     0.238 C 
HETATM    7  O   UNK N   1      34.433  13.677  12.528  0.00  0.00    -0.272 OA
ENDROOT
BRANCH   1   8
HETATM    8  C   UNK N   1      36.598  12.264  13.345  0.00  0.00     0.204 C 
BRANCH   8   9
HETATM    9  O   UNK N   1      37.265  12.769  14.449  0.00  0.00    -0.319 OA
BRANCH   9  10
HETATM   10  C   UNK N   1      36.729  13.619  15.358  0.00  0.00     0.263 C 
HETATM   11  O   UNK N   1      37.388  14.574  15.735  0.00  0.00    -0.265 OA
BRANCH  10  12
HETATM   12  C   UNK N   1      35.332  13.439  15.872  0.00  0.00     0.149 C 
BRANCH  12  13
HETATM   13  C   UNK N   1      35.280  12.716  17.170  0.00  0.00    -0.047 A 
HETATM   14  C   UNK N   1      35.283  11.318  17.165  0.00  0.00     0.031 A 
HETATM   15  C   UNK N   1      35.244  10.615  18.369  0.00  0.00     0.034 A 
HETATM   16 Cl   UNK N   1      35.254   8.866  18.355  0.00  0.00    -0.084 Cl
HETATM   17  C   UNK N   1      35.203  11.309  19.582  0.00  0.00     0.024 A 
HETATM   18  C   UNK N   1      35.202  12.708  19.589  0.00  0.00     0.002 A 
HETATM   19  C   UNK N   1      35.243  13.413  18.382  0.00  0.00     0.007 A 
ENDBRANCH  12  13
ENDBRANCH  10  12
ENDBRANCH   9  10
ENDBRANCH   8   9
ENDBRANCH   1   8
BRANCH   6  20
HETATM   20  C   UNK N   1      34.385  15.300  10.847  0.00  0.00     0.227 C 
BRANCH  20  21
HETATM   21  N   UNK N   1      33.315  14.739  10.066  0.00  0.00    -0.328 N 
HETATM   22  C   UNK N   1      33.095  15.105   8.783  0.00  0.00     0.361 C 
HETATM   23  O   UNK N   1      32.206  14.556   8.157  0.00  0.00    -0.238 OA
HETATM   24  H   UNK N   1      32.725  14.067  10.479  0.00  0.00     0.165 HD
BRANCH  22  25
HETATM   25  O   UNK N   1      33.858  16.089   8.215  0.00  0.00    -0.294 OA
BRANCH  25  26
HETATM   26  C   UNK N   1      33.489  17.376   7.828  0.00  0.00     0.061 C 
HETATM   27  C   UNK N   1      32.163  17.868   8.397  0.00  0.00     0.046 C 
HETATM   28  C   UNK N   1      33.377  17.405   6.319  0.00  0.00     0.046 C 
HETATM   29  C   UNK N   1      34.578  18.345   8.242  0.00  0.00     0.046 C 
ENDBRANCH  25  26
ENDBRANCH  22  25
ENDBRANCH  20  21
ENDBRANCH   6  20
TORSDOF 9
ENDMDL
MODEL 3
REMARK VINA RESULT:      -7.4      3.325      9.160
REMARK  9 active torsions:
REMARK  status: ('A' for Active; 'I' for Inactive)
REMARK    1  A    between atoms: C_1  and  C_2 
REMARK    2  A    between atoms: C_1  and  C_22 
REMARK    3  A    between atoms: C_2  and  O_4 
REMARK    4  A    between atoms: O_4  and  C_5 
REMARK    5  A    between atoms: C_6  and  C_5 
REMARK       I    between atoms: N_10  and  C_11 
REMARK    6  A    between atoms: C_11  and  C_12 
REMARK    7  A    between atoms: C_12  and  N_13 
REMARK       I    between atoms: N_13  and  C_14 
REMARK    8  A    between atoms: C_14  and  O_15 
REMARK    9  A    between atoms: O_15  and  C_16 
ROOT
HETATM    1  C   UNK N   1      36.455  13.801  12.174  0.00  0.00     0.111 C 
HETATM    2  C   UNK N   1      36.866  12.439  11.667  0.00  0.00     0.029 C 
HETATM    3  C   UNK N   1      37.588  12.775  10.337  0.00  0.00     0.022 C 
HETATM    4  C   UNK N   1      37.145  14.197   9.958  0.00  0.00     0.126 C 
HETATM    5  N   UNK N   1      36.135  14.460  10.932  0.00  0.00    -0.344 N 
HETATM    6  C   UNK N   1      34.935  15.011  10.564  0.00  0.00     0.238 C 
HETATM    7  O   UNK N   1      33.971  14.972  11.304  0.00  0.00    -0.272 OA
ENDROOT
BRANCH   1   8
HETATM    8  C   UNK N   1      35.414  13.837  13.300  0.00  0.00     0.204 C 
BRANCH   8   9
HETATM    9  O   UNK N   1      34.766  12.613  13.314  0.00  0.00    -0.319 OA
BRANCH   9  10
HETATM   10  C   UNK N   1      34.694  11.785  14.384  0.00  0.00     0.263 C 
HETATM   11  O   UNK N   1      33.665  11.159  14.581  0.00  0.00    -0.265 OA
BRANCH  10  12
HETATM   12  C   UNK N   1      35.863  11.586  15.302  0.00  0.00     0.149 C 
BRANCH  12  13
HETATM   13  C   UNK N   1      35.605  12.068  16.684  0.00  0.00    -0.047 A 
HETATM   14  C   UNK N   1      35.595  11.143  17.732  0.00  0.00     0.031 A 
HETATM   15  C   UNK N   1      35.364  11.569  19.039  0.00  0.00     0.034 A 
HETATM   16 Cl   UNK N   1      35.359  10.406  20.345  0.00  0.00    -0.084 Cl
HETATM   17  C   UNK N   1      35.142  12.924  19.303  0.00  0.00     0.024 A 
HETATM   18  C   UNK N   1      35.153  13.852  18.256  0.00  0.00     0.002 A 
HETATM   19  C   UNK N   1      35.388  13.425  16.946  0.00  0.00     0.007 A 
ENDBRANCH  12  13
ENDBRANCH  10  12
ENDBRANCH   9  10
ENDBRANCH   8   9
ENDBRANCH   1   8
BRANCH   6  20
HETATM   20  C   UNK N   1      34.779  15.652   9.219  0.00  0.00     0.227 C 
BRANCH  20  21
HETATM   21  N   UNK N   1      34.894  17.084   9.308  0.00  0.00    -0.328 N 
HETATM   22  C   UNK N   1      34.740  17.884   8.228  0.00  0.00     0.361 C 
HETATM   23  O   UNK N   1      34.796  19.091   8.376  0.00  0.00    -0.238 OA
HETATM   24  H   UNK N   1      35.091  17.493  10.181  0.00  0.00     0.165 HD
BRANCH  22  25
HETATM   25  O   UNK N   1      34.537  17.329   6.993  0.00  0.00    -0.294 OA
BRANCH  25  26
HETATM   26  C   UNK N   1      33.340  16.967   6.378  0.00  0.00     0.061 C 
HETATM   27  C   UNK N   1      33.157  15.472   6.145  0.00  0.00     0.046 C 
HETATM   28  C   UNK N   1      33.273  17.651   5.029  0.00  0.00     0.046 C 
HETATM   29  C   UNK N   1      32.184  17.467   7.221  0.00  0.00     0.046 C 
ENDBRANCH  25  26
ENDBRANCH  22  25
ENDBRANCH  20  21
ENDBRANCH   6  20
TORSDOF 9
ENDMDL
MODEL 4
REMARK VINA RESULT:      -7.3      1.541      2.044
REMARK  9 active torsions:
REMARK  status: ('A' for Active; 'I' for Inactive)
REMARK    1  A    between atoms: C_1  and  C_2 
REMARK    2  A    between atoms: C_1  and  C_22 
REMARK    3  A    between atoms: C_2  and  O_4 
REMARK    4  A    between atoms: O_4  and  C_5 
REMARK    5  A    between atoms: C_6  and  C_5 
REMARK       I    between atoms: N_10  and  C_11 
REMARK    6  A    between atoms: C_11  and  C_12 
REMARK    7  A    between atoms: C_12  and  N_13 
REMARK       I    between atoms: N_13  and  C_14 
REMARK    8  A    between atoms: C_14  and  O_15 
REMARK    9  A    between atoms: O_15  and  C_16 
ROOT
HETATM    1  C   UNK N   1      34.701  14.608   9.362  0.00  0.00     0.111 C 
HETATM    2  C   UNK N   1      35.789  14.470   8.324  0.00  0.00     0.029 C 
HETATM    3  C   UNK N   1      36.294  13.021   8.550  0.00  0.00     0.022 C 
HETATM    4  C   UNK N   1      35.807  12.613   9.950  0.00  0.00     0.126 C 
HETATM    5  N   UNK N   1      35.269  13.841  10.444  0.00  0.00    -0.344 N 
HETATM    6  C   UNK N   1      35.562  14.274  11.710  0.00  0.00     0.238 C 
HETATM    7  O   UNK N   1      35.365  15.427  12.043  0.00  0.00    -0.272 OA
ENDROOT
BRANCH   1   8
HETATM    8  C   UNK N   1      34.208  16.029   9.666  0.00  0.00     0.204 C 
BRANCH   8   9
HETATM    9  O   UNK N   1      34.904  16.900   8.846  0.00  0.00    -0.319 OA
BRANCH   9  10
HETATM   10  C   UNK N   1      34.446  18.104   8.425  0.00  0.00     0.263 C 
HETATM   11  O   UNK N   1      35.208  19.057   8.417  0.00  0.00    -0.265 OA
BRANCH  10  12
HETATM   12  C   UNK N   1      33.042  18.279   7.928  0.00  0.00     0.149 C 
BRANCH  12  13
HETATM   13  C   UNK N   1      32.743  17.447   6.732  0.00  0.00    -0.047 A 
HETATM   14  C   UNK N   1      31.587  16.662   6.728  0.00  0.00     0.031 A 
HETATM   15  C   UNK N   1      31.278  15.879   5.615  0.00  0.00     0.034 A 
HETATM   16 Cl   UNK N   1      29.826  14.903   5.616  0.00  0.00    -0.084 Cl
HETATM   17  C   UNK N   1      32.125  15.881   4.503  0.00  0.00     0.024 A 
HETATM   18  C   UNK N   1      33.281  16.668   4.505  0.00  0.00     0.002 A 
HETATM   19  C   UNK N   1      33.590  17.454   5.619  0.00  0.00     0.007 A 
ENDBRANCH  12  13
ENDBRANCH  10  12
ENDBRANCH   9  10
ENDBRANCH   8   9
ENDBRANCH   1   8
BRANCH   6  20
HETATM   20  C   UNK N   1      36.162  13.333  12.711  0.00  0.00     0.227 C 
BRANCH  20  21
HETATM   21  N   UNK N   1      36.998  14.034  13.649  0.00  0.00    -0.328 N 
HETATM   22  C   UNK N   1      36.727  14.056  14.973  0.00  0.00     0.361 C 
HETATM   23  O   UNK N   1      37.501  14.622  15.724  0.00  0.00    -0.238 OA
HETATM   24  H   UNK N   1      37.792  14.512  13.316  0.00  0.00     0.165 HD
BRANCH  22  25
HETATM   25  O   UNK N   1      35.590  13.458  15.446  0.00  0.00    -0.294 OA
BRANCH  25  26
HETATM   26  C   UNK N   1      35.426  12.184  15.987  0.00  0.00     0.061 C 
HETATM   27  C   UNK N   1      36.624  11.254  15.831  0.00  0.00     0.046 C 
HETATM   28  C   UNK N   1      34.246  11.526  15.304  0.00  0.00     0.046 C 
HETATM   29  C   UNK N   1      35.108  12.314  17.463  0.00  0.00     0.046 C 
ENDBRANCH  25  26
ENDBRANCH  22  25
ENDBRANCH  20  21
ENDBRANCH   6  20
TORSDOF 9
ENDMDL
MODEL 5
REMARK VINA RESULT:      -7.2     16.473     20.688
REMARK  9 active torsions:
REMARK  status: ('A' for Active; 'I' for Inactive)
REMARK    1  A    between atoms: C_1  and  C_2 
REMARK    2  A    between atoms: C_1  and  C_22 
REMARK    3  A    between atoms: C_2  and  O_4 
REMARK    4  A    between atoms: O_4  and  C_5 
REMARK    5  A    between atoms: C_6  and  C_5 
REMARK       I    between atoms: N_10  and  C_11 
REMARK    6  A    between atoms: C_11  and  C_12 
REMARK    7  A    between atoms: C_12  and  N_13 
REMARK       I    between atoms: N_13  and  C_14 
REMARK    8  A    between atoms: C_14  and  O_15 
REMARK    9  A    between atoms: O_15  and  C_16 
ROOT
HETATM    1  C   UNK N   1      25.981  25.693  -6.345  0.00  0.00     0.111 C 
HETATM    2  C   UNK N   1      26.696  26.724  -7.185  0.00  0.00     0.029 C 
HETATM    3  C   UNK N   1      27.803  25.889  -7.880  0.00  0.00     0.022 C 
HETATM    4  C   UNK N   1      27.935  24.593  -7.064  0.00  0.00     0.126 C 
HETATM    5  N   UNK N   1      27.090  24.862  -5.945  0.00  0.00    -0.344 N 
HETATM    6  C   UNK N   1      27.508  24.586  -4.670  0.00  0.00     0.238 C 
HETATM    7  O   UNK N   1      26.946  25.067  -3.704  0.00  0.00    -0.272 OA
ENDROOT
BRANCH   1   8
HETATM    8  C   UNK N   1      25.041  26.219  -5.252  0.00  0.00     0.204 C 
BRANCH   8   9
HETATM    9  O   UNK N   1      25.225  27.588  -5.163  0.00  0.00    -0.319 OA
BRANCH   9  10
HETATM   10  C   UNK N   1      25.696  28.239  -4.072  0.00  0.00     0.263 C 
HETATM   11  O   UNK N   1      25.421  27.812  -2.962  0.00  0.00    -0.265 OA
BRANCH  10  12
HETATM   12  C   UNK N   1      26.585  29.440  -4.199  0.00  0.00     0.149 C 
BRANCH  12  13
HETATM   13  C   UNK N   1      27.858  29.148  -4.908  0.00  0.00    -0.047 A 
HETATM   14  C   UNK N   1      28.699  28.151  -4.404  0.00  0.00     0.031 A 
HETATM   15  C   UNK N   1      29.895  27.851  -5.055  0.00  0.00     0.034 A 
HETATM   16 Cl   UNK N   1      30.939  26.599  -4.421  0.00  0.00    -0.084 Cl
HETATM   17  C   UNK N   1      30.254  28.546  -6.213  0.00  0.00     0.024 A 
HETATM   18  C   UNK N   1      29.413  29.543  -6.721  0.00  0.00     0.002 A 
HETATM   19  C   UNK N   1      28.212  29.842  -6.069  0.00  0.00     0.007 A 
ENDBRANCH  12  13
ENDBRANCH  10  12
ENDBRANCH   9  10
ENDBRANCH   8   9
ENDBRANCH   1   8
BRANCH   6  20
HETATM   20  C   UNK N   1      28.696  23.702  -4.439  0.00  0.00     0.227 C 
BRANCH  20  21
HETATM   21  N   UNK N   1      29.161  23.797  -3.081  0.00  0.00    -0.328 N 
HETATM   22  C   UNK N   1      30.051  22.920  -2.564  0.00  0.00     0.361 C 
HETATM   23  O   UNK N   1      30.447  23.084  -1.425  0.00  0.00    -0.238 OA
HETATM   24  H   UNK N   1      28.821  24.525  -2.510  0.00  0.00     0.165 HD
BRANCH  22  25
HETATM   25  O   UNK N   1      30.480  21.861  -3.319  0.00  0.00    -0.294 OA
BRANCH  25  26
HETATM   26  C   UNK N   1      31.757  21.591  -3.809  0.00  0.00     0.061 C 
HETATM   27  C   UNK N   1      32.782  21.182  -2.757  0.00  0.00     0.046 C 
HETATM   28  C   UNK N   1      32.276  22.838  -4.492  0.00  0.00     0.046 C 
HETATM   29  C   UNK N   1      31.663  20.488  -4.843  0.00  0.00     0.046 C 
ENDBRANCH  25  26
ENDBRANCH  22  25
ENDBRANCH  20  21
ENDBRANCH   6  20
TORSDOF 9
ENDMDL
MODEL 6
REMARK VINA RESULT:      -7.2      1.981      2.370
REMARK  9 active torsions:
REMARK  status: ('A' for Active; 'I' for Inactive)
REMARK    1  A    between atoms: C_1  and  C_2 
REMARK    2  A    between atoms: C_1  and  C_22 
REMARK    3  A    between atoms: C_2  and  O_4 
REMARK    4  A    between atoms: O_4  and  C_5 
REMARK    5  A    between atoms: C_6  and  C_5 
REMARK       I    between atoms: N_10  and  C_11 
REMARK    6  A    between atoms: C_11  and  C_12 
REMARK    7  A    between atoms: C_12  and  N_13 
REMARK       I    between atoms: N_13  and  C_14 
REMARK    8  A    between atoms: C_14  and  O_15 
REMARK    9  A    between atoms: O_15  and  C_16 
ROOT
HETATM    1  C   UNK N   1      34.925  15.197   9.677  0.00  0.00     0.111 C 
HETATM    2  C   UNK N   1      35.693  14.510   8.573  0.00  0.00     0.029 C 
HETATM    3  C   UNK N   1      35.202  13.043   8.680  0.00  0.00     0.022 C 
HETATM    4  C   UNK N   1      34.576  12.902  10.076  0.00  0.00     0.126 C 
HETATM    5  N   UNK N   1      34.908  14.156  10.675  0.00  0.00    -0.344 N 
HETATM    6  C   UNK N   1      35.412  14.211  11.948  0.00  0.00     0.238 C 
HETATM    7  O   UNK N   1      35.968  15.210  12.362  0.00  0.00    -0.272 OA
ENDROOT
BRANCH   1   8
HETATM    8  C   UNK N   1      35.411  16.591  10.096  0.00  0.00     0.204 C 
BRANCH   8   9
HETATM    9  O   UNK N   1      34.485  17.513   9.642  0.00  0.00    -0.319 OA
BRANCH   9  10
HETATM   10  C   UNK N   1      34.549  18.157   8.451  0.00  0.00     0.263 C 
HETATM   11  O   UNK N   1      35.157  19.213   8.380  0.00  0.00    -0.265 OA
BRANCH  10  12
HETATM   12  C   UNK N   1      33.931  17.578   7.213  0.00  0.00     0.149 C 
BRANCH  12  13
HETATM   13  C   UNK N   1      32.448  17.517   7.279  0.00  0.00    -0.047 A 
HETATM   14  C   UNK N   1      31.801  18.008   8.416  0.00  0.00     0.031 A 
HETATM   15  C   UNK N   1      30.409  17.971   8.500  0.00  0.00     0.034 A 
HETATM   16 Cl   UNK N   1      29.607  18.592   9.924  0.00  0.00    -0.084 Cl
HETATM   17  C   UNK N   1      29.660  17.442   7.444  0.00  0.00     0.024 A 
HETATM   18  C   UNK N   1      30.305  16.952   6.304  0.00  0.00     0.002 A 
HETATM   19  C   UNK N   1      31.701  16.992   6.219  0.00  0.00     0.007 A 
ENDBRANCH  12  13
ENDBRANCH  10  12
ENDBRANCH   9  10
ENDBRANCH   8   9
ENDBRANCH   1   8
BRANCH   6  20
HETATM   20  C   UNK N   1      35.314  13.019  12.852  0.00  0.00     0.227 C 
BRANCH  20  21
HETATM   21  N   UNK N   1      36.617  12.564  13.257  0.00  0.00    -0.328 N 
HETATM   22  C   UNK N   1      36.799  11.805  14.362  0.00  0.00     0.361 C 
HETATM   23  O   UNK N   1      37.919  11.406  14.625  0.00  0.00    -0.238 OA
HETATM   24  H   UNK N   1      37.399  12.812  12.714  0.00  0.00     0.165 HD
BRANCH  22  25
HETATM   25  O   UNK N   1      35.734  11.510  15.170  0.00  0.00    -0.294 OA
BRANCH  25  26
HETATM   26  C   UNK N   1      34.951  10.358  15.206  0.00  0.00     0.061 C 
HETATM   27  C   UNK N   1      35.404   9.236  14.279  0.00  0.00     0.046 C 
HETATM   28  C   UNK N   1      33.537  10.731  14.813  0.00  0.00     0.046 C 
HETATM   29  C   UNK N   1      34.924   9.827  16.625  0.00  0.00     0.046 C 
ENDBRANCH  25  26
ENDBRANCH  22  25
ENDBRANCH  20  21
ENDBRANCH   6  20
TORSDOF 9
ENDMDL
MODEL 7
REMARK VINA RESULT:      -7.1     17.203     20.246
REMARK  9 active torsions:
REMARK  status: ('A' for Active; 'I' for Inactive)
REMARK    1  A    between atoms: C_1  and  C_2 
REMARK    2  A    between atoms: C_1  and  C_22 
REMARK    3  A    between atoms: C_2  and  O_4 
REMARK    4  A    between atoms: O_4  and  C_5 
REMARK    5  A    between atoms: C_6  and  C_5 
REMARK       I    between atoms: N_10  and  C_11 
REMARK    6  A    between atoms: C_11  and  C_12 
REMARK    7  A    between atoms: C_12  and  N_13 
REMARK       I    between atoms: N_13  and  C_14 
REMARK    8  A    between atoms: C_14  and  O_15 
REMARK    9  A    between atoms: O_15  and  C_16 
ROOT
HETATM    1  C   UNK N   1      28.474  24.865  -4.115  0.00  0.00     0.111 C 
HETATM    2  C   UNK N   1      28.828  26.292  -3.768  0.00  0.00     0.029 C 
HETATM    3  C   UNK N   1      30.285  26.416  -4.285  0.00  0.00     0.022 C 
HETATM    4  C   UNK N   1      30.802  24.978  -4.455  0.00  0.00     0.126 C 
HETATM    5  N   UNK N   1      29.740  24.214  -3.882  0.00  0.00    -0.344 N 
HETATM    6  C   UNK N   1      30.006  23.194  -3.005  0.00  0.00     0.238 C 
HETATM    7  O   UNK N   1      29.135  22.734  -2.292  0.00  0.00    -0.272 OA
ENDROOT
BRANCH   1   8
HETATM    8  C   UNK N   1      27.226  24.277  -3.444  0.00  0.00     0.204 C 
BRANCH   8   9
HETATM    9  O   UNK N   1      26.144  25.062  -3.806  0.00  0.00    -0.319 OA
BRANCH   9  10
HETATM   10  C   UNK N   1      25.540  25.041  -5.018  0.00  0.00     0.263 C 
HETATM   11  O   UNK N   1      25.420  23.975  -5.601  0.00  0.00    -0.265 OA
BRANCH  10  12
HETATM   12  C   UNK N   1      24.976  26.285  -5.636  0.00  0.00     0.149 C 
BRANCH  12  13
HETATM   13  C   UNK N   1      25.935  27.421  -5.631  0.00  0.00    -0.047 A 
HETATM   14  C   UNK N   1      25.855  28.369  -4.607  0.00  0.00     0.031 A 
HETATM   15  C   UNK N   1      26.748  29.440  -4.575  0.00  0.00     0.034 A 
HETATM   16 Cl   UNK N   1      26.645  30.619  -3.287  0.00  0.00    -0.084 Cl
HETATM   17  C   UNK N   1      27.725  29.565  -5.567  0.00  0.00     0.024 A 
HETATM   18  C   UNK N   1      27.808  28.616  -6.592  0.00  0.00     0.002 A 
HETATM   19  C   UNK N   1      26.914  27.541  -6.623  0.00  0.00     0.007 A 
ENDBRANCH  12  13
ENDBRANCH  10  12
ENDBRANCH   9  10
ENDBRANCH   8   9
ENDBRANCH   1   8
BRANCH   6  20
HETATM   20  C   UNK N   1      31.394  22.642  -2.887  0.00  0.00     0.227 C 
BRANCH  20  21
HETATM   21  N   UNK N   1      31.409  21.220  -3.104  0.00  0.00    -0.328 N 
HETATM   22  C   UNK N   1      31.649  20.683  -4.322  0.00  0.00     0.361 C 
HETATM   23  O   UNK N   1      31.701  19.471  -4.432  0.00  0.00    -0.238 OA
HETATM   24  H   UNK N   1      31.239  20.619  -2.342  0.00  0.00     0.165 HD
BRANCH  22  25
HETATM   25  O   UNK N   1      31.817  21.501  -5.406  0.00  0.00    -0.294 OA
BRANCH  25  26
HETATM   26  C   UNK N   1      31.096  21.539  -6.599  0.00  0.00     0.061 C 
HETATM   27  C   UNK N   1      31.402  20.412  -7.578  0.00  0.00     0.046 C 
HETATM   28  C   UNK N   1      31.402  22.847  -7.297  0.00  0.00     0.046 C 
HETATM   29  C   UNK N   1      29.615  21.508  -6.278  0.00  0.00     0.046 C 
ENDBRANCH  25  26
ENDBRANCH  22  25
ENDBRANCH  20  21
ENDBRANCH   6  20
TORSDOF 9
ENDMDL
MODEL 8
REMARK VINA RESULT:      -6.9      1.546      2.205
REMARK  9 active torsions:
REMARK  status: ('A' for Active; 'I' for Inactive)
REMARK    1  A    between atoms: C_1  and  C_2 
REMARK    2  A    between atoms: C_1  and  C_22 
REMARK    3  A    between atoms: C_2  and  O_4 
REMARK    4  A    between atoms: O_4  and  C_5 
REMARK    5  A    between atoms: C_6  and  C_5 
REMARK       I    between atoms: N_10  and  C_11 
REMARK    6  A    between atoms: C_11  and  C_12 
REMARK    7  A    between atoms: C_12  and  N_13 
REMARK       I    between atoms: N_13  and  C_14 
REMARK    8  A    between atoms: C_14  and  O_15 
REMARK    9  A    between atoms: O_15  and  C_16 
ROOT
HETATM    1  C   UNK N   1      34.720  14.384   9.064  0.00  0.00     0.111 C 
HETATM    2  C   UNK N   1      35.565  13.643   8.055  0.00  0.00     0.029 C 
HETATM    3  C   UNK N   1      35.556  12.193   8.603  0.00  0.00     0.022 C 
HETATM    4  C   UNK N   1      35.123  12.295  10.074  0.00  0.00     0.126 C 
HETATM    5  N   UNK N   1      35.106  13.708  10.279  0.00  0.00    -0.344 N 
HETATM    6  C   UNK N   1      35.675  14.260  11.397  0.00  0.00     0.238 C 
HETATM    7  O   UNK N   1      35.933  15.447  11.452  0.00  0.00    -0.272 OA
ENDROOT
BRANCH   1   8
HETATM    8  C   UNK N   1      34.791  15.917   9.037  0.00  0.00     0.204 C 
BRANCH   8   9
HETATM    9  O   UNK N   1      34.944  16.308   7.718  0.00  0.00    -0.319 OA
BRANCH   9  10
HETATM   10  C   UNK N   1      33.978  16.882   6.962  0.00  0.00     0.263 C 
HETATM   11  O   UNK N   1      34.192  17.971   6.454  0.00  0.00    -0.265 OA
BRANCH  10  12
HETATM   12  C   UNK N   1      32.674  16.190   6.697  0.00  0.00     0.149 C 
BRANCH  12  13
HETATM   13  C   UNK N   1      31.500  16.955   7.195  0.00  0.00    -0.047 A 
HETATM   14  C   UNK N   1      30.393  17.115   6.357  0.00  0.00     0.031 A 
HETATM   15  C   UNK N   1      29.275  17.820   6.802  0.00  0.00     0.034 A 
HETATM   16 Cl   UNK N   1      27.892  18.011   5.748  0.00  0.00    -0.084 Cl
HETATM   17  C   UNK N   1      29.261  18.367   8.088  0.00  0.00     0.024 A 
HETATM   18  C   UNK N   1      30.367  18.206   8.930  0.00  0.00     0.002 A 
HETATM   19  C   UNK N   1      31.487  17.497   8.484  0.00  0.00     0.007 A 
ENDBRANCH  12  13
ENDBRANCH  10  12
ENDBRANCH   9  10
ENDBRANCH   8   9
ENDBRANCH   1   8
BRANCH   6  20
HETATM   20  C   UNK N   1      36.021  13.397  12.572  0.00  0.00     0.227 C 
BRANCH  20  21
HETATM   21  N   UNK N   1      36.845  14.107  13.515  0.00  0.00    -0.328 N 
HETATM   22  C   UNK N   1      36.610  14.065  14.846  0.00  0.00     0.361 C 
HETATM   23  O   UNK N   1      37.373  14.643  15.598  0.00  0.00    -0.238 OA
HETATM   24  H   UNK N   1      37.603  14.639  13.180  0.00  0.00     0.165 HD
BRANCH  22  25
HETATM   25  O   UNK N   1      35.519  13.390  15.324  0.00  0.00    -0.294 OA
BRANCH  25  26
HETATM   26  C   UNK N   1      35.454  12.123  15.902  0.00  0.00     0.061 C 
HETATM   27  C   UNK N   1      36.666  11.234  15.655  0.00  0.00     0.046 C 
HETATM   28  C   UNK N   1      34.242  11.409  15.343  0.00  0.00     0.046 C 
HETATM   29  C   UNK N   1      35.266  12.275  17.398  0.00  0.00     0.046 C 
ENDBRANCH  25  26
ENDBRANCH  22  25
ENDBRANCH  20  21
ENDBRANCH   6  20
TORSDOF 9
ENDMDL
MODEL 9
REMARK VINA RESULT:      -6.8     17.798     21.268
REMARK  9 active torsions:
REMARK  status: ('A' for Active; 'I' for Inactive)
REMARK    1  A    between atoms: C_1  and  C_2 
REMARK    2  A    between atoms: C_1  and  C_22 
REMARK    3  A    between atoms: C_2  and  O_4 
REMARK    4  A    between atoms: O_4  and  C_5 
REMARK    5  A    between atoms: C_6  and  C_5 
REMARK       I    between atoms: N_10  and  C_11 
REMARK    6  A    between atoms: C_11  and  C_12 
REMARK    7  A    between atoms: C_12  and  N_13 
REMARK       I    between atoms: N_13  and  C_14 
REMARK    8  A    between atoms: C_14  and  O_15 
REMARK    9  A    between atoms: O_15  and  C_16 
ROOT
HETATM    1  C   UNK N   1      27.756  24.542  -4.763  0.00  0.00     0.111 C 
HETATM    2  C   UNK N   1      26.999  23.594  -5.661  0.00  0.00     0.029 C 
HETATM    3  C   UNK N   1      26.504  24.524  -6.799  0.00  0.00     0.022 C 
HETATM    4  C   UNK N   1      26.605  25.958  -6.253  0.00  0.00     0.126 C 
HETATM    5  N   UNK N   1      26.944  25.728  -4.884  0.00  0.00    -0.344 N 
HETATM    6  C   UNK N   1      26.301  26.406  -3.882  0.00  0.00     0.238 C 
HETATM    7  O   UNK N   1      26.357  26.025  -2.728  0.00  0.00    -0.272 OA
ENDROOT
BRANCH   1   8
HETATM    8  C   UNK N   1      28.096  24.041  -3.353  0.00  0.00     0.204 C 
BRANCH   8   9
HETATM    9  O   UNK N   1      29.365  24.496  -3.039  0.00  0.00    -0.319 OA
BRANCH   9  10
HETATM   10  C   UNK N   1      30.441  23.703  -2.814  0.00  0.00     0.263 C 
HETATM   11  O   UNK N   1      30.521  23.100  -1.756  0.00  0.00    -0.265 OA
BRANCH  10  12
HETATM   12  C   UNK N   1      31.507  23.515  -3.851  0.00  0.00     0.149 C 
BRANCH  12  13
HETATM   13  C   UNK N   1      31.349  22.256  -4.625  0.00  0.00    -0.047 A 
HETATM   14  C   UNK N   1      30.324  22.169  -5.571  0.00  0.00     0.031 A 
HETATM   15  C   UNK N   1      30.158  21.001  -6.317  0.00  0.00     0.034 A 
HETATM   16 Cl   UNK N   1      28.876  20.902  -7.502  0.00  0.00    -0.084 Cl
HETATM   17  C   UNK N   1      31.019  19.918  -6.119  0.00  0.00     0.024 A 
HETATM   18  C   UNK N   1      32.047  20.004  -5.174  0.00  0.00     0.002 A 
HETATM   19  C   UNK N   1      32.215  21.175  -4.428  0.00  0.00     0.007 A 
ENDBRANCH  12  13
ENDBRANCH  10  12
ENDBRANCH   9  10
ENDBRANCH   8   9
ENDBRANCH   1   8
BRANCH   6  20
HETATM   20  C   UNK N   1      25.486  27.623  -4.195  0.00  0.00     0.227 C 
BRANCH  20  21
HETATM   21  N   UNK N   1      25.829  28.718  -3.326  0.00  0.00    -0.328 N 
HETATM   22  C   UNK N   1      26.529  29.789  -3.765  0.00  0.00     0.361 C 
HETATM   23  O   UNK N   1      26.743  30.708  -2.996  0.00  0.00    -0.238 OA
HETATM   24  H   UNK N   1      25.545  28.686  -2.384  0.00  0.00     0.165 HD
BRANCH  22  25
HETATM   25  O   UNK N   1      26.993  29.818  -5.053  0.00  0.00    -0.294 OA
BRANCH  25  26
HETATM   26  C   UNK N   1      28.301  29.694  -5.519  0.00  0.00     0.061 C 
HETATM   27  C   UNK N   1      28.438  29.094  -6.913  0.00  0.00     0.046 C 
HETATM   28  C   UNK N   1      29.063  28.803  -4.561  0.00  0.00     0.046 C 
HETATM   29  C   UNK N   1      28.955  31.061  -5.517  0.00  0.00     0.046 C 
ENDBRANCH  25  26
ENDBRANCH  22  25
ENDBRANCH  20  21
ENDBRANCH   6  20
TORSDOF 9
ENDMDL
