MODEL 1
REMARK VINA RESULT:      -7.8      0.000      0.000
REMARK  2 active torsions:
REMARK  status: ('A' for Active; 'I' for Inactive)
REMARK    1  A    between atoms: C_3  and  O_20 
REMARK    2  A    between atoms: C_5  and  O_21 
ROOT
HETATM    1  C   UNK N   1      23.981  19.302   3.480  0.00  0.00     0.296 C 
HETATM    2  C   UNK N   1      22.499  19.123   3.287  0.00  0.00     0.081 A 
HETATM    3  C   UNK N   1      21.694  20.241   2.946  0.00  0.00     0.085 A 
HETATM    4  C   UNK N   1      20.330  20.083   2.716  0.00  0.00     0.076 A 
HETATM    5  C   UNK N   1      19.730  18.835   2.807  0.00  0.00     0.090 A 
HETATM    6  C   UNK N   1      20.488  17.711   3.150  0.00  0.00     0.075 A 
HETATM    7  C   UNK N   1      21.873  17.841   3.404  0.00  0.00    -0.008 A 
HETATM    8  C   UNK N   1      22.678  16.611   3.754  0.00  0.00     0.119 C 
HETATM    9  C   UNK N   1      22.445  16.068   5.142  0.00  0.00     0.131 C 
HETATM   10  C   UNK N   1      23.502  15.233   5.786  0.00  0.00     0.078 C 
HETATM   11  C   UNK N   1      24.716  16.092   6.088  0.00  0.00     0.007 C 
HETATM   12  C   UNK N   1      25.955  15.228   6.207  0.00  0.00     0.001 C 
HETATM   13  C   UNK N   1      27.169  16.065   6.593  0.00  0.00     0.004 C 
HETATM   14  C   UNK N   1      27.668  16.921   5.436  0.00  0.00     0.027 C 
HETATM   15  C   UNK N   1      27.023  18.266   5.477  0.00  0.00    -0.031 C 
HETATM   16  C   UNK N   1      27.319  19.185   4.563  0.00  0.00    -0.029 C 
HETATM   17  C   UNK N   1      26.625  20.507   4.587  0.00  0.00     0.053 C 
HETATM   18  C   UNK N   1      25.918  20.747   3.260  0.00  0.00     0.183 C 
HETATM   19  O   UNK N   1      24.688  18.332   3.708  0.00  0.00    -0.259 OA
HETATM   20 Cl   UNK N   1      19.692  16.136   3.223  0.00  0.00    -0.081 Cl
HETATM   21  O   UNK N   1      21.402  16.282   5.741  0.00  0.00    -0.298 OA
HETATM   22  O   UNK N   1      24.553  20.528   3.340  0.00  0.00    -0.317 OA
ENDROOT
BRANCH   3  23
HETATM   23  O   UNK N   1      22.224  21.469   2.822  0.00  0.00    -0.360 OA
HETATM   24  H   UNK N   1      23.150  21.601   2.771  0.00  0.00     0.217 HD
ENDBRANCH   3  23
BRANCH   5  25
HETATM   25  O   UNK N   1      18.415  18.715   2.554  0.00  0.00    -0.359 OA
HETATM   26  H   UNK N   1      18.124  18.296   1.768  0.00  0.00     0.217 HD
ENDBRANCH   5  25
TORSDOF 2
ENDMDL
MODEL 2
REMARK VINA RESULT:      -7.6      2.992      5.565
REMARK  2 active torsions:
REMARK  status: ('A' for Active; 'I' for Inactive)
REMARK    1  A    between atoms: C_3  and  O_20 
REMARK    2  A    between atoms: C_5  and  O_21 
ROOT
HETATM    1  C   UNK N   1      24.041  15.483   6.082  0.00  0.00     0.296 C 
HETATM    2  C   UNK N   1      23.899  16.785   5.341  0.00  0.00     0.081 A 
HETATM    3  C   UNK N   1      25.042  17.388   4.754  0.00  0.00     0.085 A 
HETATM    4  C   UNK N   1      24.920  18.567   4.024  0.00  0.00     0.076 A 
HETATM    5  C   UNK N   1      23.684  19.174   3.848  0.00  0.00     0.090 A 
HETATM    6  C   UNK N   1      22.536  18.615   4.420  0.00  0.00     0.075 A 
HETATM    7  C   UNK N   1      22.630  17.426   5.179  0.00  0.00    -0.008 A 
HETATM    8  C   UNK N   1      21.374  16.828   5.771  0.00  0.00     0.119 C 
HETATM    9  C   UNK N   1      20.808  17.574   6.954  0.00  0.00     0.131 C 
HETATM   10  C   UNK N   1      19.936  16.848   7.924  0.00  0.00     0.078 C 
HETATM   11  C   UNK N   1      20.761  15.826   8.684  0.00  0.00     0.007 C 
HETATM   12  C   UNK N   1      19.866  14.734   9.236  0.00  0.00     0.001 C 
HETATM   13  C   UNK N   1      20.667  13.743  10.073  0.00  0.00     0.004 C 
HETATM   14  C   UNK N   1      21.536  12.834   9.213  0.00  0.00     0.027 C 
HETATM   15  C   UNK N   1      22.893  13.430   9.046  0.00  0.00    -0.031 C 
HETATM   16  C   UNK N   1      23.825  12.799   8.337  0.00  0.00    -0.029 C 
HETATM   17  C   UNK N   1      25.161  13.434   8.135  0.00  0.00     0.053 C 
HETATM   18  C   UNK N   1      25.445  13.587   6.647  0.00  0.00     0.183 C 
HETATM   19  O   UNK N   1      23.050  14.926   6.532  0.00  0.00    -0.259 OA
HETATM   20 Cl   UNK N   1      20.979  19.401   4.143  0.00  0.00    -0.081 Cl
HETATM   21  O   UNK N   1      21.033  18.762   7.123  0.00  0.00    -0.298 OA
HETATM   22  O   UNK N   1      25.256  14.884   6.202  0.00  0.00    -0.317 OA
ENDROOT
BRANCH   3  23
HETATM   23  O   UNK N   1      26.260  16.835   4.873  0.00  0.00    -0.360 OA
HETATM   24  H   UNK N   1      26.413  15.934   4.662  0.00  0.00     0.217 HD
ENDBRANCH   3  23
BRANCH   5  25
HETATM   25  O   UNK N   1      23.599  20.298   3.116  0.00  0.00    -0.359 OA
HETATM   26  H   UNK N   1      23.422  21.118   3.533  0.00  0.00     0.217 HD
ENDBRANCH   5  25
TORSDOF 2
ENDMDL
MODEL 3
REMARK VINA RESULT:      -7.2      2.379      5.630
REMARK  2 active torsions:
REMARK  status: ('A' for Active; 'I' for Inactive)
REMARK    1  A    between atoms: C_3  and  O_20 
REMARK    2  A    between atoms: C_5  and  O_21 
ROOT
HETATM    1  C   UNK N   1      23.061  19.285   3.540  0.00  0.00     0.296 C 
HETATM    2  C   UNK N   1      24.553  19.255   3.732  0.00  0.00     0.081 A 
HETATM    3  C   UNK N   1      25.363  20.239   3.108  0.00  0.00     0.085 A 
HETATM    4  C   UNK N   1      26.740  20.255   3.316  0.00  0.00     0.076 A 
HETATM    5  C   UNK N   1      27.349  19.317   4.139  0.00  0.00     0.090 A 
HETATM    6  C   UNK N   1      26.585  18.325   4.763  0.00  0.00     0.075 A 
HETATM    7  C   UNK N   1      25.187  18.274   4.560  0.00  0.00    -0.008 A 
HETATM    8  C   UNK N   1      24.378  17.207   5.260  0.00  0.00     0.119 C 
HETATM    9  C   UNK N   1      24.539  15.814   4.703  0.00  0.00     0.131 C 
HETATM   10  C   UNK N   1      23.457  14.810   4.925  0.00  0.00     0.078 C 
HETATM   11  C   UNK N   1      22.218  15.215   4.149  0.00  0.00     0.007 C 
HETATM   12  C   UNK N   1      20.984  14.581   4.758  0.00  0.00     0.001 C 
HETATM   13  C   UNK N   1      19.741  14.910   3.941  0.00  0.00     0.004 C 
HETATM   14  C   UNK N   1      19.298  16.356   4.125  0.00  0.00     0.027 C 
HETATM   15  C   UNK N   1      19.924  17.220   3.083  0.00  0.00    -0.031 C 
HETATM   16  C   UNK N   1      19.669  18.525   3.046  0.00  0.00    -0.029 C 
HETATM   17  C   UNK N   1      20.345  19.386   2.030  0.00  0.00     0.053 C 
HETATM   18  C   UNK N   1      21.123  20.495   2.723  0.00  0.00     0.183 C 
HETATM   19  O   UNK N   1      22.354  18.480   4.127  0.00  0.00    -0.259 OA
HETATM   20 Cl   UNK N   1      27.395  17.172   5.828  0.00  0.00    -0.081 Cl
HETATM   21  O   UNK N   1      25.544  15.488   4.089  0.00  0.00    -0.298 OA
HETATM   22  O   UNK N   1      22.484  20.242   2.765  0.00  0.00    -0.317 OA
ENDROOT
BRANCH   3  23
HETATM   23  O   UNK N   1      24.827  21.184   2.319  0.00  0.00    -0.360 OA
HETATM   24  H   UNK N   1      24.584  22.025   2.656  0.00  0.00     0.217 HD
ENDBRANCH   3  23
BRANCH   5  25
HETATM   25  O   UNK N   1      28.677  19.376   4.337  0.00  0.00    -0.359 OA
HETATM   26  H   UNK N   1      29.080  20.185   4.583  0.00  0.00     0.217 HD
ENDBRANCH   5  25
TORSDOF 2
ENDMDL
MODEL 4
REMARK VINA RESULT:      -7.2     11.088     12.622
REMARK  2 active torsions:
REMARK  status: ('A' for Active; 'I' for Inactive)
REMARK    1  A    between atoms: C_3  and  O_20 
REMARK    2  A    between atoms: C_5  and  O_21 
ROOT
HETATM    1  C   UNK N   1      27.982  23.096  -5.679  0.00  0.00     0.296 C 
HETATM    2  C   UNK N   1      27.251  22.571  -6.885  0.00  0.00     0.081 A 
HETATM    3  C   UNK N   1      25.860  22.814  -7.024  0.00  0.00     0.085 A 
HETATM    4  C   UNK N   1      25.177  22.378  -8.157  0.00  0.00     0.076 A 
HETATM    5  C   UNK N   1      25.840  21.704  -9.174  0.00  0.00     0.090 A 
HETATM    6  C   UNK N   1      27.209  21.437  -9.068  0.00  0.00     0.075 A 
HETATM    7  C   UNK N   1      27.926  21.855  -7.923  0.00  0.00    -0.008 A 
HETATM    8  C   UNK N   1      29.409  21.574  -7.839  0.00  0.00     0.119 C 
HETATM    9  C   UNK N   1      29.772  20.133  -7.577  0.00  0.00     0.131 C 
HETATM   10  C   UNK N   1      31.095  19.815  -6.963  0.00  0.00     0.078 C 
HETATM   11  C   UNK N   1      31.124  20.312  -5.530  0.00  0.00     0.007 C 
HETATM   12  C   UNK N   1      32.555  20.516  -5.073  0.00  0.00     0.001 C 
HETATM   13  C   UNK N   1      32.606  20.936  -3.609  0.00  0.00     0.004 C 
HETATM   14  C   UNK N   1      32.155  22.377  -3.408  0.00  0.00     0.027 C 
HETATM   15  C   UNK N   1      30.691  22.422  -3.125  0.00  0.00    -0.031 C 
HETATM   16  C   UNK N   1      30.080  23.583  -2.905  0.00  0.00    -0.029 C 
HETATM   17  C   UNK N   1      28.605  23.615  -2.677  0.00  0.00     0.053 C 
HETATM   18  C   UNK N   1      27.938  24.513  -3.710  0.00  0.00     0.183 C 
HETATM   19  O   UNK N   1      29.192  22.947  -5.586  0.00  0.00    -0.259 OA
HETATM   20 Cl   UNK N   1      28.019  20.607 -10.400  0.00  0.00    -0.081 Cl
HETATM   21  O   UNK N   1      29.013  19.223  -7.874  0.00  0.00    -0.298 OA
HETATM   22  O   UNK N   1      27.319  23.793  -4.717  0.00  0.00    -0.317 OA
ENDROOT
BRANCH   3  23
HETATM   23  O   UNK N   1      25.170  23.480  -6.082  0.00  0.00    -0.360 OA
HETATM   24  H   UNK N   1      24.361  23.910  -6.279  0.00  0.00     0.217 HD
ENDBRANCH   3  23
BRANCH   5  25
HETATM   25  O   UNK N   1      25.155  21.319 -10.265  0.00  0.00    -0.359 OA
HETATM   26  H   UNK N   1      24.334  20.878 -10.173  0.00  0.00     0.217 HD
ENDBRANCH   5  25
TORSDOF 2
ENDMDL
MODEL 5
REMARK VINA RESULT:      -7.0     11.726     13.785
REMARK  2 active torsions:
REMARK  status: ('A' for Active; 'I' for Inactive)
REMARK    1  A    between atoms: C_3  and  O_20 
REMARK    2  A    between atoms: C_5  and  O_21 
ROOT
HETATM    1  C   UNK N   1      35.321  14.435  10.737  0.00  0.00     0.296 C 
HETATM    2  C   UNK N   1      34.975  15.321   9.572  0.00  0.00     0.081 A 
HETATM    3  C   UNK N   1      34.886  16.725   9.758  0.00  0.00     0.085 A 
HETATM    4  C   UNK N   1      34.615  17.564   8.681  0.00  0.00     0.076 A 
HETATM    5  C   UNK N   1      34.432  17.050   7.404  0.00  0.00     0.090 A 
HETATM    6  C   UNK N   1      34.501  15.671   7.182  0.00  0.00     0.075 A 
HETATM    7  C   UNK N   1      34.761  14.792   8.259  0.00  0.00    -0.008 A 
HETATM    8  C   UNK N   1      34.852  13.307   7.994  0.00  0.00     0.119 C 
HETATM    9  C   UNK N   1      33.535  12.626   7.717  0.00  0.00     0.131 C 
HETATM   10  C   UNK N   1      33.407  11.158   7.960  0.00  0.00     0.078 C 
HETATM   11  C   UNK N   1      33.489  10.880   9.449  0.00  0.00     0.007 C 
HETATM   12  C   UNK N   1      33.917   9.447   9.694  0.00  0.00     0.001 C 
HETATM   13  C   UNK N   1      33.923   9.126  11.184  0.00  0.00     0.004 C 
HETATM   14  C   UNK N   1      35.094   9.780  11.908  0.00  0.00     0.027 C 
HETATM   15  C   UNK N   1      34.688  11.114  12.437  0.00  0.00    -0.031 C 
HETATM   16  C   UNK N   1      35.553  11.862  13.116  0.00  0.00    -0.029 C 
HETATM   17  C   UNK N   1      35.149  13.218  13.593  0.00  0.00     0.053 C 
HETATM   18  C   UNK N   1      36.094  14.271  13.031  0.00  0.00     0.183 C 
HETATM   19  O   UNK N   1      35.463  13.232  10.567  0.00  0.00    -0.259 OA
HETATM   20 Cl   UNK N   1      34.295  15.063   5.537  0.00  0.00    -0.081 Cl
HETATM   21  O   UNK N   1      32.577  13.247   7.281  0.00  0.00    -0.298 OA
HETATM   22  O   UNK N   1      35.541  14.966  11.969  0.00  0.00    -0.317 OA
ENDROOT
BRANCH   3  23
HETATM   23  O   UNK N   1      35.075  17.281  10.966  0.00  0.00    -0.360 OA
HETATM   24  H   UNK N   1      35.619  18.037  11.079  0.00  0.00     0.217 HD
ENDBRANCH   3  23
BRANCH   5  25
HETATM   25  O   UNK N   1      34.196  17.891   6.382  0.00  0.00    -0.359 OA
HETATM   26  H   UNK N   1      34.742  17.871   5.621  0.00  0.00     0.217 HD
ENDBRANCH   5  25
TORSDOF 2
ENDMDL
MODEL 6
REMARK VINA RESULT:      -7.0      1.858      4.130
REMARK  2 active torsions:
REMARK  status: ('A' for Active; 'I' for Inactive)
REMARK    1  A    between atoms: C_3  and  O_20 
REMARK    2  A    between atoms: C_5  and  O_21 
ROOT
HETATM    1  C   UNK N   1      23.519  16.127   3.846  0.00  0.00     0.296 C 
HETATM    2  C   UNK N   1      22.255  16.799   3.384  0.00  0.00     0.081 A 
HETATM    3  C   UNK N   1      21.238  16.032   2.759  0.00  0.00     0.085 A 
HETATM    4  C   UNK N   1      20.042  16.629   2.370  0.00  0.00     0.076 A 
HETATM    5  C   UNK N   1      19.815  17.981   2.589  0.00  0.00     0.090 A 
HETATM    6  C   UNK N   1      20.797  18.773   3.192  0.00  0.00     0.075 A 
HETATM    7  C   UNK N   1      22.028  18.198   3.585  0.00  0.00    -0.008 A 
HETATM    8  C   UNK N   1      23.068  19.067   4.254  0.00  0.00     0.119 C 
HETATM    9  C   UNK N   1      23.778  20.033   3.339  0.00  0.00     0.131 C 
HETATM   10  C   UNK N   1      25.128  20.543   3.722  0.00  0.00     0.078 C 
HETATM   11  C   UNK N   1      26.134  19.409   3.667  0.00  0.00     0.007 C 
HETATM   12  C   UNK N   1      27.328  19.724   4.548  0.00  0.00     0.001 C 
HETATM   13  C   UNK N   1      28.387  18.633   4.439  0.00  0.00     0.004 C 
HETATM   14  C   UNK N   1      27.974  17.357   5.161  0.00  0.00     0.027 C 
HETATM   15  C   UNK N   1      27.272  16.439   4.218  0.00  0.00    -0.031 C 
HETATM   16  C   UNK N   1      26.829  15.255   4.632  0.00  0.00    -0.029 C 
HETATM   17  C   UNK N   1      26.081  14.371   3.689  0.00  0.00     0.053 C 
HETATM   18  C   UNK N   1      24.705  14.050   4.258  0.00  0.00     0.183 C 
HETATM   19  O   UNK N   1      24.369  16.771   4.443  0.00  0.00    -0.259 OA
HETATM   20 Cl   UNK N   1      20.454  20.481   3.482  0.00  0.00    -0.081 Cl
HETATM   21  O   UNK N   1      23.263  20.420   2.301  0.00  0.00    -0.298 OA
HETATM   22  O   UNK N   1      23.699  14.792   3.661  0.00  0.00    -0.317 OA
ENDROOT
BRANCH   3  23
HETATM   23  O   UNK N   1      21.393  14.715   2.541  0.00  0.00    -0.360 OA
HETATM   24  H   UNK N   1      22.160  14.258   2.827  0.00  0.00     0.217 HD
ENDBRANCH   3  23
BRANCH   5  25
HETATM   25  O   UNK N   1      18.639  18.520   2.223  0.00  0.00    -0.359 OA
HETATM   26  H   UNK N   1      17.922  18.538   2.826  0.00  0.00     0.217 HD
ENDBRANCH   5  25
TORSDOF 2
ENDMDL
MODEL 7
REMARK VINA RESULT:      -6.9      6.315      9.158
REMARK  2 active torsions:
REMARK  status: ('A' for Active; 'I' for Inactive)
REMARK    1  A    between atoms: C_3  and  O_20 
REMARK    2  A    between atoms: C_5  and  O_21 
ROOT
HETATM    1  C   UNK N   1      30.942  16.041   5.040  0.00  0.00     0.296 C 
HETATM    2  C   UNK N   1      30.045  17.012   5.760  0.00  0.00     0.081 A 
HETATM    3  C   UNK N   1      29.054  17.724   5.035  0.00  0.00     0.085 A 
HETATM    4  C   UNK N   1      28.185  18.589   5.693  0.00  0.00     0.076 A 
HETATM    5  C   UNK N   1      28.262  18.771   7.068  0.00  0.00     0.090 A 
HETATM    6  C   UNK N   1      29.232  18.095   7.815  0.00  0.00     0.075 A 
HETATM    7  C   UNK N   1      30.139  17.220   7.173  0.00  0.00    -0.008 A 
HETATM    8  C   UNK N   1      31.166  16.484   8.002  0.00  0.00     0.119 C 
HETATM    9  C   UNK N   1      32.303  17.334   8.513  0.00  0.00     0.131 C 
HETATM   10  C   UNK N   1      33.599  16.683   8.866  0.00  0.00     0.078 C 
HETATM   11  C   UNK N   1      34.265  16.161   7.607  0.00  0.00     0.007 C 
HETATM   12  C   UNK N   1      35.243  15.054   7.949  0.00  0.00     0.001 C 
HETATM   13  C   UNK N   1      35.983  14.575   6.706  0.00  0.00     0.004 C 
HETATM   14  C   UNK N   1      35.093  13.741   5.793  0.00  0.00     0.027 C 
HETATM   15  C   UNK N   1      34.436  14.615   4.778  0.00  0.00    -0.031 C 
HETATM   16  C   UNK N   1      33.619  14.095   3.867  0.00  0.00    -0.029 C 
HETATM   17  C   UNK N   1      32.928  14.990   2.891  0.00  0.00     0.053 C 
HETATM   18  C   UNK N   1      31.420  14.815   3.002  0.00  0.00     0.183 C 
HETATM   19  O   UNK N   1      31.752  15.377   5.670  0.00  0.00    -0.259 OA
HETATM   20 Cl   UNK N   1      29.274  18.329   9.565  0.00  0.00    -0.081 Cl
HETATM   21  O   UNK N   1      32.177  18.540   8.662  0.00  0.00    -0.298 OA
HETATM   22  O   UNK N   1      30.816  15.847   3.700  0.00  0.00    -0.317 OA
ENDROOT
BRANCH   3  23
HETATM   23  O   UNK N   1      28.919  17.573   3.707  0.00  0.00    -0.360 OA
HETATM   24  H   UNK N   1      29.615  17.233   3.179  0.00  0.00     0.217 HD
ENDBRANCH   3  23
BRANCH   5  25
HETATM   25  O   UNK N   1      27.391  19.595   7.674  0.00  0.00    -0.359 OA
HETATM   26  H   UNK N   1      26.808  20.122   7.164  0.00  0.00     0.217 HD
ENDBRANCH   5  25
TORSDOF 2
ENDMDL
MODEL 8
REMARK VINA RESULT:      -6.9     11.686     12.779
REMARK  2 active torsions:
REMARK  status: ('A' for Active; 'I' for Inactive)
REMARK    1  A    between atoms: C_3  and  O_20 
REMARK    2  A    between atoms: C_5  and  O_21 
ROOT
HETATM    1  C   UNK N   1      27.907  22.640  -6.698  0.00  0.00     0.296 C 
HETATM    2  C   UNK N   1      27.154  23.914  -6.422  0.00  0.00     0.081 A 
HETATM    3  C   UNK N   1      26.332  24.477  -7.432  0.00  0.00     0.085 A 
HETATM    4  C   UNK N   1      25.591  25.628  -7.178  0.00  0.00     0.076 A 
HETATM    5  C   UNK N   1      25.634  26.245  -5.934  0.00  0.00     0.090 A 
HETATM    6  C   UNK N   1      26.441  25.725  -4.917  0.00  0.00     0.075 A 
HETATM    7  C   UNK N   1      27.216  24.565  -5.150  0.00  0.00    -0.008 A 
HETATM    8  C   UNK N   1      28.065  24.009  -4.030  0.00  0.00     0.119 C 
HETATM    9  C   UNK N   1      29.303  24.808  -3.709  0.00  0.00     0.131 C 
HETATM   10  C   UNK N   1      30.454  24.133  -3.038  0.00  0.00     0.078 C 
HETATM   11  C   UNK N   1      31.080  23.130  -3.989  0.00  0.00     0.007 C 
HETATM   12  C   UNK N   1      31.840  22.073  -3.213  0.00  0.00     0.001 C 
HETATM   13  C   UNK N   1      32.546  21.106  -4.156  0.00  0.00     0.004 C 
HETATM   14  C   UNK N   1      31.571  20.152  -4.835  0.00  0.00     0.027 C 
HETATM   15  C   UNK N   1      31.120  20.721  -6.138  0.00  0.00    -0.031 C 
HETATM   16  C   UNK N   1      30.269  20.051  -6.910  0.00  0.00    -0.029 C 
HETATM   17  C   UNK N   1      29.786  20.658  -8.185  0.00  0.00     0.053 C 
HETATM   18  C   UNK N   1      28.266  20.749  -8.175  0.00  0.00     0.183 C 
HETATM   19  O   UNK N   1      28.564  22.115  -5.811  0.00  0.00    -0.259 OA
HETATM   20 Cl   UNK N   1      26.440  26.521  -3.340  0.00  0.00    -0.081 Cl
HETATM   21  O   UNK N   1      29.376  25.999  -3.970  0.00  0.00    -0.298 OA
HETATM   22  O   UNK N   1      27.813  22.030  -7.910  0.00  0.00    -0.317 OA
ENDROOT
BRANCH   3  23
HETATM   23  O   UNK N   1      26.235  23.913  -8.647  0.00  0.00    -0.360 OA
HETATM   24  H   UNK N   1      26.981  23.541  -9.076  0.00  0.00     0.217 HD
ENDBRANCH   3  23
BRANCH   5  25
HETATM   25  O   UNK N   1      24.887  27.341  -5.715  0.00  0.00    -0.359 OA
HETATM   26  H   UNK N   1      25.295  28.181  -5.644  0.00  0.00     0.217 HD
ENDBRANCH   5  25
TORSDOF 2
ENDMDL
MODEL 9
REMARK VINA RESULT:      -6.8      5.309      7.420
REMARK  2 active torsions:
REMARK  status: ('A' for Active; 'I' for Inactive)
REMARK    1  A    between atoms: C_3  and  O_20 
REMARK    2  A    between atoms: C_5  and  O_21 
ROOT
HETATM    1  C   UNK N   1      28.570  17.027   6.661  0.00  0.00     0.296 C 
HETATM    2  C   UNK N   1      27.894  16.228   5.580  0.00  0.00     0.081 A 
HETATM    3  C   UNK N   1      26.556  15.793   5.759  0.00  0.00     0.085 A 
HETATM    4  C   UNK N   1      25.900  15.095   4.748  0.00  0.00     0.076 A 
HETATM    5  C   UNK N   1      26.534  14.816   3.545  0.00  0.00     0.090 A 
HETATM    6  C   UNK N   1      27.857  15.220   3.335  0.00  0.00     0.075 A 
HETATM    7  C   UNK N   1      28.554  15.918   4.348  0.00  0.00    -0.008 A 
HETATM    8  C   UNK N   1      29.976  16.362   4.093  0.00  0.00     0.119 C 
HETATM    9  C   UNK N   1      31.003  15.258   4.106  0.00  0.00     0.131 C 
HETATM   10  C   UNK N   1      32.430  15.591   4.393  0.00  0.00     0.078 C 
HETATM   11  C   UNK N   1      32.567  16.035   5.837  0.00  0.00     0.007 C 
HETATM   12  C   UNK N   1      33.813  16.883   6.010  0.00  0.00     0.001 C 
HETATM   13  C   UNK N   1      34.012  17.268   7.471  0.00  0.00     0.004 C 
HETATM   14  C   UNK N   1      33.019  18.329   7.926  0.00  0.00     0.027 C 
HETATM   15  C   UNK N   1      31.807  17.682   8.507  0.00  0.00    -0.031 C 
HETATM   16  C   UNK N   1      30.808  18.421   8.981  0.00  0.00    -0.029 C 
HETATM   17  C   UNK N   1      29.579  17.758   9.510  0.00  0.00     0.053 C 
HETATM   18  C   UNK N   1      28.355  18.246   8.748  0.00  0.00     0.183 C 
HETATM   19  O   UNK N   1      29.699  17.460   6.485  0.00  0.00    -0.259 OA
HETATM   20 Cl   UNK N   1      28.615  14.874   1.778  0.00  0.00    -0.081 Cl
HETATM   21  O   UNK N   1      30.694  14.100   3.868  0.00  0.00    -0.298 OA
HETATM   22  O   UNK N   1      27.911  17.326   7.813  0.00  0.00    -0.317 OA
ENDROOT
BRANCH   3  23
HETATM   23  O   UNK N   1      25.884  16.052   6.893  0.00  0.00    -0.360 OA
HETATM   24  H   UNK N   1      25.841  15.428   7.591  0.00  0.00     0.217 HD
ENDBRANCH   3  23
BRANCH   5  25
HETATM   25  O   UNK N   1      25.863  14.162   2.581  0.00  0.00    -0.359 OA
HETATM   26  H   UNK N   1      25.004  13.828   2.750  0.00  0.00     0.217 HD
ENDBRANCH   5  25
TORSDOF 2
ENDMDL
