REMARK  2 active torsions:
REMARK  status: ('A' for Active; 'I' for Inactive)
REMARK    1  A    between atoms: C_3  and  O_20 
REMARK    2  A    between atoms: C_5  and  O_21 
ROOT
HETATM    1  C   UNK N   1      -1.044  -1.500   0.245  0.00  0.00     0.296 C 
HETATM    2  C   UNK N   1      -2.371  -0.805   0.104  0.00  0.00     0.081 A 
HETATM    3  C   UNK N   1      -3.513  -1.545  -0.298  0.00  0.00     0.085 A 
HETATM    4  C   UNK N   1      -4.758  -0.928  -0.386  0.00  0.00     0.076 A 
HETATM    5  C   UNK N   1      -4.912   0.417  -0.078  0.00  0.00     0.090 A 
HETATM    6  C   UNK N   1      -3.808   1.182   0.312  0.00  0.00     0.075 A 
HETATM    7  C   UNK N   1      -2.528   0.587   0.397  0.00  0.00    -0.008 A 
HETATM    8  C   UNK N   1      -1.352   1.427   0.840  0.00  0.00     0.119 C 
HETATM    9  C   UNK N   1      -0.855   2.420  -0.181  0.00  0.00     0.131 C 
HETATM   10  C   UNK N   1       0.553   2.909  -0.098  0.00  0.00     0.078 C 
HETATM   11  C   UNK N   1       1.506   1.772  -0.416  0.00  0.00     0.007 C 
HETATM   12  C   UNK N   1       2.872   2.049   0.180  0.00  0.00     0.001 C 
HETATM   13  C   UNK N   1       3.865   0.957  -0.201  0.00  0.00     0.004 C 
HETATM   14  C   UNK N   1       3.609  -0.341   0.554  0.00  0.00     0.027 C 
HETATM   15  C   UNK N   1       2.699  -1.222  -0.234  0.00  0.00    -0.031 C 
HETATM   16  C   UNK N   1       2.346  -2.417   0.231  0.00  0.00    -0.029 C 
HETATM   17  C   UNK N   1       1.392  -3.264  -0.545  0.00  0.00     0.053 C 
HETATM   18  C   UNK N   1       0.177  -3.596   0.310  0.00  0.00     0.183 C 
HETATM   19  O   UNK N   1      -0.072  -0.882   0.654  0.00  0.00    -0.259 OA
HETATM   20 Cl   UNK N   1      -4.054   2.881   0.727  0.00  0.00    -0.081 Cl
HETATM   21  O   UNK N   1      -1.587   2.845  -1.062  0.00  0.00    -0.298 OA
HETATM   22  O   UNK N   1      -0.928  -2.829  -0.019  0.00  0.00    -0.317 OA
ENDROOT
BRANCH   3  23
HETATM   23  O   UNK N   1      -3.429  -2.854  -0.588  0.00  0.00    -0.360 OA
HETATM   24  H   UNK N   1      -4.191  -3.361  -0.791  0.00  0.00     0.217 HD
ENDBRANCH   3  23
BRANCH   5  25
HETATM   25  O   UNK N   1      -6.133   0.975  -0.150  0.00  0.00    -0.359 OA
HETATM   26  H   UNK N   1      -6.222   1.906  -0.200  0.00  0.00     0.217 HD
ENDBRANCH   5  25
TORSDOF 2
