MODEL 1
REMARK VINA RESULT:      -8.0      0.000      0.000
REMARK  5 active torsions:
REMARK  status: ('A' for Active; 'I' for Inactive)
REMARK    1  A    between atoms: C_1  and  O_13 
REMARK    2  A    between atoms: C_5  and  O_15 
REMARK    3  A    between atoms: C_8  and  O_13 
REMARK    4  A    between atoms: O_15  and  C_16 
REMARK    5  A    between atoms: C_16  and  C_17 
ROOT
HETATM    1  C   UNK N   1      35.057  10.844  14.871  0.00  0.00     0.061 A 
HETATM    2  C   UNK N   1      34.865  12.187  14.723  0.00  0.00     0.079 A 
HETATM    3  C   UNK N   1      34.886  12.992  15.901  0.00  0.00     0.060 A 
HETATM    4  C   UNK N   1      35.101  12.371  17.170  0.00  0.00     0.049 A 
HETATM    5  C   UNK N   1      35.284  10.990  17.240  0.00  0.00     0.046 A 
HETATM    6  C   UNK N   1      35.261  10.232  16.083  0.00  0.00     0.038 A 
HETATM    7 Cl   UNK N   1      35.478   8.503  16.111  0.00  0.00    -0.084 Cl
HETATM    8  C   UNK N   1      35.142  13.093  18.417  0.00  0.00     0.099 C 
HETATM    9  N   UNK N   1      35.190  13.611  19.454  0.00  0.00    -0.191 NA
ENDROOT
BRANCH   2  10
HETATM   10  O   UNK N   1      34.663  12.708  13.471  0.00  0.00    -0.309 OA
BRANCH  10  11
HETATM   11  C   UNK N   1      35.482  12.963  12.366  0.00  0.00     0.100 A 
HETATM   12  C   UNK N   1      36.176  12.032  11.480  0.00  0.00     0.068 A 
HETATM   13  C   UNK N   1      36.958  12.534  10.432  0.00  0.00     0.029 A 
HETATM   14 Cl   UNK N   1      36.209  10.276  11.468  0.00  0.00    -0.081 Cl
HETATM   15  C   UNK N   1      37.095  13.891  10.185  0.00  0.00     0.038 A 
HETATM   16  C   UNK N   1      36.433  14.799  10.990  0.00  0.00     0.071 A 
HETATM   17  C   UNK N   1      35.646  14.322  12.068  0.00  0.00     0.075 A 
BRANCH  16  18
HETATM   18  O   UNK N   1      36.522  16.131  10.726  0.00  0.00    -0.345 OA
BRANCH  18  19
HETATM   19  C   UNK N   1      35.355  16.848  10.735  0.00  0.00     0.235 C 
BRANCH  19  20
HETATM   20  C   UNK N   1      34.687  17.214   9.463  0.00  0.00     0.062 A 
HETATM   21  N   UNK N   1      34.822  18.313   8.680  0.00  0.00    -0.301 N 
HETATM   22  N   UNK N   1      34.034  18.154   7.612  0.00  0.00    -0.300 N 
ATOM     23  HN  UNK N   1      35.421  19.116   8.871  1.00  0.00     0.186 HD
HETATM   24  C   UNK N   1      33.411  16.962   7.734  0.00  0.00     0.060 A 
HETATM   25  H   UNK N   1      33.925  18.792   6.869  0.00  0.00     0.187 HD
HETATM   26  C   UNK N   1      33.804  16.365   8.883  0.00  0.00     0.018 A 
HETATM   27  C   UNK N   1      32.503  16.348   6.874  0.00  0.00     0.032 A 
HETATM   28  C   UNK N   1      33.337  15.122   9.294  0.00  0.00     0.016 A 
HETATM   29  C   UNK N   1      32.418  14.471   8.461  0.00  0.00     0.001 A 
HETATM   30  C   UNK N   1      32.004  15.078   7.252  0.00  0.00     0.002 A 
ENDBRANCH  19  20
ENDBRANCH  18  19
ENDBRANCH  16  18
ENDBRANCH  10  11
ENDBRANCH   2  10
TORSDOF 5
ENDMDL
MODEL 2
REMARK VINA RESULT:      -8.0      3.864      9.456
REMARK  5 active torsions:
REMARK  status: ('A' for Active; 'I' for Inactive)
REMARK    1  A    between atoms: C_1  and  O_13 
REMARK    2  A    between atoms: C_5  and  O_15 
REMARK    3  A    between atoms: C_8  and  O_13 
REMARK    4  A    between atoms: O_15  and  C_16 
REMARK    5  A    between atoms: C_16  and  C_17 
ROOT
HETATM    1  C   UNK N   1      30.661  17.090   8.410  0.00  0.00     0.061 A 
HETATM    2  C   UNK N   1      31.397  16.377   7.509  0.00  0.00     0.079 A 
HETATM    3  C   UNK N   1      30.925  16.327   6.162  0.00  0.00     0.060 A 
HETATM    4  C   UNK N   1      29.720  17.013   5.817  0.00  0.00     0.049 A 
HETATM    5  C   UNK N   1      29.021  17.717   6.797  0.00  0.00     0.046 A 
HETATM    6  C   UNK N   1      29.500  17.750   8.095  0.00  0.00     0.038 A 
HETATM    7 Cl   UNK N   1      28.666  18.609   9.362  0.00  0.00    -0.084 Cl
HETATM    8  C   UNK N   1      29.160  17.027   4.488  0.00  0.00     0.099 C 
HETATM    9  N   UNK N   1      28.658  17.082   3.444  0.00  0.00    -0.191 NA
ENDROOT
BRANCH   2  10
HETATM   10  O   UNK N   1      32.542  15.745   7.918  0.00  0.00    -0.309 OA
BRANCH  10  11
HETATM   11  C   UNK N   1      33.489  15.972   8.923  0.00  0.00     0.100 A 
HETATM   12  C   UNK N   1      34.385  17.107   9.125  0.00  0.00     0.068 A 
HETATM   13  C   UNK N   1      35.265  17.102  10.215  0.00  0.00     0.029 A 
HETATM   14 Cl   UNK N   1      34.577  18.590   8.204  0.00  0.00    -0.081 Cl
HETATM   15  C   UNK N   1      35.315  16.063  11.131  0.00  0.00     0.038 A 
HETATM   16  C   UNK N   1      34.463  14.984  10.983  0.00  0.00     0.071 A 
HETATM   17  C   UNK N   1      33.573  14.953   9.880  0.00  0.00     0.075 A 
BRANCH  16  18
HETATM   18  O   UNK N   1      34.471  13.982  11.903  0.00  0.00    -0.345 OA
BRANCH  18  19
HETATM   19  C   UNK N   1      35.694  13.546  12.339  0.00  0.00     0.235 C 
BRANCH  19  20
HETATM   20  C   UNK N   1      36.007  13.511  13.788  0.00  0.00     0.062 A 
HETATM   21  N   UNK N   1      36.738  14.360  14.553  0.00  0.00    -0.301 N 
HETATM   22  N   UNK N   1      36.687  13.920  15.815  0.00  0.00    -0.300 N 
ATOM     23  HN  UNK N   1      37.237  15.186  14.224  1.00  0.00     0.186 HD
HETATM   24  C   UNK N   1      35.928  12.803  15.831  0.00  0.00     0.060 A 
HETATM   25  H   UNK N   1      37.125  14.336  16.593  0.00  0.00     0.187 HD
HETATM   26  C   UNK N   1      35.500  12.533  14.576  0.00  0.00     0.018 A 
HETATM   27  C   UNK N   1      35.574  11.992  16.907  0.00  0.00     0.032 A 
HETATM   28  C   UNK N   1      34.696  11.443  14.264  0.00  0.00     0.016 A 
HETATM   29  C   UNK N   1      34.320  10.597  15.316  0.00  0.00     0.001 A 
HETATM   30  C   UNK N   1      34.753  10.871  16.635  0.00  0.00     0.002 A 
ENDBRANCH  19  20
ENDBRANCH  18  19
ENDBRANCH  16  18
ENDBRANCH  10  11
ENDBRANCH   2  10
TORSDOF 5
ENDMDL
MODEL 3
REMARK VINA RESULT:      -7.9     10.553     14.315
REMARK  5 active torsions:
REMARK  status: ('A' for Active; 'I' for Inactive)
REMARK    1  A    between atoms: C_1  and  O_13 
REMARK    2  A    between atoms: C_5  and  O_15 
REMARK    3  A    between atoms: C_8  and  O_13 
REMARK    4  A    between atoms: O_15  and  C_16 
REMARK    5  A    between atoms: C_16  and  C_17 
ROOT
HETATM    1  C   UNK N   1      22.278  15.530   6.163  0.00  0.00     0.061 A 
HETATM    2  C   UNK N   1      21.730  16.673   5.657  0.00  0.00     0.079 A 
HETATM    3  C   UNK N   1      20.789  17.372   6.472  0.00  0.00     0.060 A 
HETATM    4  C   UNK N   1      20.462  16.856   7.764  0.00  0.00     0.049 A 
HETATM    5  C   UNK N   1      21.063  15.678   8.209  0.00  0.00     0.046 A 
HETATM    6  C   UNK N   1      21.972  15.020   7.400  0.00  0.00     0.038 A 
HETATM    7 Cl   UNK N   1      22.749  13.542   7.901  0.00  0.00    -0.084 Cl
HETATM    8  C   UNK N   1      19.528  17.486   8.664  0.00  0.00     0.099 C 
HETATM    9  N   UNK N   1      18.793  17.940   9.437  0.00  0.00    -0.191 NA
ENDROOT
BRANCH   2  10
HETATM   10  O   UNK N   1      22.093  17.104   4.407  0.00  0.00    -0.309 OA
BRANCH  10  11
HETATM   11  C   UNK N   1      22.616  18.293   3.889  0.00  0.00     0.100 A 
HETATM   12  C   UNK N   1      21.927  19.457   3.338  0.00  0.00     0.068 A 
HETATM   13  C   UNK N   1      22.680  20.539   2.863  0.00  0.00     0.029 A 
HETATM   14 Cl   UNK N   1      20.213  19.789   3.155  0.00  0.00    -0.081 Cl
HETATM   15  C   UNK N   1      24.065  20.563   2.905  0.00  0.00     0.038 A 
HETATM   16  C   UNK N   1      24.748  19.487   3.442  0.00  0.00     0.071 A 
HETATM   17  C   UNK N   1      24.015  18.371   3.916  0.00  0.00     0.075 A 
BRANCH  16  18
HETATM   18  O   UNK N   1      26.105  19.521   3.532  0.00  0.00    -0.345 OA
BRANCH  18  19
HETATM   19  C   UNK N   1      26.651  20.459   4.369  0.00  0.00     0.235 C 
BRANCH  19  20
HETATM   20  C   UNK N   1      26.982  20.111   5.772  0.00  0.00     0.062 A 
HETATM   21  N   UNK N   1      26.457  20.561   6.939  0.00  0.00    -0.301 N 
HETATM   22  N   UNK N   1      27.063  19.909   7.938  0.00  0.00    -0.300 N 
ATOM     23  HN  UNK N   1      25.730  21.268   7.038  1.00  0.00     0.186 HD
HETATM   24  C   UNK N   1      27.960  19.061   7.391  0.00  0.00     0.060 A 
HETATM   25  H   UNK N   1      26.887  20.027   8.900  0.00  0.00     0.187 HD
HETATM   26  C   UNK N   1      27.925  19.177   6.043  0.00  0.00     0.018 A 
HETATM   27  C   UNK N   1      28.823  18.164   8.017  0.00  0.00     0.032 A 
HETATM   28  C   UNK N   1      28.735  18.433   5.193  0.00  0.00     0.016 A 
HETATM   29  C   UNK N   1      29.622  17.522   5.781  0.00  0.00     0.001 A 
HETATM   30  C   UNK N   1      29.665  17.383   7.189  0.00  0.00     0.002 A 
ENDBRANCH  19  20
ENDBRANCH  18  19
ENDBRANCH  16  18
ENDBRANCH  10  11
ENDBRANCH   2  10
TORSDOF 5
ENDMDL
MODEL 4
REMARK VINA RESULT:      -7.9      1.641      2.011
REMARK  5 active torsions:
REMARK  status: ('A' for Active; 'I' for Inactive)
REMARK    1  A    between atoms: C_1  and  O_13 
REMARK    2  A    between atoms: C_5  and  O_15 
REMARK    3  A    between atoms: C_8  and  O_13 
REMARK    4  A    between atoms: O_15  and  C_16 
REMARK    5  A    between atoms: C_16  and  C_17 
ROOT
HETATM    1  C   UNK N   1      34.901  13.214  15.942  0.00  0.00     0.061 A 
HETATM    2  C   UNK N   1      34.778  12.316  14.922  0.00  0.00     0.079 A 
HETATM    3  C   UNK N   1      34.870  10.929  15.247  0.00  0.00     0.060 A 
HETATM    4  C   UNK N   1      35.088  10.541  16.605  0.00  0.00     0.049 A 
HETATM    5  C   UNK N   1      35.208  11.520  17.591  0.00  0.00     0.046 A 
HETATM    6  C   UNK N   1      35.113  12.858  17.250  0.00  0.00     0.038 A 
HETATM    7 Cl   UNK N   1      35.262  14.123  18.439  0.00  0.00    -0.084 Cl
HETATM    8  C   UNK N   1      35.195   9.170  17.038  0.00  0.00     0.099 C 
HETATM    9  N   UNK N   1      35.286   8.092  17.454  0.00  0.00    -0.191 NA
ENDROOT
BRANCH   2  10
HETATM   10  O   UNK N   1      34.572  12.767  13.643  0.00  0.00    -0.309 OA
BRANCH  10  11
HETATM   11  C   UNK N   1      35.384  12.945  12.518  0.00  0.00     0.100 A 
HETATM   12  C   UNK N   1      36.049  11.953  11.677  0.00  0.00     0.068 A 
HETATM   13  C   UNK N   1      36.830  12.382  10.597  0.00  0.00     0.029 A 
HETATM   14 Cl   UNK N   1      36.047  10.199  11.760  0.00  0.00    -0.081 Cl
HETATM   15  C   UNK N   1      36.992  13.721  10.275  0.00  0.00     0.038 A 
HETATM   16  C   UNK N   1      36.356  14.685  11.036  0.00  0.00     0.071 A 
HETATM   17  C   UNK N   1      35.572  14.282  12.146  0.00  0.00     0.075 A 
BRANCH  16  18
HETATM   18  O   UNK N   1      36.470  15.998  10.700  0.00  0.00    -0.345 OA
BRANCH  18  19
HETATM   19  C   UNK N   1      35.322  16.747  10.717  0.00  0.00     0.235 C 
BRANCH  19  20
HETATM   20  C   UNK N   1      34.665  17.143   9.448  0.00  0.00     0.062 A 
HETATM   21  N   UNK N   1      34.811  18.258   8.690  0.00  0.00    -0.301 N 
HETATM   22  N   UNK N   1      34.029  18.126   7.613  0.00  0.00    -0.300 N 
ATOM     23  HN  UNK N   1      35.411  19.055   8.902  1.00  0.00     0.186 HD
HETATM   24  C   UNK N   1      33.400  16.934   7.705  0.00  0.00     0.060 A 
HETATM   25  H   UNK N   1      33.929  18.781   6.884  0.00  0.00     0.187 HD
HETATM   26  C   UNK N   1      33.783  16.311   8.844  0.00  0.00     0.018 A 
HETATM   27  C   UNK N   1      32.496  16.343   6.825  0.00  0.00     0.032 A 
HETATM   28  C   UNK N   1      33.308  15.061   9.224  0.00  0.00     0.016 A 
HETATM   29  C   UNK N   1      32.392  14.432   8.371  0.00  0.00     0.001 A 
HETATM   30  C   UNK N   1      31.989  15.067   7.172  0.00  0.00     0.002 A 
ENDBRANCH  19  20
ENDBRANCH  18  19
ENDBRANCH  16  18
ENDBRANCH  10  11
ENDBRANCH   2  10
TORSDOF 5
ENDMDL
MODEL 5
REMARK VINA RESULT:      -7.7      3.777      9.543
REMARK  5 active torsions:
REMARK  status: ('A' for Active; 'I' for Inactive)
REMARK    1  A    between atoms: C_1  and  O_13 
REMARK    2  A    between atoms: C_5  and  O_15 
REMARK    3  A    between atoms: C_8  and  O_13 
REMARK    4  A    between atoms: O_15  and  C_16 
REMARK    5  A    between atoms: C_16  and  C_17 
ROOT
HETATM    1  C   UNK N   1      32.720  15.937   5.609  0.00  0.00     0.061 A 
HETATM    2  C   UNK N   1      32.072  15.908   6.810  0.00  0.00     0.079 A 
HETATM    3  C   UNK N   1      30.809  16.567   6.896  0.00  0.00     0.060 A 
HETATM    4  C   UNK N   1      30.281  17.224   5.742  0.00  0.00     0.049 A 
HETATM    5  C   UNK N   1      31.007  17.214   4.551  0.00  0.00     0.046 A 
HETATM    6  C   UNK N   1      32.228  16.566   4.493  0.00  0.00     0.038 A 
HETATM    7 Cl   UNK N   1      33.180  16.526   3.033  0.00  0.00    -0.084 Cl
HETATM    8  C   UNK N   1      29.017  17.916   5.723  0.00  0.00     0.099 C 
HETATM    9  N   UNK N   1      28.010  18.485   5.638  0.00  0.00    -0.191 NA
ENDROOT
BRANCH   2  10
HETATM   10  O   UNK N   1      32.644  15.257   7.873  0.00  0.00    -0.309 OA
BRANCH  10  11
HETATM   11  C   UNK N   1      33.526  15.625   8.894  0.00  0.00     0.100 A 
HETATM   12  C   UNK N   1      34.307  16.848   9.062  0.00  0.00     0.068 A 
HETATM   13  C   UNK N   1      35.141  16.983  10.180  0.00  0.00     0.029 A 
HETATM   14 Cl   UNK N   1      34.399  18.290   8.065  0.00  0.00    -0.081 Cl
HETATM   15  C   UNK N   1      35.249  16.004  11.154  0.00  0.00     0.038 A 
HETATM   16  C   UNK N   1      34.505  14.844  11.039  0.00  0.00     0.071 A 
HETATM   17  C   UNK N   1      33.665  14.671   9.911  0.00  0.00     0.075 A 
BRANCH  16  18
HETATM   18  O   UNK N   1      34.568  13.897  12.015  0.00  0.00    -0.345 OA
BRANCH  18  19
HETATM   19  C   UNK N   1      35.814  13.553  12.469  0.00  0.00     0.235 C 
BRANCH  19  20
HETATM   20  C   UNK N   1      36.161  13.711  13.902  0.00  0.00     0.062 A 
HETATM   21  N   UNK N   1      36.868  14.680  14.536  0.00  0.00    -0.301 N 
HETATM   22  N   UNK N   1      36.868  14.398  15.843  0.00  0.00    -0.300 N 
ATOM     23  HN  UNK N   1      37.318  15.482  14.095  1.00  0.00     0.186 HD
HETATM   24  C   UNK N   1      36.165  13.258  16.018  0.00  0.00     0.060 A 
HETATM   25  H   UNK N   1      37.303  14.926  16.552  0.00  0.00     0.187 HD
HETATM   26  C   UNK N   1      35.721  12.816  14.818  0.00  0.00     0.018 A 
HETATM   27  C   UNK N   1      35.875  12.570  17.194  0.00  0.00     0.032 A 
HETATM   28  C   UNK N   1      34.964  11.659  14.665  0.00  0.00     0.016 A 
HETATM   29  C   UNK N   1      34.655  10.934  15.822  0.00  0.00     0.001 A 
HETATM   30  C   UNK N   1      35.105  11.388  17.085  0.00  0.00     0.002 A 
ENDBRANCH  19  20
ENDBRANCH  18  19
ENDBRANCH  16  18
ENDBRANCH  10  11
ENDBRANCH   2  10
TORSDOF 5
ENDMDL
MODEL 6
REMARK VINA RESULT:      -7.7      8.296     12.074
REMARK  5 active torsions:
REMARK  status: ('A' for Active; 'I' for Inactive)
REMARK    1  A    between atoms: C_1  and  O_13 
REMARK    2  A    between atoms: C_5  and  O_15 
REMARK    3  A    between atoms: C_8  and  O_13 
REMARK    4  A    between atoms: O_15  and  C_16 
REMARK    5  A    between atoms: C_16  and  C_17 
ROOT
HETATM    1  C   UNK N   1      29.288  17.415   7.859  0.00  0.00     0.061 A 
HETATM    2  C   UNK N   1      29.583  16.847   6.655  0.00  0.00     0.079 A 
HETATM    3  C   UNK N   1      30.950  16.847   6.241  0.00  0.00     0.060 A 
HETATM    4  C   UNK N   1      31.938  17.436   7.089  0.00  0.00     0.049 A 
HETATM    5  C   UNK N   1      31.555  18.002   8.304  0.00  0.00     0.046 A 
HETATM    6  C   UNK N   1      30.224  17.988   8.683  0.00  0.00     0.038 A 
HETATM    7 Cl   UNK N   1      29.687  18.686  10.187  0.00  0.00    -0.084 Cl
HETATM    8  C   UNK N   1      33.342  17.486   6.765  0.00  0.00     0.099 C 
HETATM    9  N   UNK N   1      34.483  17.558   6.570  0.00  0.00    -0.191 NA
ENDROOT
BRANCH   2  10
HETATM   10  O   UNK N   1      28.579  16.303   5.896  0.00  0.00    -0.309 OA
BRANCH  10  11
HETATM   11  C   UNK N   1      27.290  16.707   5.532  0.00  0.00     0.100 A 
HETATM   12  C   UNK N   1      26.849  17.908   4.829  0.00  0.00     0.068 A 
HETATM   13  C   UNK N   1      25.483  18.100   4.586  0.00  0.00     0.029 A 
HETATM   14 Cl   UNK N   1      27.771  19.251   4.172  0.00  0.00    -0.081 Cl
HETATM   15  C   UNK N   1      24.519  17.182   4.973  0.00  0.00     0.038 A 
HETATM   16  C   UNK N   1      24.904  16.023   5.620  0.00  0.00     0.071 A 
HETATM   17  C   UNK N   1      26.278  15.809   5.894  0.00  0.00     0.075 A 
BRANCH  16  18
HETATM   18  O   UNK N   1      23.970  15.094   5.961  0.00  0.00    -0.345 OA
BRANCH  18  19
HETATM   19  C   UNK N   1      24.264  14.275   7.020  0.00  0.00     0.235 C 
BRANCH  19  20
HETATM   20  C   UNK N   1      23.191  13.814   7.933  0.00  0.00     0.062 A 
HETATM   21  N   UNK N   1      21.842  13.844   7.796  0.00  0.00    -0.301 N 
HETATM   22  N   UNK N   1      21.307  13.266   8.877  0.00  0.00    -0.300 N 
ATOM     23  HN  UNK N   1      21.327  14.236   7.008  1.00  0.00     0.186 HD
HETATM   24  C   UNK N   1      22.321  12.881   9.681  0.00  0.00     0.060 A 
HETATM   25  H   UNK N   1      20.346  13.144   9.055  0.00  0.00     0.187 HD
HETATM   26  C   UNK N   1      23.501  13.217   9.110  0.00  0.00     0.018 A 
HETATM   27  C   UNK N   1      22.274  12.228  10.912  0.00  0.00     0.032 A 
HETATM   28  C   UNK N   1      24.734  12.954   9.696  0.00  0.00     0.016 A 
HETATM   29  C   UNK N   1      24.732  12.304  10.937  0.00  0.00     0.001 A 
HETATM   30  C   UNK N   1      23.507  11.938  11.543  0.00  0.00     0.002 A 
ENDBRANCH  19  20
ENDBRANCH  18  19
ENDBRANCH  16  18
ENDBRANCH  10  11
ENDBRANCH   2  10
TORSDOF 5
ENDMDL
MODEL 7
REMARK VINA RESULT:      -7.6      7.975     11.677
REMARK  5 active torsions:
REMARK  status: ('A' for Active; 'I' for Inactive)
REMARK    1  A    between atoms: C_1  and  O_13 
REMARK    2  A    between atoms: C_5  and  O_15 
REMARK    3  A    between atoms: C_8  and  O_13 
REMARK    4  A    between atoms: O_15  and  C_16 
REMARK    5  A    between atoms: C_16  and  C_17 
ROOT
HETATM    1  C   UNK N   1      31.140  16.904   5.411  0.00  0.00     0.061 A 
HETATM    2  C   UNK N   1      30.763  17.151   6.699  0.00  0.00     0.079 A 
HETATM    3  C   UNK N   1      31.758  17.645   7.596  0.00  0.00     0.060 A 
HETATM    4  C   UNK N   1      33.088  17.857   7.118  0.00  0.00     0.049 A 
HETATM    5  C   UNK N   1      33.396  17.576   5.787  0.00  0.00     0.046 A 
HETATM    6  C   UNK N   1      32.413  17.099   4.938  0.00  0.00     0.038 A 
HETATM    7 Cl   UNK N   1      32.742  16.726   3.267  0.00  0.00    -0.084 Cl
HETATM    8  C   UNK N   1      34.164  18.353   7.940  0.00  0.00     0.099 C 
HETATM    9  N   UNK N   1      35.071  18.752   8.542  0.00  0.00    -0.191 NA
ENDROOT
BRANCH   2  10
HETATM   10  O   UNK N   1      29.467  16.921   7.082  0.00  0.00    -0.309 OA
BRANCH  10  11
HETATM   11  C   UNK N   1      28.233  16.906   6.424  0.00  0.00     0.100 A 
HETATM   12  C   UNK N   1      27.559  17.962   5.673  0.00  0.00     0.068 A 
HETATM   13  C   UNK N   1      26.304  17.708   5.105  0.00  0.00     0.029 A 
HETATM   14 Cl   UNK N   1      28.063  19.604   5.308  0.00  0.00    -0.081 Cl
HETATM   15  C   UNK N   1      25.669  16.480   5.212  0.00  0.00     0.038 A 
HETATM   16  C   UNK N   1      26.290  15.451   5.896  0.00  0.00     0.071 A 
HETATM   17  C   UNK N   1      27.553  15.683   6.495  0.00  0.00     0.075 A 
BRANCH  16  18
HETATM   18  O   UNK N   1      25.697  14.228   5.966  0.00  0.00    -0.345 OA
BRANCH  18  19
HETATM   19  C   UNK N   1      25.436  13.733   7.217  0.00  0.00     0.235 C 
BRANCH  19  20
HETATM   20  C   UNK N   1      24.072  13.819   7.790  0.00  0.00     0.062 A 
HETATM   21  N   UNK N   1      22.943  14.389   7.298  0.00  0.00    -0.301 N 
HETATM   22  N   UNK N   1      21.956  14.161   8.171  0.00  0.00    -0.300 N 
ATOM     23  HN  UNK N   1      22.862  14.900   6.419  1.00  0.00     0.186 HD
HETATM   24  C   UNK N   1      22.471  13.454   9.200  0.00  0.00     0.060 A 
HETATM   25  H   UNK N   1      21.021  14.457   8.081  0.00  0.00     0.187 HD
HETATM   26  C   UNK N   1      23.789  13.235   8.979  0.00  0.00     0.018 A 
HETATM   27  C   UNK N   1      21.840  12.970  10.343  0.00  0.00     0.032 A 
HETATM   28  C   UNK N   1      24.602  12.533   9.861  0.00  0.00     0.016 A 
HETATM   29  C   UNK N   1      24.009  12.033  11.027  0.00  0.00     0.001 A 
HETATM   30  C   UNK N   1      22.630  12.246  11.268  0.00  0.00     0.002 A 
ENDBRANCH  19  20
ENDBRANCH  18  19
ENDBRANCH  16  18
ENDBRANCH  10  11
ENDBRANCH   2  10
TORSDOF 5
ENDMDL
MODEL 8
REMARK VINA RESULT:      -7.6     12.226     15.815
REMARK  5 active torsions:
REMARK  status: ('A' for Active; 'I' for Inactive)
REMARK    1  A    between atoms: C_1  and  O_13 
REMARK    2  A    between atoms: C_5  and  O_15 
REMARK    3  A    between atoms: C_8  and  O_13 
REMARK    4  A    between atoms: O_15  and  C_16 
REMARK    5  A    between atoms: C_16  and  C_17 
ROOT
HETATM    1  C   UNK N   1      21.640  18.939   3.782  0.00  0.00     0.061 A 
HETATM    2  C   UNK N   1      22.532  18.263   4.564  0.00  0.00     0.079 A 
HETATM    3  C   UNK N   1      23.904  18.649   4.486  0.00  0.00     0.060 A 
HETATM    4  C   UNK N   1      24.286  19.707   3.605  0.00  0.00     0.049 A 
HETATM    5  C   UNK N   1      23.315  20.346   2.834  0.00  0.00     0.046 A 
HETATM    6  C   UNK N   1      21.991  19.955   2.929  0.00  0.00     0.038 A 
HETATM    7 Cl   UNK N   1      20.737  20.714   1.985  0.00  0.00    -0.084 Cl
HETATM    8  C   UNK N   1      25.642  20.173   3.454  0.00  0.00     0.099 C 
HETATM    9  N   UNK N   1      26.708  20.598   3.286  0.00  0.00    -0.191 NA
ENDROOT
BRANCH   2  10
HETATM   10  O   UNK N   1      22.089  17.258   5.383  0.00  0.00    -0.309 OA
BRANCH  10  11
HETATM   11  C   UNK N   1      22.111  15.860   5.329  0.00  0.00     0.100 A 
HETATM   12  C   UNK N   1      21.268  14.939   4.571  0.00  0.00     0.068 A 
HETATM   13  C   UNK N   1      21.478  13.559   4.691  0.00  0.00     0.029 A 
HETATM   14 Cl   UNK N   1      19.955  15.253   3.448  0.00  0.00    -0.081 Cl
HETATM   15  C   UNK N   1      22.471  13.021   5.494  0.00  0.00     0.038 A 
HETATM   16  C   UNK N   1      23.303  13.865   6.206  0.00  0.00     0.071 A 
HETATM   17  C   UNK N   1      23.104  15.266   6.118  0.00  0.00     0.075 A 
BRANCH  16  18
HETATM   18  O   UNK N   1      24.311  13.348   6.959  0.00  0.00    -0.345 OA
BRANCH  18  19
HETATM   19  C   UNK N   1      24.596  13.983   8.140  0.00  0.00     0.235 C 
BRANCH  19  20
HETATM   20  C   UNK N   1      24.458  13.267   9.431  0.00  0.00     0.062 A 
HETATM   21  N   UNK N   1      25.401  12.812  10.292  0.00  0.00    -0.301 N 
HETATM   22  N   UNK N   1      24.772  12.272  11.341  0.00  0.00    -0.300 N 
ATOM     23  HN  UNK N   1      26.411  12.872  10.163  1.00  0.00     0.186 HD
HETATM   24  C   UNK N   1      23.443  12.391  11.129  0.00  0.00     0.060 A 
HETATM   25  H   UNK N   1      25.200  11.860  12.127  0.00  0.00     0.187 HD
HETATM   26  C   UNK N   1      23.231  13.006   9.943  0.00  0.00     0.018 A 
HETATM   27  C   UNK N   1      22.381  11.991  11.937  0.00  0.00     0.032 A 
HETATM   28  C   UNK N   1      21.963  13.274   9.440  0.00  0.00     0.016 A 
HETATM   29  C   UNK N   1      20.865  12.884  10.218  0.00  0.00     0.001 A 
HETATM   30  C   UNK N   1      21.071  12.247  11.465  0.00  0.00     0.002 A 
ENDBRANCH  19  20
ENDBRANCH  18  19
ENDBRANCH  16  18
ENDBRANCH  10  11
ENDBRANCH   2  10
TORSDOF 5
ENDMDL
MODEL 9
REMARK VINA RESULT:      -7.6      1.934      2.464
REMARK  5 active torsions:
REMARK  status: ('A' for Active; 'I' for Inactive)
REMARK    1  A    between atoms: C_1  and  O_13 
REMARK    2  A    between atoms: C_5  and  O_15 
REMARK    3  A    between atoms: C_8  and  O_13 
REMARK    4  A    between atoms: O_15  and  C_16 
REMARK    5  A    between atoms: C_16  and  C_17 
ROOT
HETATM    1  C   UNK N   1      34.988  10.551  15.238  0.00  0.00     0.061 A 
HETATM    2  C   UNK N   1      34.695  11.883  15.175  0.00  0.00     0.079 A 
HETATM    3  C   UNK N   1      34.778  12.637  16.384  0.00  0.00     0.060 A 
HETATM    4  C   UNK N   1      35.157  11.978  17.595  0.00  0.00     0.049 A 
HETATM    5  C   UNK N   1      35.436  10.612  17.579  0.00  0.00     0.046 A 
HETATM    6  C   UNK N   1      35.349   9.904  16.393  0.00  0.00     0.038 A 
HETATM    7 Cl   UNK N   1      35.681   8.194  16.314  0.00  0.00    -0.084 Cl
HETATM    8  C   UNK N   1      35.272  12.647  18.867  0.00  0.00     0.099 C 
HETATM    9  N   UNK N   1      35.387  13.122  19.919  0.00  0.00    -0.191 NA
ENDROOT
BRANCH   2  10
HETATM   10  O   UNK N   1      34.338  12.442  13.975  0.00  0.00    -0.309 OA
BRANCH  10  11
HETATM   11  C   UNK N   1      35.017  13.151  12.978  0.00  0.00     0.100 A 
HETATM   12  C   UNK N   1      36.032  14.194  13.096  0.00  0.00     0.068 A 
HETATM   13  C   UNK N   1      36.564  14.771  11.936  0.00  0.00     0.029 A 
HETATM   14 Cl   UNK N   1      36.776  14.907  14.518  0.00  0.00    -0.081 Cl
HETATM   15  C   UNK N   1      36.177  14.382  10.663  0.00  0.00     0.038 A 
HETATM   16  C   UNK N   1      35.236  13.380  10.514  0.00  0.00     0.071 A 
HETATM   17  C   UNK N   1      34.667  12.789  11.670  0.00  0.00     0.075 A 
BRANCH  16  18
HETATM   18  O   UNK N   1      34.885  12.958   9.269  0.00  0.00    -0.345 OA
BRANCH  18  19
HETATM   19  C   UNK N   1      33.571  13.106   8.908  0.00  0.00     0.235 C 
BRANCH  19  20
HETATM   20  C   UNK N   1      32.936  14.446   8.915  0.00  0.00     0.062 A 
HETATM   21  N   UNK N   1      32.062  15.003   9.791  0.00  0.00    -0.301 N 
HETATM   22  N   UNK N   1      31.818  16.254   9.385  0.00  0.00    -0.300 N 
ATOM     23  HN  UNK N   1      31.663  14.549  10.612  1.00  0.00     0.186 HD
HETATM   24  C   UNK N   1      32.537  16.470   8.263  0.00  0.00     0.060 A 
HETATM   25  H   UNK N   1      31.221  16.901   9.826  0.00  0.00     0.187 HD
HETATM   26  C   UNK N   1      33.236  15.353   7.955  0.00  0.00     0.018 A 
HETATM   27  C   UNK N   1      32.626  17.618   7.478  0.00  0.00     0.032 A 
HETATM   28  C   UNK N   1      34.074  15.259   6.850  0.00  0.00     0.016 A 
HETATM   29  C   UNK N   1      34.189  16.389   6.030  0.00  0.00     0.001 A 
HETATM   30  C   UNK N   1      33.470  17.568   6.343  0.00  0.00     0.002 A 
ENDBRANCH  19  20
ENDBRANCH  18  19
ENDBRANCH  16  18
ENDBRANCH  10  11
ENDBRANCH   2  10
TORSDOF 5
ENDMDL
