REMARK  5 active torsions:
REMARK  status: ('A' for Active; 'I' for Inactive)
REMARK    1  A    between atoms: C_1  and  S_7 
REMARK    2  A    between atoms: C_4  and  C_11 
REMARK    3  A    between atoms: S_7  and  N_10 
REMARK    4  A    between atoms: C_11  and  C_12 
REMARK    5  A    between atoms: C_12  and  N_13 
REMARK       I    between atoms: N_13  and  C_14 
ROOT
HETATM    1  C   UNK N   1      -1.608  -1.505   0.287  0.00  0.00     0.079 A 
HETATM    2  C   UNK N   1      -0.495  -1.923  -0.446  0.00  0.00     0.026 A 
HETATM    3  C   UNK N   1       0.569  -1.054  -0.656  0.00  0.00     0.009 A 
HETATM    4  C   UNK N   1       0.545   0.244  -0.125  0.00  0.00    -0.057 A 
HETATM    5  C   UNK N   1      -0.572   0.664   0.611  0.00  0.00     0.009 A 
HETATM    6  C   UNK N   1      -1.648  -0.209   0.817  0.00  0.00     0.026 A 
ENDROOT
BRANCH   4   7
HETATM    7  C   UNK N   1       1.713   1.180  -0.295  0.00  0.00     0.058 C 
BRANCH   7   8
HETATM    8  C   UNK N   1       2.910   0.578  -1.037  0.00  0.00     0.127 C 
BRANCH   8   9
HETATM    9  N   UNK N   1       3.389  -0.598  -0.344  0.00  0.00    -0.361 N 
HETATM   10  C   UNK N   1       4.659  -0.729   0.099  0.00  0.00     0.213 C 
HETATM   11  O   UNK N   1       4.988  -1.750   0.682  0.00  0.00    -0.274 OA
HETATM   12  C   UNK N   1       5.672   0.350  -0.112  0.00  0.00     0.117 C 
HETATM   13  H   UNK N   1       2.760  -1.339  -0.188  0.00  0.00     0.162 HD
ENDBRANCH   8   9
ENDBRANCH   7   8
ENDBRANCH   4   7
BRANCH   1  14
HETATM   14  S   UNK N   1      -2.948  -2.657   0.567  0.00  0.00     0.256 S 
HETATM   15  O   UNK N   1      -4.417  -2.283   0.812  0.00  0.00    -0.201 OA
HETATM   16  O   UNK N   1      -2.887  -4.101   0.049  0.00  0.00    -0.201 OA
BRANCH  14  17
HETATM   17  N   UNK N   1      -3.301  -2.219  -1.106  0.00  0.00    -0.324 N 
HETATM   18  H   UNK N   1      -3.184  -1.917  -2.073  0.00  0.00     0.169 HD
HETATM   19  H   UNK N   1      -4.309  -2.376  -1.106  0.00  0.00     0.169 HD
ENDBRANCH  14  17
ENDBRANCH   1  14
TORSDOF 5
