MODEL 1
REMARK VINA RESULT:      -5.7      0.000      0.000
REMARK  5 active torsions:
REMARK  status: ('A' for Active; 'I' for Inactive)
REMARK    1  A    between atoms: C_1  and  S_7 
REMARK    2  A    between atoms: C_4  and  C_11 
REMARK    3  A    between atoms: S_7  and  N_10 
REMARK    4  A    between atoms: C_11  and  C_12 
REMARK    5  A    between atoms: C_12  and  N_13 
REMARK       I    between atoms: N_13  and  C_14 
ROOT
HETATM    1  C   UNK N   1      32.410  17.674   7.581  0.00  0.00     0.079 A 
HETATM    2  C   UNK N   1      31.630  18.035   8.682  0.00  0.00     0.026 A 
HETATM    3  C   UNK N   1      30.249  17.881   8.640  0.00  0.00     0.009 A 
HETATM    4  C   UNK N   1      29.625  17.350   7.501  0.00  0.00    -0.057 A 
HETATM    5  C   UNK N   1      30.408  16.988   6.396  0.00  0.00     0.009 A 
HETATM    6  C   UNK N   1      31.799  17.150   6.435  0.00  0.00     0.026 A 
ENDROOT
BRANCH   4   7
HETATM    7  C   UNK N   1      28.137  17.124   7.460  0.00  0.00     0.058 C 
BRANCH   7   8
HETATM    8  C   UNK N   1      27.413  17.851   6.322  0.00  0.00     0.127 C 
BRANCH   8   9
HETATM    9  N   UNK N   1      27.160  19.227   6.688  0.00  0.00    -0.361 N 
HETATM   10  C   UNK N   1      27.414  20.269   5.865  0.00  0.00     0.213 C 
HETATM   11  O   UNK N   1      27.168  21.404   6.242  0.00  0.00    -0.274 OA
HETATM   12  C   UNK N   1      27.994  20.062   4.503  0.00  0.00     0.117 C 
HETATM   13  H   UNK N   1      26.785  19.414   7.578  0.00  0.00     0.162 HD
ENDBRANCH   8   9
ENDBRANCH   7   8
ENDBRANCH   4   7
BRANCH   1  14
HETATM   14  S   UNK N   1      34.187  17.855   7.677  0.00  0.00     0.256 S 
HETATM   15  O   UNK N   1      34.936  19.027   8.328  0.00  0.00    -0.201 OA
HETATM   16  O   UNK N   1      35.122  16.638   7.629  0.00  0.00    -0.201 OA
BRANCH  14  17
HETATM   17  N   UNK N   1      33.865  17.368   9.342  0.00  0.00    -0.324 N 
HETATM   18  H   UNK N   1      33.422  17.278  10.256  0.00  0.00     0.169 HD
HETATM   19  H   UNK N   1      34.672  16.762   9.493  0.00  0.00     0.169 HD
ENDBRANCH  14  17
ENDBRANCH   1  14
TORSDOF 5
ENDMDL
MODEL 2
REMARK VINA RESULT:      -5.5     11.991     13.900
REMARK  5 active torsions:
REMARK  status: ('A' for Active; 'I' for Inactive)
REMARK    1  A    between atoms: C_1  and  S_7 
REMARK    2  A    between atoms: C_4  and  C_11 
REMARK    3  A    between atoms: S_7  and  N_10 
REMARK    4  A    between atoms: C_11  and  C_12 
REMARK    5  A    between atoms: C_12  and  N_13 
REMARK       I    between atoms: N_13  and  C_14 
ROOT
HETATM    1  C   UNK N   1      29.017  24.249  -3.740  0.00  0.00     0.079 A 
HETATM    2  C   UNK N   1      27.787  23.964  -3.142  0.00  0.00     0.026 A 
HETATM    3  C   UNK N   1      26.606  24.387  -3.740  0.00  0.00     0.009 A 
HETATM    4  C   UNK N   1      26.634  25.090  -4.954  0.00  0.00    -0.057 A 
HETATM    5  C   UNK N   1      27.868  25.376  -5.554  0.00  0.00     0.009 A 
HETATM    6  C   UNK N   1      29.059  24.956  -4.948  0.00  0.00     0.026 A 
ENDROOT
BRANCH   4   7
HETATM    7  C   UNK N   1      25.362  25.507  -5.644  0.00  0.00     0.058 C 
BRANCH   7   8
HETATM    8  C   UNK N   1      25.194  27.020  -5.814  0.00  0.00     0.127 C 
BRANCH   8   9
HETATM    9  N   UNK N   1      25.260  27.678  -4.527  0.00  0.00    -0.361 N 
HETATM   10  C   UNK N   1      26.166  28.637  -4.233  0.00  0.00     0.213 C 
HETATM   11  O   UNK N   1      26.155  29.152  -3.126  0.00  0.00    -0.274 OA
HETATM   12  C   UNK N   1      27.184  29.079  -5.234  0.00  0.00     0.117 C 
HETATM   13  H   UNK N   1      24.614  27.415  -3.833  0.00  0.00     0.162 HD
ENDBRANCH   8   9
ENDBRANCH   7   8
ENDBRANCH   4   7
BRANCH   1  14
HETATM   14  S   UNK N   1      30.518  23.664  -2.961  0.00  0.00     0.256 S 
HETATM   15  O   UNK N   1      30.611  22.977  -1.591  0.00  0.00    -0.201 OA
HETATM   16  O   UNK N   1      31.755  23.282  -3.788  0.00  0.00    -0.201 OA
BRANCH  14  17
HETATM   17  N   UNK N   1      29.858  22.116  -3.493  0.00  0.00    -0.324 N 
HETATM   18  H   UNK N   1      29.678  21.115  -3.570  0.00  0.00     0.169 HD
HETATM   19  H   UNK N   1      29.221  22.451  -4.216  0.00  0.00     0.169 HD
ENDBRANCH  14  17
ENDBRANCH   1  14
TORSDOF 5
ENDMDL
MODEL 3
REMARK VINA RESULT:      -5.5      5.498      9.281
REMARK  5 active torsions:
REMARK  status: ('A' for Active; 'I' for Inactive)
REMARK    1  A    between atoms: C_1  and  S_7 
REMARK    2  A    between atoms: C_4  and  C_11 
REMARK    3  A    between atoms: S_7  and  N_10 
REMARK    4  A    between atoms: C_11  and  C_12 
REMARK    5  A    between atoms: C_12  and  N_13 
REMARK       I    between atoms: N_13  and  C_14 
ROOT
HETATM    1  C   UNK N   1      23.039  19.960   3.143  0.00  0.00     0.079 A 
HETATM    2  C   UNK N   1      24.157  20.666   2.694  0.00  0.00     0.026 A 
HETATM    3  C   UNK N   1      25.435  20.186   2.950  0.00  0.00     0.009 A 
HETATM    4  C   UNK N   1      25.619  18.984   3.649  0.00  0.00    -0.057 A 
HETATM    5  C   UNK N   1      24.497  18.274   4.100  0.00  0.00     0.009 A 
HETATM    6  C   UNK N   1      23.208  18.761   3.848  0.00  0.00     0.026 A 
ENDROOT
BRANCH   4   7
HETATM    7  C   UNK N   1      26.995  18.420   3.887  0.00  0.00     0.058 C 
BRANCH   7   8
HETATM    8  C   UNK N   1      27.980  19.395   4.537  0.00  0.00     0.127 C 
BRANCH   8   9
HETATM    9  N   UNK N   1      28.202  19.035   5.921  0.00  0.00    -0.361 N 
HETATM   10  C   UNK N   1      27.663  19.714   6.957  0.00  0.00     0.213 C 
HETATM   11  O   UNK N   1      27.891  19.346   8.099  0.00  0.00    -0.274 OA
HETATM   12  C   UNK N   1      26.794  20.910   6.736  0.00  0.00     0.117 C 
HETATM   13  H   UNK N   1      28.774  18.258   6.117  0.00  0.00     0.162 HD
ENDBRANCH   8   9
ENDBRANCH   7   8
ENDBRANCH   4   7
BRANCH   1  14
HETATM   14  S   UNK N   1      21.405  20.587   2.770  0.00  0.00     0.256 S 
HETATM   15  O   UNK N   1      20.747  20.609   1.383  0.00  0.00    -0.201 OA
HETATM   16  O   UNK N   1      20.305  20.647   3.839  0.00  0.00    -0.201 OA
BRANCH  14  17
HETATM   17  N   UNK N   1      21.060  18.857   2.711  0.00  0.00    -0.324 N 
HETATM   18  H   UNK N   1      21.165  17.854   2.561  0.00  0.00     0.169 HD
HETATM   19  H   UNK N   1      20.108  18.869   3.076  0.00  0.00     0.169 HD
ENDBRANCH  14  17
ENDBRANCH   1  14
TORSDOF 5
ENDMDL
MODEL 4
REMARK VINA RESULT:      -5.4      2.974      4.150
REMARK  5 active torsions:
REMARK  status: ('A' for Active; 'I' for Inactive)
REMARK    1  A    between atoms: C_1  and  S_7 
REMARK    2  A    between atoms: C_4  and  C_11 
REMARK    3  A    between atoms: S_7  and  N_10 
REMARK    4  A    between atoms: C_11  and  C_12 
REMARK    5  A    between atoms: C_12  and  N_13 
REMARK       I    between atoms: N_13  and  C_14 
ROOT
HETATM    1  C   UNK N   1      34.800  16.184   8.617  0.00  0.00     0.079 A 
HETATM    2  C   UNK N   1      34.748  15.341   7.505  0.00  0.00     0.026 A 
HETATM    3  C   UNK N   1      34.228  15.803   6.302  0.00  0.00     0.009 A 
HETATM    4  C   UNK N   1      33.765  17.121   6.185  0.00  0.00    -0.057 A 
HETATM    5  C   UNK N   1      33.817  17.969   7.301  0.00  0.00     0.009 A 
HETATM    6  C   UNK N   1      34.334  17.502   8.516  0.00  0.00     0.026 A 
ENDROOT
BRANCH   4   7
HETATM    7  C   UNK N   1      33.251  17.656   4.874  0.00  0.00     0.058 C 
BRANCH   7   8
HETATM    8  C   UNK N   1      32.085  16.863   4.275  0.00  0.00     0.127 C 
BRANCH   8   9
HETATM    9  N   UNK N   1      30.898  17.688   4.211  0.00  0.00    -0.361 N 
HETATM   10  C   UNK N   1      29.922  17.652   5.145  0.00  0.00     0.213 C 
HETATM   11  O   UNK N   1      28.952  18.384   5.026  0.00  0.00    -0.274 OA
HETATM   12  C   UNK N   1      30.002  16.731   6.319  0.00  0.00     0.117 C 
HETATM   13  H   UNK N   1      30.797  18.306   3.452  0.00  0.00     0.162 HD
ENDBRANCH   8   9
ENDBRANCH   7   8
ENDBRANCH   4   7
BRANCH   1  14
HETATM   14  S   UNK N   1      35.503  15.570  10.143  0.00  0.00     0.256 S 
HETATM   15  O   UNK N   1      36.840  16.010  10.757  0.00  0.00    -0.201 OA
HETATM   16  O   UNK N   1      34.621  14.981  11.254  0.00  0.00    -0.201 OA
BRANCH  14  17
HETATM   17  N   UNK N   1      34.929  17.140  10.712  0.00  0.00    -0.324 N 
HETATM   18  H   UNK N   1      34.343  17.864  11.127  0.00  0.00     0.169 HD
HETATM   19  H   UNK N   1      35.729  17.713  10.442  0.00  0.00     0.169 HD
ENDBRANCH  14  17
ENDBRANCH   1  14
TORSDOF 5
ENDMDL
MODEL 5
REMARK VINA RESULT:      -5.4     11.934     14.132
REMARK  5 active torsions:
REMARK  status: ('A' for Active; 'I' for Inactive)
REMARK    1  A    between atoms: C_1  and  S_7 
REMARK    2  A    between atoms: C_4  and  C_11 
REMARK    3  A    between atoms: S_7  and  N_10 
REMARK    4  A    between atoms: C_11  and  C_12 
REMARK    5  A    between atoms: C_12  and  N_13 
REMARK       I    between atoms: N_13  and  C_14 
ROOT
HETATM    1  C   UNK N   1      35.562  12.371  15.692  0.00  0.00     0.079 A 
HETATM    2  C   UNK N   1      35.256  13.441  16.536  0.00  0.00     0.026 A 
HETATM    3  C   UNK N   1      35.161  13.243  17.908  0.00  0.00     0.009 A 
HETATM    4  C   UNK N   1      35.383  11.974  18.463  0.00  0.00    -0.057 A 
HETATM    5  C   UNK N   1      35.691  10.900  17.617  0.00  0.00     0.009 A 
HETATM    6  C   UNK N   1      35.780  11.097  16.233  0.00  0.00     0.026 A 
ENDROOT
BRANCH   4   7
HETATM    7  C   UNK N   1      35.339  11.753  19.952  0.00  0.00     0.058 C 
BRANCH   7   8
HETATM    8  C   UNK N   1      34.628  10.468  20.386  0.00  0.00     0.127 C 
BRANCH   8   9
HETATM    9  N   UNK N   1      33.991  10.657  21.671  0.00  0.00    -0.361 N 
HETATM   10  C   UNK N   1      32.815  10.080  22.005  0.00  0.00     0.213 C 
HETATM   11  O   UNK N   1      32.342  10.282  23.112  0.00  0.00    -0.274 OA
HETATM   12  C   UNK N   1      32.080   9.200  21.046  0.00  0.00     0.117 C 
HETATM   13  H   UNK N   1      34.434  11.234  22.333  0.00  0.00     0.162 HD
ENDBRANCH   8   9
ENDBRANCH   7   8
ENDBRANCH   4   7
BRANCH   1  14
HETATM   14  S   UNK N   1      35.709  12.663  13.934  0.00  0.00     0.256 S 
HETATM   15  O   UNK N   1      35.040  13.805  13.154  0.00  0.00    -0.201 OA
HETATM   16  O   UNK N   1      36.924  12.168  13.136  0.00  0.00    -0.201 OA
BRANCH  14  17
HETATM   17  N   UNK N   1      36.786  13.933  14.519  0.00  0.00    -0.324 N 
HETATM   18  H   UNK N   1      37.619  14.420  14.850  0.00  0.00     0.169 HD
HETATM   19  H   UNK N   1      36.126  14.710  14.539  0.00  0.00     0.169 HD
ENDBRANCH  14  17
ENDBRANCH   1  14
TORSDOF 5
ENDMDL
MODEL 6
REMARK VINA RESULT:      -5.4      6.382      8.709
REMARK  5 active torsions:
REMARK  status: ('A' for Active; 'I' for Inactive)
REMARK    1  A    between atoms: C_1  and  S_7 
REMARK    2  A    between atoms: C_4  and  C_11 
REMARK    3  A    between atoms: S_7  and  N_10 
REMARK    4  A    between atoms: C_11  and  C_12 
REMARK    5  A    between atoms: C_12  and  N_13 
REMARK       I    between atoms: N_13  and  C_14 
ROOT
HETATM    1  C   UNK N   1      25.198  19.138   4.040  0.00  0.00     0.079 A 
HETATM    2  C   UNK N   1      25.115  20.310   3.284  0.00  0.00     0.026 A 
HETATM    3  C   UNK N   1      23.884  20.751   2.814  0.00  0.00     0.009 A 
HETATM    4  C   UNK N   1      22.712  20.037   3.104  0.00  0.00    -0.057 A 
HETATM    5  C   UNK N   1      22.795  18.861   3.863  0.00  0.00     0.009 A 
HETATM    6  C   UNK N   1      24.036  18.411   4.330  0.00  0.00     0.026 A 
ENDROOT
BRANCH   4   7
HETATM    7  C   UNK N   1      21.363  20.531   2.650  0.00  0.00     0.058 C 
BRANCH   7   8
HETATM    8  C   UNK N   1      20.296  19.440   2.519  0.00  0.00     0.127 C 
BRANCH   8   9
HETATM    9  N   UNK N   1      20.297  18.898   1.177  0.00  0.00    -0.361 N 
HETATM   10  C   UNK N   1      20.323  17.572   0.916  0.00  0.00     0.213 C 
HETATM   11  O   UNK N   1      20.315  17.190  -0.243  0.00  0.00    -0.274 OA
HETATM   12  C   UNK N   1      20.363  16.562   2.018  0.00  0.00     0.117 C 
HETATM   13  H   UNK N   1      20.278  19.524   0.418  0.00  0.00     0.162 HD
ENDBRANCH   8   9
ENDBRANCH   7   8
ENDBRANCH   4   7
BRANCH   1  14
HETATM   14  S   UNK N   1      26.793  18.612   4.658  0.00  0.00     0.256 S 
HETATM   15  O   UNK N   1      27.811  17.752   3.896  0.00  0.00    -0.201 OA
HETATM   16  O   UNK N   1      27.532  19.401   5.747  0.00  0.00    -0.201 OA
BRANCH  14  17
HETATM   17  N   UNK N   1      27.324  19.892   3.565  0.00  0.00    -0.324 N 
HETATM   18  H   UNK N   1      27.316  20.705   2.949  0.00  0.00     0.169 HD
HETATM   19  H   UNK N   1      28.318  19.664   3.518  0.00  0.00     0.169 HD
ENDBRANCH  14  17
ENDBRANCH   1  14
TORSDOF 5
ENDMDL
MODEL 7
REMARK VINA RESULT:      -5.3      2.659      6.361
REMARK  5 active torsions:
REMARK  status: ('A' for Active; 'I' for Inactive)
REMARK    1  A    between atoms: C_1  and  S_7 
REMARK    2  A    between atoms: C_4  and  C_11 
REMARK    3  A    between atoms: S_7  and  N_10 
REMARK    4  A    between atoms: C_11  and  C_12 
REMARK    5  A    between atoms: C_12  and  N_13 
REMARK       I    between atoms: N_13  and  C_14 
ROOT
HETATM    1  C   UNK N   1      28.216  18.686   6.217  0.00  0.00     0.079 A 
HETATM    2  C   UNK N   1      28.395  18.892   7.587  0.00  0.00     0.026 A 
HETATM    3  C   UNK N   1      29.428  18.251   8.260  0.00  0.00     0.009 A 
HETATM    4  C   UNK N   1      30.309  17.404   7.573  0.00  0.00    -0.057 A 
HETATM    5  C   UNK N   1      30.131  17.197   6.198  0.00  0.00     0.009 A 
HETATM    6  C   UNK N   1      29.085  17.837   5.520  0.00  0.00     0.026 A 
ENDROOT
BRANCH   4   7
HETATM    7  C   UNK N   1      31.468  16.745   8.275  0.00  0.00     0.058 C 
BRANCH   7   8
HETATM    8  C   UNK N   1      32.742  16.630   7.433  0.00  0.00     0.127 C 
BRANCH   8   9
HETATM    9  N   UNK N   1      33.494  17.864   7.491  0.00  0.00    -0.361 N 
HETATM   10  C   UNK N   1      34.473  18.092   8.394  0.00  0.00     0.213 C 
HETATM   11  O   UNK N   1      35.069  19.158   8.377  0.00  0.00    -0.274 OA
HETATM   12  C   UNK N   1      34.841  17.066   9.418  0.00  0.00     0.117 C 
HETATM   13  H   UNK N   1      33.282  18.573   6.841  0.00  0.00     0.162 HD
ENDBRANCH   8   9
ENDBRANCH   7   8
ENDBRANCH   4   7
BRANCH   1  14
HETATM   14  S   UNK N   1      26.897  19.550   5.373  0.00  0.00     0.256 S 
HETATM   15  O   UNK N   1      26.815  21.067   5.149  0.00  0.00    -0.201 OA
HETATM   16  O   UNK N   1      26.021  18.850   4.323  0.00  0.00    -0.201 OA
BRANCH  14  17
HETATM   17  N   UNK N   1      28.125  19.609   4.106  0.00  0.00    -0.324 N 
HETATM   18  H   UNK N   1      28.578  19.558   3.194  0.00  0.00     0.169 HD
HETATM   19  H   UNK N   1      28.930  19.877   4.672  0.00  0.00     0.169 HD
ENDBRANCH  14  17
ENDBRANCH   1  14
TORSDOF 5
ENDMDL
MODEL 8
REMARK VINA RESULT:      -5.3      2.817      3.642
REMARK  5 active torsions:
REMARK  status: ('A' for Active; 'I' for Inactive)
REMARK    1  A    between atoms: C_1  and  S_7 
REMARK    2  A    between atoms: C_4  and  C_11 
REMARK    3  A    between atoms: S_7  and  N_10 
REMARK    4  A    between atoms: C_11  and  C_12 
REMARK    5  A    between atoms: C_12  and  N_13 
REMARK       I    between atoms: N_13  and  C_14 
ROOT
HETATM    1  C   UNK N   1      33.809  16.176   9.457  0.00  0.00     0.079 A 
HETATM    2  C   UNK N   1      33.701  17.398   8.790  0.00  0.00     0.026 A 
HETATM    3  C   UNK N   1      32.727  17.577   7.814  0.00  0.00     0.009 A 
HETATM    4  C   UNK N   1      31.836  16.541   7.498  0.00  0.00    -0.057 A 
HETATM    5  C   UNK N   1      31.944  15.314   8.167  0.00  0.00     0.009 A 
HETATM    6  C   UNK N   1      32.930  15.131   9.146  0.00  0.00     0.026 A 
ENDROOT
BRANCH   4   7
HETATM    7  C   UNK N   1      30.740  16.736   6.484  0.00  0.00     0.058 C 
BRANCH   7   8
HETATM    8  C   UNK N   1      29.700  17.794   6.863  0.00  0.00     0.127 C 
BRANCH   8   9
HETATM    9  N   UNK N   1      28.692  17.219   7.727  0.00  0.00    -0.361 N 
HETATM   10  C   UNK N   1      28.578  17.528   9.038  0.00  0.00     0.213 C 
HETATM   11  O   UNK N   1      27.697  17.005   9.702  0.00  0.00    -0.274 OA
HETATM   12  C   UNK N   1      29.511  18.494   9.694  0.00  0.00     0.117 C 
HETATM   13  H   UNK N   1      28.059  16.571   7.342  0.00  0.00     0.162 HD
ENDBRANCH   8   9
ENDBRANCH   7   8
ENDBRANCH   4   7
BRANCH   1  14
HETATM   14  S   UNK N   1      35.052  15.987  10.730  0.00  0.00     0.256 S 
HETATM   15  O   UNK N   1      35.138  14.829  11.735  0.00  0.00    -0.201 OA
HETATM   16  O   UNK N   1      36.439  16.631  10.600  0.00  0.00    -0.201 OA
BRANCH  14  17
HETATM   17  N   UNK N   1      35.651  14.794   9.576  0.00  0.00    -0.324 N 
HETATM   18  H   UNK N   1      35.840  14.301   8.703  0.00  0.00     0.169 HD
HETATM   19  H   UNK N   1      36.147  14.178  10.220  0.00  0.00     0.169 HD
ENDBRANCH  14  17
ENDBRANCH   1  14
TORSDOF 5
ENDMDL
MODEL 9
REMARK VINA RESULT:      -5.3     15.188     16.487
REMARK  5 active torsions:
REMARK  status: ('A' for Active; 'I' for Inactive)
REMARK    1  A    between atoms: C_1  and  S_7 
REMARK    2  A    between atoms: C_4  and  C_11 
REMARK    3  A    between atoms: S_7  and  N_10 
REMARK    4  A    between atoms: C_11  and  C_12 
REMARK    5  A    between atoms: C_12  and  N_13 
REMARK       I    between atoms: N_13  and  C_14 
ROOT
HETATM    1  C   UNK N   1      25.841  24.856  -6.574  0.00  0.00     0.079 A 
HETATM    2  C   UNK N   1      26.230  24.536  -5.271  0.00  0.00     0.026 A 
HETATM    3  C   UNK N   1      26.215  25.509  -4.279  0.00  0.00     0.009 A 
HETATM    4  C   UNK N   1      25.798  26.816  -4.569  0.00  0.00    -0.057 A 
HETATM    5  C   UNK N   1      25.408  27.138  -5.877  0.00  0.00     0.009 A 
HETATM    6  C   UNK N   1      25.430  26.160  -6.879  0.00  0.00     0.026 A 
ENDROOT
BRANCH   4   7
HETATM    7  C   UNK N   1      25.722  27.869  -3.494  0.00  0.00     0.058 C 
BRANCH   7   8
HETATM    8  C   UNK N   1      26.367  29.208  -3.866  0.00  0.00     0.127 C 
BRANCH   8   9
HETATM    9  N   UNK N   1      27.805  29.125  -3.735  0.00  0.00    -0.361 N 
HETATM   10  C   UNK N   1      28.652  29.265  -4.778  0.00  0.00     0.213 C 
HETATM   11  O   UNK N   1      29.855  29.189  -4.588  0.00  0.00    -0.274 OA
HETATM   12  C   UNK N   1      28.146  29.510  -6.164  0.00  0.00     0.117 C 
HETATM   13  H   UNK N   1      28.185  28.957  -2.842  0.00  0.00     0.162 HD
ENDBRANCH   8   9
ENDBRANCH   7   8
ENDBRANCH   4   7
BRANCH   1  14
HETATM   14  S   UNK N   1      25.842  23.574  -7.822  0.00  0.00     0.256 S 
HETATM   15  O   UNK N   1      26.851  22.421  -7.925  0.00  0.00    -0.201 OA
HETATM   16  O   UNK N   1      24.557  23.171  -8.559  0.00  0.00    -0.201 OA
BRANCH  14  17
HETATM   17  N   UNK N   1      25.190  22.647  -6.469  0.00  0.00    -0.324 N 
HETATM   18  H   UNK N   1      24.756  22.411  -5.576  0.00  0.00     0.169 HD
HETATM   19  H   UNK N   1      25.368  21.704  -6.817  0.00  0.00     0.169 HD
ENDBRANCH  14  17
ENDBRANCH   1  14
TORSDOF 5
ENDMDL
