REMARK  6 active torsions:
REMARK  status: ('A' for Active; 'I' for Inactive)
REMARK    1  A    between atoms: C_1  and  S_7 
REMARK    2  A    between atoms: C_4  and  C_11 
REMARK    3  A    between atoms: S_7  and  N_10 
REMARK    4  A    between atoms: C_11  and  C_12 
REMARK    5  A    between atoms: C_12  and  C_13 
REMARK    6  A    between atoms: C_13  and  O_15 
ROOT
HETATM    1  C   UNK N   1       2.338   0.325  -0.063  0.00  0.00     0.079 A 
HETATM    2  C   UNK N   1       2.274  -1.040   0.223  0.00  0.00     0.026 A 
HETATM    3  C   UNK N   1       1.119  -1.763  -0.078  0.00  0.00     0.009 A 
HETATM    4  C   UNK N   1       0.015  -1.125  -0.666  0.00  0.00    -0.058 A 
HETATM    5  C   UNK N   1       0.091   0.239  -0.969  0.00  0.00     0.009 A 
HETATM    6  C   UNK N   1       1.249   0.965  -0.665  0.00  0.00     0.026 A 
ENDROOT
BRANCH   1   7
HETATM    7  S   UNK N   1       3.771   1.266   0.439  0.00  0.00     0.256 S 
HETATM    8  O   UNK N   1       4.020   2.523  -0.407  0.00  0.00    -0.201 OA
HETATM    9  O   UNK N   1       3.600   1.850   1.849  0.00  0.00    -0.201 OA
BRANCH   7  10
HETATM   10  N   UNK N   1       5.322   0.426   0.491  0.00  0.00    -0.324 N 
HETATM   11  H   UNK N   1       5.350  -0.593   0.520  0.00  0.00     0.169 HD
HETATM   12  H   UNK N   1       6.191   0.960   0.491  0.00  0.00     0.169 HD
ENDBRANCH   7  10
ENDBRANCH   1   7
BRANCH   4  13
HETATM   13  C   UNK N   1      -1.270  -1.858  -0.934  0.00  0.00     0.049 C 
BRANCH  13  14
HETATM   14  C   UNK N   1      -1.253  -3.308  -0.450  0.00  0.00     0.114 C 
BRANCH  14  15
HETATM   15  C   UNK N   1      -2.558  -3.731   0.156  0.00  0.00     0.139 C 
HETATM   16  O   UNK N   1      -2.675  -4.862   0.594  0.00  0.00    -0.650 OA
BRANCH  15  17
HETATM   17  O   UNK N   1      -3.597  -2.875   0.235  0.00  0.00    -0.776 OA
HETATM   18  H   UNK N   1      -3.443  -1.952   0.290  0.00  0.00     0.167 HD
ENDBRANCH  15  17
ENDBRANCH  14  15
ENDBRANCH  13  14
ENDBRANCH   4  13
TORSDOF 6
