MODEL 1
REMARK VINA RESULT:      -5.8      0.000      0.000
REMARK  6 active torsions:
REMARK  status: ('A' for Active; 'I' for Inactive)
REMARK    1  A    between atoms: C_1  and  S_7 
REMARK    2  A    between atoms: C_4  and  C_11 
REMARK    3  A    between atoms: S_7  and  N_10 
REMARK    4  A    between atoms: C_11  and  C_12 
REMARK    5  A    between atoms: C_12  and  C_13 
REMARK    6  A    between atoms: C_13  and  O_15 
ROOT
HETATM    1  C   UNK N   1      21.421  15.550   7.647  0.00  0.00     0.079 A 
HETATM    2  C   UNK N   1      22.378  14.539   7.544  0.00  0.00     0.026 A 
HETATM    3  C   UNK N   1      22.403  13.503   8.479  0.00  0.00     0.009 A 
HETATM    4  C   UNK N   1      21.470  13.471   9.528  0.00  0.00    -0.058 A 
HETATM    5  C   UNK N   1      20.500  14.476   9.615  0.00  0.00     0.009 A 
HETATM    6  C   UNK N   1      20.477  15.516   8.679  0.00  0.00     0.026 A 
ENDROOT
BRANCH   1   7
HETATM    7  S   UNK N   1      21.476  16.935   6.520  0.00  0.00     0.256 S 
HETATM    8  O   UNK N   1      20.513  16.811   5.330  0.00  0.00    -0.201 OA
HETATM    9  O   UNK N   1      20.998  18.231   7.192  0.00  0.00    -0.201 OA
BRANCH   7  10
HETATM   10  N   UNK N   1      23.038  17.351   5.813  0.00  0.00    -0.324 N 
HETATM   11  H   UNK N   1      23.894  16.943   6.189  0.00  0.00     0.169 HD
HETATM   12  H   UNK N   1      23.085  17.999   5.027  0.00  0.00     0.169 HD
ENDBRANCH   7  10
ENDBRANCH   1   7
BRANCH   4  13
HETATM   13  C   UNK N   1      21.516  12.411  10.593  0.00  0.00     0.049 C 
BRANCH  13  14
HETATM   14  C   UNK N   1      22.837  11.643  10.627  0.00  0.00     0.114 C 
BRANCH  14  15
HETATM   15  C   UNK N   1      23.667  11.973  11.832  0.00  0.00     0.139 C 
HETATM   16  O   UNK N   1      23.159  11.925  12.939  0.00  0.00    -0.650 OA
BRANCH  15  17
HETATM   17  O   UNK N   1      24.968  12.307  11.710  0.00  0.00    -0.776 OA
HETATM   18  H   UNK N   1      25.310  12.566  10.877  0.00  0.00     0.167 HD
ENDBRANCH  15  17
ENDBRANCH  14  15
ENDBRANCH  13  14
ENDBRANCH   4  13
TORSDOF 6
ENDMDL
MODEL 2
REMARK VINA RESULT:      -5.7      2.082      2.457
REMARK  6 active torsions:
REMARK  status: ('A' for Active; 'I' for Inactive)
REMARK    1  A    between atoms: C_1  and  S_7 
REMARK    2  A    between atoms: C_4  and  C_11 
REMARK    3  A    between atoms: S_7  and  N_10 
REMARK    4  A    between atoms: C_11  and  C_12 
REMARK    5  A    between atoms: C_12  and  C_13 
REMARK    6  A    between atoms: C_13  and  O_15 
ROOT
HETATM    1  C   UNK N   1      20.249  15.252   8.847  0.00  0.00     0.079 A 
HETATM    2  C   UNK N   1      20.053  14.320   9.869  0.00  0.00     0.026 A 
HETATM    3  C   UNK N   1      20.986  13.303  10.074  0.00  0.00     0.009 A 
HETATM    4  C   UNK N   1      22.124  13.207   9.257  0.00  0.00    -0.058 A 
HETATM    5  C   UNK N   1      22.326  14.155   8.247  0.00  0.00     0.009 A 
HETATM    6  C   UNK N   1      21.389  15.174   8.039  0.00  0.00     0.026 A 
ENDROOT
BRANCH   1   7
HETATM    7  S   UNK N   1      18.989  16.473   8.513  0.00  0.00     0.256 S 
HETATM    8  O   UNK N   1      18.452  16.438   7.075  0.00  0.00    -0.201 OA
HETATM    9  O   UNK N   1      17.721  16.221   9.342  0.00  0.00    -0.201 OA
BRANCH   7  10
HETATM   10  N   UNK N   1      19.390  18.164   8.818  0.00  0.00    -0.324 N 
HETATM   11  H   UNK N   1      20.352  18.488   8.714  0.00  0.00     0.169 HD
HETATM   12  H   UNK N   1      18.659  18.819   9.097  0.00  0.00     0.169 HD
ENDBRANCH   7  10
ENDBRANCH   1   7
BRANCH   4  13
HETATM   13  C   UNK N   1      23.109  12.081   9.403  0.00  0.00     0.049 C 
BRANCH  13  14
HETATM   14  C   UNK N   1      23.046  11.395  10.768  0.00  0.00     0.114 C 
BRANCH  14  15
HETATM   15  C   UNK N   1      23.991  11.999  11.763  0.00  0.00     0.139 C 
HETATM   16  O   UNK N   1      23.689  12.010  12.944  0.00  0.00    -0.650 OA
BRANCH  15  17
HETATM   17  O   UNK N   1      25.173  12.518  11.373  0.00  0.00    -0.776 OA
HETATM   18  H   UNK N   1      25.235  13.423  11.138  0.00  0.00     0.167 HD
ENDBRANCH  15  17
ENDBRANCH  14  15
ENDBRANCH  13  14
ENDBRANCH   4  13
TORSDOF 6
ENDMDL
MODEL 3
REMARK VINA RESULT:      -5.7      7.350      8.434
REMARK  6 active torsions:
REMARK  status: ('A' for Active; 'I' for Inactive)
REMARK    1  A    between atoms: C_1  and  S_7 
REMARK    2  A    between atoms: C_4  and  C_11 
REMARK    3  A    between atoms: S_7  and  N_10 
REMARK    4  A    between atoms: C_11  and  C_12 
REMARK    5  A    between atoms: C_12  and  C_13 
REMARK    6  A    between atoms: C_13  and  O_15 
ROOT
HETATM    1  C   UNK N   1      22.871  19.848   3.118  0.00  0.00     0.079 A 
HETATM    2  C   UNK N   1      23.907  20.673   2.674  0.00  0.00     0.026 A 
HETATM    3  C   UNK N   1      25.216  20.438   3.095  0.00  0.00     0.009 A 
HETATM    4  C   UNK N   1      25.501  19.375   3.968  0.00  0.00    -0.058 A 
HETATM    5  C   UNK N   1      24.463  18.539   4.395  0.00  0.00     0.009 A 
HETATM    6  C   UNK N   1      23.149  18.777   3.974  0.00  0.00     0.026 A 
ENDROOT
BRANCH   1   7
HETATM    7  S   UNK N   1      21.184  20.233   2.674  0.00  0.00     0.256 S 
HETATM    8  O   UNK N   1      20.318  20.698   3.854  0.00  0.00    -0.201 OA
HETATM    9  O   UNK N   1      21.109  21.434   1.720  0.00  0.00    -0.201 OA
BRANCH   7  10
HETATM   10  N   UNK N   1      20.243  18.972   1.876  0.00  0.00    -0.324 N 
HETATM   11  H   UNK N   1      20.717  18.198   1.410  0.00  0.00     0.169 HD
HETATM   12  H   UNK N   1      19.224  19.016   1.881  0.00  0.00     0.169 HD
ENDBRANCH   7  10
ENDBRANCH   1   7
BRANCH   4  13
HETATM   13  C   UNK N   1      26.888  19.140   4.499  0.00  0.00     0.049 C 
BRANCH  13  14
HETATM   14  C   UNK N   1      27.526  20.391   5.103  0.00  0.00     0.114 C 
BRANCH  14  15
HETATM   15  C   UNK N   1      26.930  20.763   6.428  0.00  0.00     0.139 C 
HETATM   16  O   UNK N   1      26.338  21.822   6.541  0.00  0.00    -0.650 OA
BRANCH  15  17
HETATM   17  O   UNK N   1      27.028  19.938   7.489  0.00  0.00    -0.776 OA
HETATM   18  H   UNK N   1      26.989  19.009   7.369  0.00  0.00     0.167 HD
ENDBRANCH  15  17
ENDBRANCH  14  15
ENDBRANCH  13  14
ENDBRANCH   4  13
TORSDOF 6
ENDMDL
MODEL 4
REMARK VINA RESULT:      -5.6     16.857     17.860
REMARK  6 active torsions:
REMARK  status: ('A' for Active; 'I' for Inactive)
REMARK    1  A    between atoms: C_1  and  S_7 
REMARK    2  A    between atoms: C_4  and  C_11 
REMARK    3  A    between atoms: S_7  and  N_10 
REMARK    4  A    between atoms: C_11  and  C_12 
REMARK    5  A    between atoms: C_12  and  C_13 
REMARK    6  A    between atoms: C_13  and  O_15 
ROOT
HETATM    1  C   UNK N   1      26.517  22.922  -6.534  0.00  0.00     0.079 A 
HETATM    2  C   UNK N   1      26.136  23.756  -5.481  0.00  0.00     0.026 A 
HETATM    3  C   UNK N   1      27.089  24.205  -4.567  0.00  0.00     0.009 A 
HETATM    4  C   UNK N   1      28.434  23.821  -4.696  0.00  0.00    -0.058 A 
HETATM    5  C   UNK N   1      28.814  23.001  -5.764  0.00  0.00     0.009 A 
HETATM    6  C   UNK N   1      27.858  22.549  -6.681  0.00  0.00     0.026 A 
ENDROOT
BRANCH   1   7
HETATM    7  S   UNK N   1      25.271  22.253  -7.626  0.00  0.00     0.256 S 
HETATM    8  O   UNK N   1      24.616  23.298  -8.540  0.00  0.00    -0.201 OA
HETATM    9  O   UNK N   1      25.874  21.266  -8.636  0.00  0.00    -0.201 OA
BRANCH   7  10
HETATM   10  N   UNK N   1      23.930  21.373  -6.891  0.00  0.00    -0.324 N 
HETATM   11  H   UNK N   1      22.970  21.587  -7.160  0.00  0.00     0.169 HD
HETATM   12  H   UNK N   1      24.115  20.649  -6.196  0.00  0.00     0.169 HD
ENDBRANCH   7  10
ENDBRANCH   1   7
BRANCH   4  13
HETATM   13  C   UNK N   1      29.471  24.226  -3.686  0.00  0.00     0.049 C 
BRANCH  13  14
HETATM   14  C   UNK N   1      30.725  23.353  -3.722  0.00  0.00     0.114 C 
BRANCH  14  15
HETATM   15  C   UNK N   1      30.984  22.658  -2.418  0.00  0.00     0.139 C 
HETATM   16  O   UNK N   1      30.403  23.034  -1.415  0.00  0.00    -0.650 OA
BRANCH  15  17
HETATM   17  O   UNK N   1      31.837  21.617  -2.343  0.00  0.00    -0.776 OA
HETATM   18  H   UNK N   1      32.268  21.419  -1.535  0.00  0.00     0.167 HD
ENDBRANCH  15  17
ENDBRANCH  14  15
ENDBRANCH  13  14
ENDBRANCH   4  13
TORSDOF 6
ENDMDL
MODEL 5
REMARK VINA RESULT:      -5.6      9.594     11.190
REMARK  6 active torsions:
REMARK  status: ('A' for Active; 'I' for Inactive)
REMARK    1  A    between atoms: C_1  and  S_7 
REMARK    2  A    between atoms: C_4  and  C_11 
REMARK    3  A    between atoms: S_7  and  N_10 
REMARK    4  A    between atoms: C_11  and  C_12 
REMARK    5  A    between atoms: C_12  and  C_13 
REMARK    6  A    between atoms: C_13  and  O_15 
ROOT
HETATM    1  C   UNK N   1      32.498  17.609   7.754  0.00  0.00     0.079 A 
HETATM    2  C   UNK N   1      32.094  17.207   6.480  0.00  0.00     0.026 A 
HETATM    3  C   UNK N   1      30.738  17.181   6.153  0.00  0.00     0.009 A 
HETATM    4  C   UNK N   1      29.772  17.556   7.101  0.00  0.00    -0.058 A 
HETATM    5  C   UNK N   1      30.183  17.977   8.370  0.00  0.00     0.009 A 
HETATM    6  C   UNK N   1      31.544  18.001   8.699  0.00  0.00     0.026 A 
ENDROOT
BRANCH   1   7
HETATM    7  S   UNK N   1      34.225  17.520   8.202  0.00  0.00     0.256 S 
HETATM    8  O   UNK N   1      35.034  16.512   7.372  0.00  0.00    -0.201 OA
HETATM    9  O   UNK N   1      34.955  18.840   7.913  0.00  0.00    -0.201 OA
BRANCH   7  10
HETATM   10  N   UNK N   1      34.615  17.156   9.884  0.00  0.00    -0.324 N 
HETATM   11  H   UNK N   1      34.033  17.528  10.635  0.00  0.00     0.169 HD
HETATM   12  H   UNK N   1      35.421  16.571  10.106  0.00  0.00     0.169 HD
ENDBRANCH   7  10
ENDBRANCH   1   7
BRANCH   4  13
HETATM   13  C   UNK N   1      28.300  17.468   6.806  0.00  0.00     0.049 C 
BRANCH  13  14
HETATM   14  C   UNK N   1      27.785  18.621   5.945  0.00  0.00     0.114 C 
BRANCH  14  15
HETATM   15  C   UNK N   1      27.522  19.865   6.741  0.00  0.00     0.139 C 
HETATM   16  O   UNK N   1      27.685  20.954   6.219  0.00  0.00    -0.650 OA
BRANCH  15  17
HETATM   17  O   UNK N   1      27.095  19.795   8.018  0.00  0.00    -0.776 OA
HETATM   18  H   UNK N   1      27.715  19.803   8.722  0.00  0.00     0.167 HD
ENDBRANCH  15  17
ENDBRANCH  14  15
ENDBRANCH  13  14
ENDBRANCH   4  13
TORSDOF 6
ENDMDL
MODEL 6
REMARK VINA RESULT:      -5.5     13.302     14.919
REMARK  6 active torsions:
REMARK  status: ('A' for Active; 'I' for Inactive)
REMARK    1  A    between atoms: C_1  and  S_7 
REMARK    2  A    between atoms: C_4  and  C_11 
REMARK    3  A    between atoms: S_7  and  N_10 
REMARK    4  A    between atoms: C_11  and  C_12 
REMARK    5  A    between atoms: C_12  and  C_13 
REMARK    6  A    between atoms: C_13  and  O_15 
ROOT
HETATM    1  C   UNK N   1      35.671  14.050  12.558  0.00  0.00     0.079 A 
HETATM    2  C   UNK N   1      34.994  13.299  11.595  0.00  0.00     0.026 A 
HETATM    3  C   UNK N   1      34.681  13.866  10.359  0.00  0.00     0.009 A 
HETATM    4  C   UNK N   1      35.043  15.193  10.075  0.00  0.00    -0.058 A 
HETATM    5  C   UNK N   1      35.739  15.935  11.035  0.00  0.00     0.009 A 
HETATM    6  C   UNK N   1      36.050  15.367  12.276  0.00  0.00     0.026 A 
ENDROOT
BRANCH   1   7
HETATM    7  S   UNK N   1      35.956  13.357  14.179  0.00  0.00     0.256 S 
HETATM    8  O   UNK N   1      34.692  13.258  15.046  0.00  0.00    -0.201 OA
HETATM    9  O   UNK N   1      36.412  11.893  14.098  0.00  0.00    -0.201 OA
BRANCH   7  10
HETATM   10  N   UNK N   1      37.160  14.142  15.203  0.00  0.00    -0.324 N 
HETATM   11  H   UNK N   1      37.296  13.829  16.163  0.00  0.00     0.169 HD
HETATM   12  H   UNK N   1      37.722  14.909  14.832  0.00  0.00     0.169 HD
ENDBRANCH   7  10
ENDBRANCH   1   7
BRANCH   4  13
HETATM   13  C   UNK N   1      34.656  15.857   8.783  0.00  0.00     0.049 C 
BRANCH  13  14
HETATM   14  C   UNK N   1      34.021  17.234   8.976  0.00  0.00     0.114 C 
BRANCH  14  15
HETATM   15  C   UNK N   1      34.573  18.262   8.034  0.00  0.00     0.139 C 
HETATM   16  O   UNK N   1      35.224  19.192   8.478  0.00  0.00    -0.650 OA
BRANCH  15  17
HETATM   17  O   UNK N   1      34.371  18.166   6.704  0.00  0.00    -0.776 OA
HETATM   18  H   UNK N   1      35.023  18.475   6.105  0.00  0.00     0.167 HD
ENDBRANCH  15  17
ENDBRANCH  14  15
ENDBRANCH  13  14
ENDBRANCH   4  13
TORSDOF 6
ENDMDL
MODEL 7
REMARK VINA RESULT:      -5.5     12.493     13.338
REMARK  6 active torsions:
REMARK  status: ('A' for Active; 'I' for Inactive)
REMARK    1  A    between atoms: C_1  and  S_7 
REMARK    2  A    between atoms: C_4  and  C_11 
REMARK    3  A    between atoms: S_7  and  N_10 
REMARK    4  A    between atoms: C_11  and  C_12 
REMARK    5  A    between atoms: C_12  and  C_13 
REMARK    6  A    between atoms: C_13  and  O_15 
ROOT
HETATM    1  C   UNK N   1      34.649  16.581   9.298  0.00  0.00     0.079 A 
HETATM    2  C   UNK N   1      35.348  16.822  10.482  0.00  0.00     0.026 A 
HETATM    3  C   UNK N   1      35.558  15.785  11.392  0.00  0.00     0.009 A 
HETATM    4  C   UNK N   1      35.066  14.497  11.126  0.00  0.00    -0.058 A 
HETATM    5  C   UNK N   1      34.383  14.256   9.929  0.00  0.00     0.009 A 
HETATM    6  C   UNK N   1      34.171  15.297   9.017  0.00  0.00     0.026 A 
ENDROOT
BRANCH   1   7
HETATM    7  S   UNK N   1      34.278  17.941   8.200  0.00  0.00     0.256 S 
HETATM    8  O   UNK N   1      35.123  19.197   8.454  0.00  0.00    -0.201 OA
HETATM    9  O   UNK N   1      34.625  17.603   6.742  0.00  0.00    -0.201 OA
BRANCH   7  10
HETATM   10  N   UNK N   1      32.608  18.508   8.138  0.00  0.00    -0.324 N 
HETATM   11  H   UNK N   1      31.856  17.923   8.503  0.00  0.00     0.169 HD
HETATM   12  H   UNK N   1      32.395  19.422   7.738  0.00  0.00     0.169 HD
ENDBRANCH   7  10
ENDBRANCH   1   7
BRANCH   4  13
HETATM   13  C   UNK N   1      35.210  13.377  12.119  0.00  0.00     0.049 C 
BRANCH  13  14
HETATM   14  C   UNK N   1      36.505  13.447  12.928  0.00  0.00     0.114 C 
BRANCH  14  15
HETATM   15  C   UNK N   1      36.262  13.676  14.390  0.00  0.00     0.139 C 
HETATM   16  O   UNK N   1      35.145  13.503  14.845  0.00  0.00    -0.650 OA
BRANCH  15  17
HETATM   17  O   UNK N   1      37.263  14.059  15.209  0.00  0.00    -0.776 OA
HETATM   18  H   UNK N   1      37.069  14.474  16.027  0.00  0.00     0.167 HD
ENDBRANCH  15  17
ENDBRANCH  14  15
ENDBRANCH  13  14
ENDBRANCH   4  13
TORSDOF 6
ENDMDL
MODEL 8
REMARK VINA RESULT:      -5.5      3.216      5.995
REMARK  6 active torsions:
REMARK  status: ('A' for Active; 'I' for Inactive)
REMARK    1  A    between atoms: C_1  and  S_7 
REMARK    2  A    between atoms: C_4  and  C_11 
REMARK    3  A    between atoms: S_7  and  N_10 
REMARK    4  A    between atoms: C_11  and  C_12 
REMARK    5  A    between atoms: C_12  and  C_13 
REMARK    6  A    between atoms: C_13  and  O_15 
ROOT
HETATM    1  C   UNK N   1      22.259  13.419   9.134  0.00  0.00     0.079 A 
HETATM    2  C   UNK N   1      22.529  14.137   7.967  0.00  0.00     0.026 A 
HETATM    3  C   UNK N   1      21.651  15.136   7.543  0.00  0.00     0.009 A 
HETATM    4  C   UNK N   1      20.492  15.423   8.283  0.00  0.00    -0.058 A 
HETATM    5  C   UNK N   1      20.236  14.715   9.462  0.00  0.00     0.009 A 
HETATM    6  C   UNK N   1      21.116  13.712   9.886  0.00  0.00     0.026 A 
ENDROOT
BRANCH   1   7
HETATM    7  S   UNK N   1      23.321  12.061   9.600  0.00  0.00     0.256 S 
HETATM    8  O   UNK N   1      23.522  11.017   8.493  0.00  0.00    -0.201 OA
HETATM    9  O   UNK N   1      24.758  12.532   9.869  0.00  0.00    -0.201 OA
BRANCH   7  10
HETATM   10  N   UNK N   1      22.881  11.136  11.037  0.00  0.00    -0.324 N 
HETATM   11  H   UNK N   1      21.899  10.967  11.254  0.00  0.00     0.169 HD
HETATM   12  H   UNK N   1      23.609  10.770  11.650  0.00  0.00     0.169 HD
ENDBRANCH   7  10
ENDBRANCH   1   7
BRANCH   4  13
HETATM   13  C   UNK N   1      19.489  16.440   7.814  0.00  0.00     0.049 C 
BRANCH  13  14
HETATM   14  C   UNK N   1      18.921  17.297   8.945  0.00  0.00     0.114 C 
BRANCH  14  15
HETATM   15  C   UNK N   1      19.658  18.592   9.117  0.00  0.00     0.139 C 
HETATM   16  O   UNK N   1      20.427  18.962   8.247  0.00  0.00    -0.650 OA
BRANCH  15  17
HETATM   17  O   UNK N   1      19.473  19.357  10.212  0.00  0.00    -0.776 OA
HETATM   18  H   UNK N   1      18.868  20.072  10.190  0.00  0.00     0.167 HD
ENDBRANCH  15  17
ENDBRANCH  14  15
ENDBRANCH  13  14
ENDBRANCH   4  13
TORSDOF 6
ENDMDL
MODEL 9
REMARK VINA RESULT:      -5.1     16.671     18.041
REMARK  6 active torsions:
REMARK  status: ('A' for Active; 'I' for Inactive)
REMARK    1  A    between atoms: C_1  and  S_7 
REMARK    2  A    between atoms: C_4  and  C_11 
REMARK    3  A    between atoms: S_7  and  N_10 
REMARK    4  A    between atoms: C_11  and  C_12 
REMARK    5  A    between atoms: C_12  and  C_13 
REMARK    6  A    between atoms: C_13  and  O_15 
ROOT
HETATM    1  C   UNK N   1      26.636  22.541  -6.936  0.00  0.00     0.079 A 
HETATM    2  C   UNK N   1      27.841  21.890  -7.204  0.00  0.00     0.026 A 
HETATM    3  C   UNK N   1      28.992  22.230  -6.492  0.00  0.00     0.009 A 
HETATM    4  C   UNK N   1      28.948  23.229  -5.506  0.00  0.00    -0.058 A 
HETATM    5  C   UNK N   1      27.733  23.865  -5.227  0.00  0.00     0.009 A 
HETATM    6  C   UNK N   1      26.579  23.525  -5.943  0.00  0.00     0.026 A 
ENDROOT
BRANCH   1   7
HETATM    7  S   UNK N   1      25.199  22.187  -7.937  0.00  0.00     0.256 S 
HETATM    8  O   UNK N   1      23.977  21.721  -7.133  0.00  0.00    -0.201 OA
HETATM    9  O   UNK N   1      24.670  23.449  -8.634  0.00  0.00    -0.201 OA
BRANCH   7  10
HETATM   10  N   UNK N   1      25.380  21.005  -9.235  0.00  0.00    -0.324 N 
HETATM   11  H   UNK N   1      24.614  20.369  -9.456  0.00  0.00     0.169 HD
HETATM   12  H   UNK N   1      26.251  20.958  -9.764  0.00  0.00     0.169 HD
ENDBRANCH   7  10
ENDBRANCH   1   7
BRANCH   4  13
HETATM   13  C   UNK N   1      30.184  23.671  -4.773  0.00  0.00     0.049 C 
BRANCH  13  14
HETATM   14  C   UNK N   1      29.888  24.315  -3.419  0.00  0.00     0.114 C 
BRANCH  14  15
HETATM   15  C   UNK N   1      29.806  23.311  -2.307  0.00  0.00     0.139 C 
HETATM   16  O   UNK N   1      30.832  22.912  -1.785  0.00  0.00    -0.650 OA
BRANCH  15  17
HETATM   17  O   UNK N   1      28.615  22.857  -1.868  0.00  0.00    -0.776 OA
HETATM   18  H   UNK N   1      28.218  22.111  -2.274  0.00  0.00     0.167 HD
ENDBRANCH  15  17
ENDBRANCH  14  15
ENDBRANCH  13  14
ENDBRANCH   4  13
TORSDOF 6
ENDMDL
