REMARK  7 active torsions:
REMARK  status: ('A' for Active; 'I' for Inactive)
REMARK    1  A    between atoms: C_1  and  S_7 
REMARK    2  A    between atoms: C_4  and  C_11 
REMARK    3  A    between atoms: S_7  and  N_10 
REMARK    4  A    between atoms: C_11  and  C_12 
REMARK    5  A    between atoms: C_12  and  C_13 
REMARK    6  A    between atoms: C_13  and  O_14 
REMARK    7  A    between atoms: O_14  and  C_16 
ROOT
HETATM    1  C   UNK N   1      -1.314  -1.490  -0.006  0.00  0.00     0.079 A 
HETATM    2  C   UNK N   1      -0.058  -0.895   0.144  0.00  0.00     0.026 A 
HETATM    3  C   UNK N   1       1.085  -1.692   0.243  0.00  0.00     0.009 A 
HETATM    4  C   UNK N   1       0.975  -3.088   0.191  0.00  0.00    -0.058 A 
HETATM    5  C   UNK N   1      -0.282  -3.682   0.033  0.00  0.00     0.009 A 
HETATM    6  C   UNK N   1      -1.426  -2.883  -0.063  0.00  0.00     0.026 A 
ENDROOT
BRANCH   4   7
HETATM    7  C   UNK N   1       2.187  -3.942   0.341  0.00  0.00     0.048 C 
BRANCH   7   8
HETATM    8  C   UNK N   1       3.179  -3.655  -0.772  0.00  0.00     0.116 C 
BRANCH   8   9
HETATM    9  C   UNK N   1       4.573  -3.746  -0.252  0.00  0.00     0.259 C 
HETATM   10  O   UNK N   1       5.018  -4.824   0.120  0.00  0.00    -0.265 OA
BRANCH   9  11
HETATM   11  O   UNK N   1       5.333  -2.627  -0.210  0.00  0.00    -0.322 OA
BRANCH  11  12
HETATM   12  C   UNK N   1       6.622  -2.623   0.267  0.00  0.00     0.174 C 
HETATM   13  C   UNK N   1       7.214  -1.240   0.096  0.00  0.00     0.034 C 
ENDBRANCH  11  12
ENDBRANCH   9  11
ENDBRANCH   8   9
ENDBRANCH   7   8
ENDBRANCH   4   7
BRANCH   1  14
HETATM   14  S   UNK N   1      -2.779  -0.469  -0.036  0.00  0.00     0.256 S 
HETATM   15  O   UNK N   1      -3.331  -0.226   1.376  0.00  0.00    -0.201 OA
HETATM   16  O   UNK N   1      -3.973  -1.129  -0.743  0.00  0.00    -0.201 OA
BRANCH  14  17
HETATM   17  N   UNK N   1      -2.649   1.138  -0.752  0.00  0.00    -0.324 N 
HETATM   18  H   UNK N   1      -1.807   1.537  -1.166  0.00  0.00     0.169 HD
HETATM   19  H   UNK N   1      -3.488   1.717  -0.752  0.00  0.00     0.169 HD
ENDBRANCH  14  17
ENDBRANCH   1  14
TORSDOF 7
