MODEL 1
REMARK VINA RESULT:      -5.8      0.000      0.000
REMARK  7 active torsions:
REMARK  status: ('A' for Active; 'I' for Inactive)
REMARK    1  A    between atoms: C_1  and  S_7 
REMARK    2  A    between atoms: C_4  and  C_11 
REMARK    3  A    between atoms: S_7  and  N_10 
REMARK    4  A    between atoms: C_11  and  C_12 
REMARK    5  A    between atoms: C_12  and  C_13 
REMARK    6  A    between atoms: C_13  and  O_14 
REMARK    7  A    between atoms: O_14  and  C_16 
ROOT
HETATM    1  C   UNK N   1      34.863  16.573   9.284  0.00  0.00     0.079 A 
HETATM    2  C   UNK N   1      34.900  15.256   8.818  0.00  0.00     0.026 A 
HETATM    3  C   UNK N   1      35.378  14.236   9.644  0.00  0.00     0.009 A 
HETATM    4  C   UNK N   1      35.821  14.531  10.940  0.00  0.00    -0.058 A 
HETATM    5  C   UNK N   1      35.776  15.849  11.408  0.00  0.00     0.009 A 
HETATM    6  C   UNK N   1      35.299  16.870  10.579  0.00  0.00     0.026 A 
ENDROOT
BRANCH   4   7
HETATM    7  C   UNK N   1      36.373  13.453  11.808  0.00  0.00     0.048 C 
BRANCH   7   8
HETATM    8  C   UNK N   1      35.308  12.942  12.762  0.00  0.00     0.116 C 
BRANCH   8   9
HETATM    9  C   UNK N   1      35.584  13.424  14.145  0.00  0.00     0.259 C 
HETATM   10  O   UNK N   1      36.626  14.019  14.389  0.00  0.00    -0.265 OA
BRANCH   9  11
HETATM   11  O   UNK N   1      34.664  13.204  15.113  0.00  0.00    -0.322 OA
BRANCH  11  12
HETATM   12  C   UNK N   1      34.941  12.478  16.247  0.00  0.00     0.174 C 
HETATM   13  C   UNK N   1      35.048  13.419  17.429  0.00  0.00     0.034 C 
ENDBRANCH  11  12
ENDBRANCH   9  11
ENDBRANCH   8   9
ENDBRANCH   7   8
ENDBRANCH   4   7
BRANCH   1  14
HETATM   14  S   UNK N   1      34.340  17.884   8.189  0.00  0.00     0.256 S 
HETATM   15  O   UNK N   1      34.664  17.564   6.723  0.00  0.00    -0.201 OA
HETATM   16  O   UNK N   1      35.095  19.204   8.409  0.00  0.00    -0.201 OA
BRANCH  14  17
HETATM   17  N   UNK N   1      32.631  18.324   8.188  0.00  0.00    -0.324 N 
HETATM   18  H   UNK N   1      32.262  19.271   8.258  0.00  0.00     0.169 HD
HETATM   19  H   UNK N   1      31.955  17.565   8.110  0.00  0.00     0.169 HD
ENDBRANCH  14  17
ENDBRANCH   1  14
TORSDOF 7
ENDMDL
MODEL 2
REMARK VINA RESULT:      -5.7      3.494      7.456
REMARK  7 active torsions:
REMARK  status: ('A' for Active; 'I' for Inactive)
REMARK    1  A    between atoms: C_1  and  S_7 
REMARK    2  A    between atoms: C_4  and  C_11 
REMARK    3  A    between atoms: S_7  and  N_10 
REMARK    4  A    between atoms: C_11  and  C_12 
REMARK    5  A    between atoms: C_12  and  C_13 
REMARK    6  A    between atoms: C_13  and  O_14 
REMARK    7  A    between atoms: O_14  and  C_16 
ROOT
HETATM    1  C   UNK N   1      35.483  13.956  12.618  0.00  0.00     0.079 A 
HETATM    2  C   UNK N   1      35.963  15.256  12.431  0.00  0.00     0.026 A 
HETATM    3  C   UNK N   1      35.778  15.899  11.205  0.00  0.00     0.009 A 
HETATM    4  C   UNK N   1      35.110  15.245  10.161  0.00  0.00    -0.058 A 
HETATM    5  C   UNK N   1      34.623  13.947  10.352  0.00  0.00     0.009 A 
HETATM    6  C   UNK N   1      34.812  13.303  11.579  0.00  0.00     0.026 A 
ENDROOT
BRANCH   4   7
HETATM    7  C   UNK N   1      34.950  15.911   8.838  0.00  0.00     0.048 C 
BRANCH   7   8
HETATM    8  C   UNK N   1      34.125  17.178   8.979  0.00  0.00     0.116 C 
BRANCH   8   9
HETATM    9  C   UNK N   1      34.644  18.232   8.061  0.00  0.00     0.259 C 
HETATM   10  O   UNK N   1      35.257  19.190   8.514  0.00  0.00    -0.265 OA
BRANCH   9  11
HETATM   11  O   UNK N   1      34.435  18.105   6.730  0.00  0.00    -0.322 OA
BRANCH  11  12
HETATM   12  C   UNK N   1      33.262  17.617   6.206  0.00  0.00     0.174 C 
HETATM   13  C   UNK N   1      33.579  16.591   5.139  0.00  0.00     0.034 C 
ENDBRANCH  11  12
ENDBRANCH   9  11
ENDBRANCH   8   9
ENDBRANCH   7   8
ENDBRANCH   4   7
BRANCH   1  14
HETATM   14  S   UNK N   1      35.807  13.106  14.154  0.00  0.00     0.256 S 
HETATM   15  O   UNK N   1      35.928  11.589  13.949  0.00  0.00    -0.201 OA
HETATM   16  O   UNK N   1      34.655  13.206  15.166  0.00  0.00    -0.201 OA
BRANCH  14  17
HETATM   17  N   UNK N   1      37.255  13.556  15.056  0.00  0.00    -0.324 N 
HETATM   18  H   UNK N   1      38.211  13.304  14.807  0.00  0.00     0.169 HD
HETATM   19  H   UNK N   1      37.124  14.116  15.897  0.00  0.00     0.169 HD
ENDBRANCH  14  17
ENDBRANCH   1  14
TORSDOF 7
ENDMDL
MODEL 3
REMARK VINA RESULT:      -5.7     11.551     13.664
REMARK  7 active torsions:
REMARK  status: ('A' for Active; 'I' for Inactive)
REMARK    1  A    between atoms: C_1  and  S_7 
REMARK    2  A    between atoms: C_4  and  C_11 
REMARK    3  A    between atoms: S_7  and  N_10 
REMARK    4  A    between atoms: C_11  and  C_12 
REMARK    5  A    between atoms: C_12  and  C_13 
REMARK    6  A    between atoms: C_13  and  O_14 
REMARK    7  A    between atoms: O_14  and  C_16 
ROOT
HETATM    1  C   UNK N   1      22.898  19.814   3.132  0.00  0.00     0.079 A 
HETATM    2  C   UNK N   1      23.965  20.605   2.695  0.00  0.00     0.026 A 
HETATM    3  C   UNK N   1      25.269  20.298   3.091  0.00  0.00     0.009 A 
HETATM    4  C   UNK N   1      25.510  19.198   3.925  0.00  0.00    -0.058 A 
HETATM    5  C   UNK N   1      24.442  18.403   4.355  0.00  0.00     0.009 A 
HETATM    6  C   UNK N   1      23.137  18.713   3.961  0.00  0.00     0.026 A 
ENDROOT
BRANCH   4   7
HETATM    7  C   UNK N   1      26.895  18.895   4.385  0.00  0.00     0.048 C 
BRANCH   7   8
HETATM    8  C   UNK N   1      27.647  20.179   4.685  0.00  0.00     0.116 C 
BRANCH   8   9
HETATM    9  C   UNK N   1      27.511  20.528   6.128  0.00  0.00     0.259 C 
HETATM   10  O   UNK N   1      27.450  21.701   6.471  0.00  0.00    -0.265 OA
BRANCH   9  11
HETATM   11  O   UNK N   1      27.444  19.531   7.041  0.00  0.00    -0.322 OA
BRANCH  11  12
HETATM   12  C   UNK N   1      28.563  18.945   7.583  0.00  0.00     0.174 C 
HETATM   13  C   UNK N   1      28.211  18.345   8.928  0.00  0.00     0.034 C 
ENDBRANCH  11  12
ENDBRANCH   9  11
ENDBRANCH   8   9
ENDBRANCH   7   8
ENDBRANCH   4   7
BRANCH   1  14
HETATM   14  S   UNK N   1      21.225  20.268   2.701  0.00  0.00     0.256 S 
HETATM   15  O   UNK N   1      21.185  21.542   1.846  0.00  0.00    -0.201 OA
HETATM   16  O   UNK N   1      20.364  20.661   3.911  0.00  0.00    -0.201 OA
BRANCH  14  17
HETATM   17  N   UNK N   1      20.258  19.094   1.807  0.00  0.00    -0.324 N 
HETATM   18  H   UNK N   1      20.055  18.141   2.106  0.00  0.00     0.169 HD
HETATM   19  H   UNK N   1      19.868  19.395   0.914  0.00  0.00     0.169 HD
ENDBRANCH  14  17
ENDBRANCH   1  14
TORSDOF 7
ENDMDL
MODEL 4
REMARK VINA RESULT:      -5.5     11.806     14.020
REMARK  7 active torsions:
REMARK  status: ('A' for Active; 'I' for Inactive)
REMARK    1  A    between atoms: C_1  and  S_7 
REMARK    2  A    between atoms: C_4  and  C_11 
REMARK    3  A    between atoms: S_7  and  N_10 
REMARK    4  A    between atoms: C_11  and  C_12 
REMARK    5  A    between atoms: C_12  and  C_13 
REMARK    6  A    between atoms: C_13  and  O_14 
REMARK    7  A    between atoms: O_14  and  C_16 
ROOT
HETATM    1  C   UNK N   1      22.669  19.710   3.179  0.00  0.00     0.079 A 
HETATM    2  C   UNK N   1      22.831  18.468   3.800  0.00  0.00     0.026 A 
HETATM    3  C   UNK N   1      24.113  17.980   4.062  0.00  0.00     0.009 A 
HETATM    4  C   UNK N   1      25.239  18.735   3.705  0.00  0.00    -0.058 A 
HETATM    5  C   UNK N   1      25.075  19.982   3.091  0.00  0.00     0.009 A 
HETATM    6  C   UNK N   1      23.790  20.467   2.826  0.00  0.00     0.026 A 
ENDROOT
BRANCH   4   7
HETATM    7  C   UNK N   1      26.608  18.198   3.943  0.00  0.00     0.048 C 
BRANCH   7   8
HETATM    8  C   UNK N   1      27.568  19.325   4.280  0.00  0.00     0.116 C 
BRANCH   8   9
HETATM    9  C   UNK N   1      28.107  19.143   5.658  0.00  0.00     0.259 C 
HETATM   10  O   UNK N   1      28.789  18.162   5.924  0.00  0.00    -0.265 OA
BRANCH   9  11
HETATM   11  O   UNK N   1      27.839  20.081   6.597  0.00  0.00    -0.322 OA
BRANCH  11  12
HETATM   12  C   UNK N   1      27.515  21.378   6.279  0.00  0.00     0.174 C 
HETATM   13  C   UNK N   1      26.127  21.688   6.800  0.00  0.00     0.034 C 
ENDBRANCH  11  12
ENDBRANCH   9  11
ENDBRANCH   8   9
ENDBRANCH   7   8
ENDBRANCH   4   7
BRANCH   1  14
HETATM   14  S   UNK N   1      21.030  20.283   2.761  0.00  0.00     0.256 S 
HETATM   15  O   UNK N   1      21.075  21.500   1.826  0.00  0.00    -0.201 OA
HETATM   16  O   UNK N   1      20.244  20.827   3.965  0.00  0.00    -0.201 OA
BRANCH  14  17
HETATM   17  N   UNK N   1      19.936  19.147   1.971  0.00  0.00    -0.324 N 
HETATM   18  H   UNK N   1      20.145  18.172   1.759  0.00  0.00     0.169 HD
HETATM   19  H   UNK N   1      19.016  19.496   1.703  0.00  0.00     0.169 HD
ENDBRANCH  14  17
ENDBRANCH   1  14
TORSDOF 7
ENDMDL
MODEL 5
REMARK VINA RESULT:      -5.5      6.374      9.883
REMARK  7 active torsions:
REMARK  status: ('A' for Active; 'I' for Inactive)
REMARK    1  A    between atoms: C_1  and  S_7 
REMARK    2  A    between atoms: C_4  and  C_11 
REMARK    3  A    between atoms: S_7  and  N_10 
REMARK    4  A    between atoms: C_11  and  C_12 
REMARK    5  A    between atoms: C_12  and  C_13 
REMARK    6  A    between atoms: C_13  and  O_14 
REMARK    7  A    between atoms: O_14  and  C_16 
ROOT
HETATM    1  C   UNK N   1      32.465  17.530   7.764  0.00  0.00     0.079 A 
HETATM    2  C   UNK N   1      31.542  18.017   8.695  0.00  0.00     0.026 A 
HETATM    3  C   UNK N   1      30.191  18.115   8.354  0.00  0.00     0.009 A 
HETATM    4  C   UNK N   1      29.758  17.724   7.079  0.00  0.00    -0.058 A 
HETATM    5  C   UNK N   1      30.682  17.230   6.151  0.00  0.00     0.009 A 
HETATM    6  C   UNK N   1      32.034  17.135   6.494  0.00  0.00     0.026 A 
ENDROOT
BRANCH   4   7
HETATM    7  C   UNK N   1      28.325  17.869   6.697  0.00  0.00     0.048 C 
BRANCH   7   8
HETATM    8  C   UNK N   1      27.753  19.157   7.263  0.00  0.00     0.116 C 
BRANCH   8   9
HETATM    9  C   UNK N   1      27.420  20.099   6.157  0.00  0.00     0.259 C 
HETATM   10  O   UNK N   1      27.806  21.260   6.206  0.00  0.00    -0.265 OA
BRANCH   9  11
HETATM   11  O   UNK N   1      26.700  19.648   5.104  0.00  0.00    -0.322 OA
BRANCH  11  12
HETATM   12  C   UNK N   1      27.087  19.849   3.800  0.00  0.00     0.174 C 
HETATM   13  C   UNK N   1      25.930  20.437   3.020  0.00  0.00     0.034 C 
ENDBRANCH  11  12
ENDBRANCH   9  11
ENDBRANCH   8   9
ENDBRANCH   7   8
ENDBRANCH   4   7
BRANCH   1  14
HETATM   14  S   UNK N   1      34.203  17.497   8.175  0.00  0.00     0.256 S 
HETATM   15  O   UNK N   1      34.892  18.826   7.832  0.00  0.00    -0.201 OA
HETATM   16  O   UNK N   1      35.011  16.488   7.345  0.00  0.00    -0.201 OA
BRANCH  14  17
HETATM   17  N   UNK N   1      34.647  17.178   9.852  0.00  0.00    -0.324 N 
HETATM   18  H   UNK N   1      34.050  16.736  10.550  0.00  0.00     0.169 HD
HETATM   19  H   UNK N   1      35.582  17.459  10.147  0.00  0.00     0.169 HD
ENDBRANCH  14  17
ENDBRANCH   1  14
TORSDOF 7
ENDMDL
MODEL 6
REMARK VINA RESULT:      -5.5      6.815      8.737
REMARK  7 active torsions:
REMARK  status: ('A' for Active; 'I' for Inactive)
REMARK    1  A    between atoms: C_1  and  S_7 
REMARK    2  A    between atoms: C_4  and  C_11 
REMARK    3  A    between atoms: S_7  and  N_10 
REMARK    4  A    between atoms: C_11  and  C_12 
REMARK    5  A    between atoms: C_12  and  C_13 
REMARK    6  A    between atoms: C_13  and  O_14 
REMARK    7  A    between atoms: O_14  and  C_16 
ROOT
HETATM    1  C   UNK N   1      30.274  17.674   8.067  0.00  0.00     0.079 A 
HETATM    2  C   UNK N   1      29.913  17.356   6.754  0.00  0.00     0.026 A 
HETATM    3  C   UNK N   1      30.902  17.138   5.792  0.00  0.00     0.009 A 
HETATM    4  C   UNK N   1      32.256  17.237   6.140  0.00  0.00    -0.058 A 
HETATM    5  C   UNK N   1      32.615  17.548   7.456  0.00  0.00     0.009 A 
HETATM    6  C   UNK N   1      31.624  17.769   8.418  0.00  0.00     0.026 A 
ENDROOT
BRANCH   4   7
HETATM    7  C   UNK N   1      33.312  17.048   5.106  0.00  0.00     0.048 C 
BRANCH   7   8
HETATM    8  C   UNK N   1      32.720  17.178   3.714  0.00  0.00     0.116 C 
BRANCH   8   9
HETATM    9  C   UNK N   1      32.859  15.891   2.976  0.00  0.00     0.259 C 
HETATM   10  O   UNK N   1      33.803  15.720   2.216  0.00  0.00    -0.265 OA
BRANCH   9  11
HETATM   11  O   UNK N   1      31.935  14.920   3.168  0.00  0.00    -0.322 OA
BRANCH  11  12
HETATM   12  C   UNK N   1      32.217  13.750   3.832  0.00  0.00     0.174 C 
HETATM   13  C   UNK N   1      31.246  13.581   4.981  0.00  0.00     0.034 C 
ENDBRANCH  11  12
ENDBRANCH   9  11
ENDBRANCH   8   9
ENDBRANCH   7   8
ENDBRANCH   4   7
BRANCH   1  14
HETATM   14  S   UNK N   1      29.005  18.045   9.268  0.00  0.00     0.256 S 
HETATM   15  O   UNK N   1      29.557  18.867  10.442  0.00  0.00    -0.201 OA
HETATM   16  O   UNK N   1      28.447  16.801   9.976  0.00  0.00    -0.201 OA
BRANCH  14  17
HETATM   17  N   UNK N   1      27.587  18.939   8.719  0.00  0.00    -0.324 N 
HETATM   18  H   UNK N   1      27.569  19.926   8.463  0.00  0.00     0.169 HD
HETATM   19  H   UNK N   1      26.709  18.424   8.652  0.00  0.00     0.169 HD
ENDBRANCH  14  17
ENDBRANCH   1  14
TORSDOF 7
ENDMDL
MODEL 7
REMARK VINA RESULT:      -5.4      5.689      7.886
REMARK  7 active torsions:
REMARK  status: ('A' for Active; 'I' for Inactive)
REMARK    1  A    between atoms: C_1  and  S_7 
REMARK    2  A    between atoms: C_4  and  C_11 
REMARK    3  A    between atoms: S_7  and  N_10 
REMARK    4  A    between atoms: C_11  and  C_12 
REMARK    5  A    between atoms: C_12  and  C_13 
REMARK    6  A    between atoms: C_13  and  O_14 
REMARK    7  A    between atoms: O_14  and  C_16 
ROOT
HETATM    1  C   UNK N   1      35.674  12.705  15.926  0.00  0.00     0.079 A 
HETATM    2  C   UNK N   1      35.806  11.344  16.220  0.00  0.00     0.026 A 
HETATM    3  C   UNK N   1      35.626  10.892  17.530  0.00  0.00     0.009 A 
HETATM    4  C   UNK N   1      35.311  11.800  18.550  0.00  0.00    -0.058 A 
HETATM    5  C   UNK N   1      35.172  13.160  18.253  0.00  0.00     0.009 A 
HETATM    6  C   UNK N   1      35.356  13.612  16.942  0.00  0.00     0.026 A 
ENDROOT
BRANCH   4   7
HETATM    7  C   UNK N   1      35.163  11.327  19.955  0.00  0.00     0.048 C 
BRANCH   7   8
HETATM    8  C   UNK N   1      35.046   9.814  19.996  0.00  0.00     0.116 C 
BRANCH   8   9
HETATM    9  C   UNK N   1      33.688   9.417  20.464  0.00  0.00     0.259 C 
HETATM   10  O   UNK N   1      33.350   9.639  21.620  0.00  0.00    -0.265 OA
BRANCH   9  11
HETATM   11  O   UNK N   1      32.841   8.822  19.593  0.00  0.00    -0.322 OA
BRANCH  11  12
HETATM   12  C   UNK N   1      32.181   7.652  19.881  0.00  0.00     0.174 C 
HETATM   13  C   UNK N   1      30.704   7.939  20.054  0.00  0.00     0.034 C 
ENDBRANCH  11  12
ENDBRANCH   9  11
ENDBRANCH   8   9
ENDBRANCH   7   8
ENDBRANCH   4   7
BRANCH   1  14
HETATM   14  S   UNK N   1      35.999  13.288  14.270  0.00  0.00     0.256 S 
HETATM   15  O   UNK N   1      34.710  13.397  13.443  0.00  0.00    -0.201 OA
HETATM   16  O   UNK N   1      36.843  12.315  13.431  0.00  0.00    -0.201 OA
BRANCH  14  17
HETATM   17  N   UNK N   1      36.786  14.856  14.088  0.00  0.00    -0.324 N 
HETATM   18  H   UNK N   1      36.318  15.762  14.115  0.00  0.00     0.169 HD
HETATM   19  H   UNK N   1      37.795  14.857  13.944  0.00  0.00     0.169 HD
ENDBRANCH  14  17
ENDBRANCH   1  14
TORSDOF 7
ENDMDL
MODEL 8
REMARK VINA RESULT:      -5.3      6.275      7.735
REMARK  7 active torsions:
REMARK  status: ('A' for Active; 'I' for Inactive)
REMARK    1  A    between atoms: C_1  and  S_7 
REMARK    2  A    between atoms: C_4  and  C_11 
REMARK    3  A    between atoms: S_7  and  N_10 
REMARK    4  A    between atoms: C_11  and  C_12 
REMARK    5  A    between atoms: C_12  and  C_13 
REMARK    6  A    between atoms: C_13  and  O_14 
REMARK    7  A    between atoms: O_14  and  C_16 
ROOT
HETATM    1  C   UNK N   1      29.755  17.276   7.865  0.00  0.00     0.079 A 
HETATM    2  C   UNK N   1      30.642  16.283   8.291  0.00  0.00     0.026 A 
HETATM    3  C   UNK N   1      31.472  15.644   7.367  0.00  0.00     0.009 A 
HETATM    4  C   UNK N   1      31.418  15.998   6.012  0.00  0.00    -0.058 A 
HETATM    5  C   UNK N   1      30.536  16.997   5.588  0.00  0.00     0.009 A 
HETATM    6  C   UNK N   1      29.703  17.634   6.514  0.00  0.00     0.026 A 
ENDROOT
BRANCH   4   7
HETATM    7  C   UNK N   1      32.270  15.287   5.017  0.00  0.00     0.048 C 
BRANCH   7   8
HETATM    8  C   UNK N   1      33.352  16.212   4.489  0.00  0.00     0.116 C 
BRANCH   8   9
HETATM    9  C   UNK N   1      34.379  16.452   5.543  0.00  0.00     0.259 C 
HETATM   10  O   UNK N   1      35.234  15.606   5.768  0.00  0.00    -0.265 OA
BRANCH   9  11
HETATM   11  O   UNK N   1      34.354  17.618   6.231  0.00  0.00    -0.322 OA
BRANCH  11  12
HETATM   12  C   UNK N   1      34.517  17.678   7.594  0.00  0.00     0.174 C 
HETATM   13  C   UNK N   1      33.431  18.550   8.189  0.00  0.00     0.034 C 
ENDBRANCH  11  12
ENDBRANCH   9  11
ENDBRANCH   8   9
ENDBRANCH   7   8
ENDBRANCH   4   7
BRANCH   1  14
HETATM   14  S   UNK N   1      28.631  18.020   9.036  0.00  0.00     0.256 S 
HETATM   15  O   UNK N   1      29.381  18.719  10.179  0.00  0.00    -0.201 OA
HETATM   16  O   UNK N   1      27.765  16.999   9.791  0.00  0.00    -0.201 OA
BRANCH  14  17
HETATM   17  N   UNK N   1      27.497  19.231   8.435  0.00  0.00    -0.324 N 
HETATM   18  H   UNK N   1      26.954  19.161   7.575  0.00  0.00     0.169 HD
HETATM   19  H   UNK N   1      27.375  20.074   8.996  0.00  0.00     0.169 HD
ENDBRANCH  14  17
ENDBRANCH   1  14
TORSDOF 7
ENDMDL
MODEL 9
REMARK VINA RESULT:      -5.1      4.289      5.972
REMARK  7 active torsions:
REMARK  status: ('A' for Active; 'I' for Inactive)
REMARK    1  A    between atoms: C_1  and  S_7 
REMARK    2  A    between atoms: C_4  and  C_11 
REMARK    3  A    between atoms: S_7  and  N_10 
REMARK    4  A    between atoms: C_11  and  C_12 
REMARK    5  A    between atoms: C_12  and  C_13 
REMARK    6  A    between atoms: C_13  and  O_14 
REMARK    7  A    between atoms: O_14  and  C_16 
ROOT
HETATM    1  C   UNK N   1      30.038  17.522   7.977  0.00  0.00     0.079 A 
HETATM    2  C   UNK N   1      30.908  18.339   8.704  0.00  0.00     0.026 A 
HETATM    3  C   UNK N   1      32.285  18.108   8.658  0.00  0.00     0.009 A 
HETATM    4  C   UNK N   1      32.796  17.058   7.882  0.00  0.00    -0.058 A 
HETATM    5  C   UNK N   1      31.924  16.246   7.149  0.00  0.00     0.009 A 
HETATM    6  C   UNK N   1      30.545  16.477   7.198  0.00  0.00     0.026 A 
ENDROOT
BRANCH   4   7
HETATM    7  C   UNK N   1      34.260  16.781   7.866  0.00  0.00     0.048 C 
BRANCH   7   8
HETATM    8  C   UNK N   1      34.606  15.700   8.875  0.00  0.00     0.116 C 
BRANCH   8   9
HETATM    9  C   UNK N   1      35.453  16.267   9.963  0.00  0.00     0.259 C 
HETATM   10  O   UNK N   1      35.099  17.284  10.546  0.00  0.00    -0.265 OA
BRANCH   9  11
HETATM   11  O   UNK N   1      36.603  15.637  10.297  0.00  0.00    -0.322 OA
BRANCH  11  12
HETATM   12  C   UNK N   1      36.870  14.338   9.933  0.00  0.00     0.174 C 
HETATM   13  C   UNK N   1      38.357  14.181   9.696  0.00  0.00     0.034 C 
ENDBRANCH  11  12
ENDBRANCH   9  11
ENDBRANCH   8   9
ENDBRANCH   7   8
ENDBRANCH   4   7
BRANCH   1  14
HETATM   14  S   UNK N   1      28.274  17.764   8.116  0.00  0.00     0.256 S 
HETATM   15  O   UNK N   1      27.886  19.238   7.928  0.00  0.00    -0.201 OA
HETATM   16  O   UNK N   1      27.721  17.459   9.517  0.00  0.00    -0.201 OA
BRANCH  14  17
HETATM   17  N   UNK N   1      27.230  16.877   7.005  0.00  0.00    -0.324 N 
HETATM   18  H   UNK N   1      27.026  17.143   6.042  0.00  0.00     0.169 HD
HETATM   19  H   UNK N   1      26.793  16.025   7.356  0.00  0.00     0.169 HD
ENDBRANCH  14  17
ENDBRANCH   1  14
TORSDOF 7
ENDMDL
