REMARK  8 active torsions:
REMARK  status: ('A' for Active; 'I' for Inactive)
REMARK    1  A    between atoms: N_2  and  C_4 
REMARK    2  A    between atoms: C_6  and  N_7 
REMARK    3  A    between atoms: C_12  and  O_13 
REMARK    4  A    between atoms: C_14  and  O_13 
REMARK    5  A    between atoms: C_18  and  O_19 
REMARK    6  A    between atoms: C_20  and  O_21 
REMARK    7  A    between atoms: C_22  and  C_23 
REMARK    8  A    between atoms: C_23  and  O_24 
ROOT
HETATM    1  C   UNK N   1      -0.339   0.556  -0.396  0.00  0.00     0.303 C 
HETATM    2  O   UNK N   1      -0.543  -0.675   0.280  0.00  0.00    -0.348 OA
HETATM    3  C   UNK N   1      -1.513   1.488  -0.042  0.00  0.00     0.256 C 
HETATM    4  F   UNK N   1      -1.548   1.680   1.331  0.00  0.00    -0.241 F 
HETATM    5  C   UNK N   1      -2.817   0.808  -0.515  0.00  0.00     0.188 C 
HETATM    6  C   UNK N   1      -2.917  -0.636   0.027  0.00  0.00     0.180 C 
HETATM    7  C   UNK N   1      -1.610  -1.379  -0.312  0.00  0.00     0.179 C 
ENDROOT
BRANCH   1   8
HETATM    8  O   UNK N   1       0.881   1.099  -0.019  0.00  0.00    -0.315 OA
BRANCH   8   9
HETATM    9  C   UNK N   1       2.054   0.395  -0.004  0.00  0.00     0.105 A 
HETATM   10  C   UNK N   1       3.299   1.051   0.161  0.00  0.00     0.138 A 
HETATM   11  C   UNK N   1       4.472   0.273   0.250  0.00  0.00     0.075 A 
HETATM   12  C   UNK N   1       4.425  -1.129   0.173  0.00  0.00     0.105 A 
HETATM   13  C   UNK N   1       3.200  -1.758  -0.026  0.00  0.00     0.039 A 
HETATM   14  C   UNK N   1       2.038  -1.008  -0.117  0.00  0.00     0.042 A 
BRANCH  10  15
HETATM   15  N   UNK N   1       3.397   2.475   0.238  0.00  0.00    -0.113 N 
HETATM   16  O   UNK N   1       2.328   3.234   0.114  0.00  0.00    -0.532 OA
HETATM   17  O   UNK N   1       4.465   2.994   0.364  0.00  0.00    -0.532 OA
ENDBRANCH  10  15
BRANCH  12  18
HETATM   18  N   UNK N   1       5.604  -1.911   0.312  0.00  0.00    -0.116 N 
HETATM   19  O   UNK N   1       5.531  -3.226   0.281  0.00  0.00    -0.532 OA
HETATM   20  O   UNK N   1       6.659  -1.386   0.498  0.00  0.00    -0.532 OA
ENDBRANCH  12  18
ENDBRANCH   8   9
ENDBRANCH   1   8
BRANCH   7  21
HETATM   21  C   UNK N   1      -1.576  -2.800   0.240  0.00  0.00     0.198 C 
BRANCH  21  22
HETATM   22  O   UNK N   1      -2.337  -3.659  -0.554  0.00  0.00    -0.398 OA
HETATM   23  H   UNK N   1      -3.118  -3.500  -1.106  0.00  0.00     0.209 HD
ENDBRANCH  21  22
ENDBRANCH   7  21
BRANCH   5  24
HETATM   24  O   UNK N   1      -3.928   1.554  -0.114  0.00  0.00    -0.390 OA
HETATM   25  H   UNK N   1      -3.865   2.481   0.164  0.00  0.00     0.210 HD
ENDBRANCH   5  24
BRANCH   6  26
HETATM   26  O   UNK N   1      -4.016  -1.285  -0.541  0.00  0.00    -0.390 OA
HETATM   27  H   UNK N   1      -4.788  -0.850  -0.935  0.00  0.00     0.210 HD
ENDBRANCH   6  26
TORSDOF 8
