MODEL 1
REMARK VINA RESULT:      -7.2      0.000      0.000
REMARK  8 active torsions:
REMARK  status: ('A' for Active; 'I' for Inactive)
REMARK    1  A    between atoms: N_2  and  C_4 
REMARK    2  A    between atoms: C_6  and  N_7 
REMARK    3  A    between atoms: C_12  and  O_13 
REMARK    4  A    between atoms: C_14  and  O_13 
REMARK    5  A    between atoms: C_18  and  O_19 
REMARK    6  A    between atoms: C_20  and  O_21 
REMARK    7  A    between atoms: C_22  and  C_23 
REMARK    8  A    between atoms: C_23  and  O_24 
ROOT
HETATM    1  C   UNK N   1      30.903  16.481   6.837  0.00  0.00     0.303 C 
HETATM    2  O   UNK N   1      30.432  17.585   7.595  0.00  0.00    -0.348 OA
HETATM    3  C   UNK N   1      30.385  16.644   5.396  0.00  0.00     0.256 C 
HETATM    4  F   UNK N   1      30.857  17.838   4.871  0.00  0.00    -0.241 F 
HETATM    5  C   UNK N   1      28.841  16.660   5.446  0.00  0.00     0.188 C 
HETATM    6  C   UNK N   1      28.332  17.704   6.466  0.00  0.00     0.180 C 
HETATM    7  C   UNK N   1      29.046  17.465   7.811  0.00  0.00     0.179 C 
ENDROOT
BRANCH   1   8
HETATM    8  O   UNK N   1      32.289  16.440   6.884  0.00  0.00    -0.315 OA
BRANCH   8   9
HETATM    9  C   UNK N   1      33.001  16.072   7.993  0.00  0.00     0.105 A 
HETATM   10  C   UNK N   1      34.086  16.856   8.460  0.00  0.00     0.138 A 
HETATM   11  C   UNK N   1      34.736  16.478   9.653  0.00  0.00     0.075 A 
HETATM   12  C   UNK N   1      34.331  15.343  10.375  0.00  0.00     0.105 A 
HETATM   13  C   UNK N   1      33.289  14.562   9.887  0.00  0.00     0.039 A 
HETATM   14  C   UNK N   1      32.641  14.919   8.715  0.00  0.00     0.042 A 
BRANCH  10  15
HETATM   15  N   UNK N   1      34.537  18.015   7.755  0.00  0.00    -0.113 N 
HETATM   16  O   UNK N   1      34.958  19.080   8.404  0.00  0.00    -0.532 OA
HETATM   17  O   UNK N   1      34.485  18.046   6.562  0.00  0.00    -0.532 OA
ENDBRANCH  10  15
BRANCH  12  18
HETATM   18  N   UNK N   1      34.958  14.994  11.603  0.00  0.00    -0.116 N 
HETATM   19  O   UNK N   1      36.022  15.654  12.011  0.00  0.00    -0.532 OA
HETATM   20  O   UNK N   1      34.552  14.077  12.249  0.00  0.00    -0.532 OA
ENDBRANCH  12  18
ENDBRANCH   8   9
ENDBRANCH   1   8
BRANCH   7  21
HETATM   21  C   UNK N   1      28.663  18.488   8.875  0.00  0.00     0.198 C 
BRANCH  21  22
HETATM   22  O   UNK N   1      27.412  18.194   9.419  0.00  0.00    -0.398 OA
HETATM   23  H   UNK N   1      27.133  18.020  10.331  0.00  0.00     0.209 HD
ENDBRANCH  21  22
ENDBRANCH   7  21
BRANCH   5  24
HETATM   24  O   UNK N   1      28.316  16.925   4.179  0.00  0.00    -0.390 OA
HETATM   25  H   UNK N   1      27.409  17.239   4.042  0.00  0.00     0.210 HD
ENDBRANCH   5  24
BRANCH   6  26
HETATM   26  O   UNK N   1      26.947  17.590   6.615  0.00  0.00    -0.390 OA
HETATM   27  H   UNK N   1      26.488  16.920   7.145  0.00  0.00     0.210 HD
ENDBRANCH   6  26
TORSDOF 8
ENDMDL
MODEL 2
REMARK VINA RESULT:      -7.1      2.766      7.132
REMARK  8 active torsions:
REMARK  status: ('A' for Active; 'I' for Inactive)
REMARK    1  A    between atoms: N_2  and  C_4 
REMARK    2  A    between atoms: C_6  and  N_7 
REMARK    3  A    between atoms: C_12  and  O_13 
REMARK    4  A    between atoms: C_14  and  O_13 
REMARK    5  A    between atoms: C_18  and  O_19 
REMARK    6  A    between atoms: C_20  and  O_21 
REMARK    7  A    between atoms: C_22  and  C_23 
REMARK    8  A    between atoms: C_23  and  O_24 
ROOT
HETATM    1  C   UNK N   1      31.489  16.780   8.158  0.00  0.00     0.303 C 
HETATM    2  O   UNK N   1      32.134  15.562   8.497  0.00  0.00    -0.348 OA
HETATM    3  C   UNK N   1      32.469  17.612   7.310  0.00  0.00     0.256 C 
HETATM    4  F   UNK N   1      32.806  16.900   6.169  0.00  0.00    -0.241 F 
HETATM    5  C   UNK N   1      33.730  17.874   8.163  0.00  0.00     0.188 C 
HETATM    6  C   UNK N   1      34.292  16.555   8.741  0.00  0.00     0.180 C 
HETATM    7  C   UNK N   1      33.147  15.801   9.446  0.00  0.00     0.179 C 
ENDROOT
BRANCH   1   8
HETATM    8  O   UNK N   1      30.314  16.511   7.471  0.00  0.00    -0.315 OA
BRANCH   8   9
HETATM    9  C   UNK N   1      29.476  17.480   6.989  0.00  0.00     0.105 A 
HETATM   10  C   UNK N   1      28.694  18.273   7.865  0.00  0.00     0.138 A 
HETATM   11  C   UNK N   1      27.908  19.312   7.324  0.00  0.00     0.075 A 
HETATM   12  C   UNK N   1      27.886  19.565   5.942  0.00  0.00     0.105 A 
HETATM   13  C   UNK N   1      28.630  18.755   5.090  0.00  0.00     0.039 A 
HETATM   14  C   UNK N   1      29.406  17.729   5.606  0.00  0.00     0.042 A 
BRANCH  10  15
HETATM   15  N   UNK N   1      28.680  18.049   9.276  0.00  0.00    -0.113 N 
HETATM   16  O   UNK N   1      27.884  17.146   9.810  0.00  0.00    -0.532 OA
HETATM   17  O   UNK N   1      29.358  18.720   9.994  0.00  0.00    -0.532 OA
ENDBRANCH  10  15
BRANCH  12  18
HETATM   18  N   UNK N   1      27.130  20.644   5.407  0.00  0.00    -0.116 N 
HETATM   19  O   UNK N   1      27.099  21.802   6.033  0.00  0.00    -0.532 OA
HETATM   20  O   UNK N   1      26.487  20.496   4.412  0.00  0.00    -0.532 OA
ENDBRANCH  12  18
ENDBRANCH   8   9
ENDBRANCH   1   8
BRANCH   7  21
HETATM   21  C   UNK N   1      33.580  14.446   9.995  0.00  0.00     0.198 C 
BRANCH  21  22
HETATM   22  O   UNK N   1      33.883  14.536  11.355  0.00  0.00    -0.398 OA
HETATM   23  H   UNK N   1      33.363  14.320  12.144  0.00  0.00     0.209 HD
ENDBRANCH  21  22
ENDBRANCH   7  21
BRANCH   5  24
HETATM   24  O   UNK N   1      34.705  18.524   7.404  0.00  0.00    -0.390 OA
HETATM   25  H   UNK N   1      34.892  19.472   7.490  0.00  0.00     0.210 HD
ENDBRANCH   5  24
BRANCH   6  26
HETATM   26  O   UNK N   1      35.329  16.828   9.636  0.00  0.00    -0.390 OA
HETATM   27  H   UNK N   1      35.909  17.604   9.609  0.00  0.00     0.210 HD
ENDBRANCH   6  26
TORSDOF 8
ENDMDL
MODEL 3
REMARK VINA RESULT:      -6.8      2.705      7.004
REMARK  8 active torsions:
REMARK  status: ('A' for Active; 'I' for Inactive)
REMARK    1  A    between atoms: N_2  and  C_4 
REMARK    2  A    between atoms: C_6  and  N_7 
REMARK    3  A    between atoms: C_12  and  O_13 
REMARK    4  A    between atoms: C_14  and  O_13 
REMARK    5  A    between atoms: C_18  and  O_19 
REMARK    6  A    between atoms: C_20  and  O_21 
REMARK    7  A    between atoms: C_22  and  C_23 
REMARK    8  A    between atoms: C_23  and  O_24 
ROOT
HETATM    1  C   UNK N   1      32.310  16.744   7.949  0.00  0.00     0.303 C 
HETATM    2  O   UNK N   1      33.056  15.613   8.373  0.00  0.00    -0.348 OA
HETATM    3  C   UNK N   1      33.309  17.820   7.485  0.00  0.00     0.256 C 
HETATM    4  F   UNK N   1      34.073  17.317   6.443  0.00  0.00    -0.241 F 
HETATM    5  C   UNK N   1      34.215  18.175   8.684  0.00  0.00     0.188 C 
HETATM    6  C   UNK N   1      34.837  16.903   9.304  0.00  0.00     0.180 C 
HETATM    7  C   UNK N   1      33.708  15.894   9.590  0.00  0.00     0.179 C 
ENDROOT
BRANCH   1   8
HETATM    8  O   UNK N   1      31.440  16.375   6.933  0.00  0.00    -0.315 OA
BRANCH   8   9
HETATM    9  C   UNK N   1      30.349  17.112   6.562  0.00  0.00     0.105 A 
HETATM   10  C   UNK N   1      30.144  17.485   5.210  0.00  0.00     0.138 A 
HETATM   11  C   UNK N   1      28.963  18.176   4.867  0.00  0.00     0.075 A 
HETATM   12  C   UNK N   1      28.000  18.501   5.836  0.00  0.00     0.105 A 
HETATM   13  C   UNK N   1      28.232  18.161   7.165  0.00  0.00     0.039 A 
HETATM   14  C   UNK N   1      29.388  17.484   7.520  0.00  0.00     0.042 A 
BRANCH  10  15
HETATM   15  N   UNK N   1      31.098  17.182   4.190  0.00  0.00    -0.113 N 
HETATM   16  O   UNK N   1      31.000  16.078   3.479  0.00  0.00    -0.532 OA
HETATM   17  O   UNK N   1      32.029  17.907   4.009  0.00  0.00    -0.532 OA
ENDBRANCH  10  15
BRANCH  12  18
HETATM   18  N   UNK N   1      26.789  19.154   5.477  0.00  0.00    -0.116 N 
HETATM   19  O   UNK N   1      25.767  18.452   5.033  0.00  0.00    -0.532 OA
HETATM   20  O   UNK N   1      26.703  20.343   5.536  0.00  0.00    -0.532 OA
ENDBRANCH  12  18
ENDBRANCH   8   9
ENDBRANCH   1   8
BRANCH   7  21
HETATM   21  C   UNK N   1      34.223  14.569  10.143  0.00  0.00     0.198 C 
BRANCH  21  22
HETATM   22  O   UNK N   1      34.058  14.512  11.527  0.00  0.00    -0.398 OA
HETATM   23  H   UNK N   1      33.500  13.949  12.085  0.00  0.00     0.209 HD
ENDBRANCH  21  22
ENDBRANCH   7  21
BRANCH   5  24
HETATM   24  O   UNK N   1      35.219  19.062   8.289  0.00  0.00    -0.390 OA
HETATM   25  H   UNK N   1      35.039  19.983   8.045  0.00  0.00     0.210 HD
ENDBRANCH   5  24
BRANCH   6  26
HETATM   26  O   UNK N   1      35.519  17.228  10.479  0.00  0.00    -0.390 OA
HETATM   27  H   UNK N   1      36.323  17.767  10.535  0.00  0.00     0.210 HD
ENDBRANCH   6  26
TORSDOF 8
ENDMDL
MODEL 4
REMARK VINA RESULT:      -6.8      2.641      3.577
REMARK  8 active torsions:
REMARK  status: ('A' for Active; 'I' for Inactive)
REMARK    1  A    between atoms: N_2  and  C_4 
REMARK    2  A    between atoms: C_6  and  N_7 
REMARK    3  A    between atoms: C_12  and  O_13 
REMARK    4  A    between atoms: C_14  and  O_13 
REMARK    5  A    between atoms: C_18  and  O_19 
REMARK    6  A    between atoms: C_20  and  O_21 
REMARK    7  A    between atoms: C_22  and  C_23 
REMARK    8  A    between atoms: C_23  and  O_24 
ROOT
HETATM    1  C   UNK N   1      29.134  17.133   5.817  0.00  0.00     0.303 C 
HETATM    2  O   UNK N   1      28.936  18.330   5.081  0.00  0.00    -0.348 OA
HETATM    3  C   UNK N   1      28.043  16.133   5.392  0.00  0.00     0.256 C 
HETATM    4  F   UNK N   1      28.144  15.895   4.030  0.00  0.00    -0.241 F 
HETATM    5  C   UNK N   1      26.670  16.762   5.719  0.00  0.00     0.188 C 
HETATM    6  C   UNK N   1      26.553  18.181   5.118  0.00  0.00     0.180 C 
HETATM    7  C   UNK N   1      27.787  18.998   5.547  0.00  0.00     0.179 C 
ENDROOT
BRANCH   1   8
HETATM    8  O   UNK N   1      30.408  16.640   5.573  0.00  0.00    -0.315 OA
BRANCH   8   9
HETATM    9  C   UNK N   1      31.506  16.968   6.320  0.00  0.00     0.105 A 
HETATM   10  C   UNK N   1      32.795  17.032   5.736  0.00  0.00     0.138 A 
HETATM   11  C   UNK N   1      33.882  17.454   6.530  0.00  0.00     0.075 A 
HETATM   12  C   UNK N   1      33.708  17.803   7.879  0.00  0.00     0.105 A 
HETATM   13  C   UNK N   1      32.443  17.701   8.450  0.00  0.00     0.039 A 
HETATM   14  C   UNK N   1      31.364  17.287   7.684  0.00  0.00     0.042 A 
BRANCH  10  15
HETATM   15  N   UNK N   1      33.023  16.681   4.369  0.00  0.00    -0.113 N 
HETATM   16  O   UNK N   1      33.597  15.539   4.051  0.00  0.00    -0.532 OA
HETATM   17  O   UNK N   1      32.739  17.449   3.500  0.00  0.00    -0.532 OA
ENDBRANCH  10  15
BRANCH  12  18
HETATM   18  N   UNK N   1      34.797  18.274   8.662  0.00  0.00    -0.116 N 
HETATM   19  O   UNK N   1      35.200  17.588   9.712  0.00  0.00    -0.532 OA
HETATM   20  O   UNK N   1      35.326  19.310   8.399  0.00  0.00    -0.532 OA
ENDBRANCH  12  18
ENDBRANCH   8   9
ENDBRANCH   1   8
BRANCH   7  21
HETATM   21  C   UNK N   1      27.806  20.401   4.949  0.00  0.00     0.198 C 
BRANCH  21  22
HETATM   22  O   UNK N   1      26.967  21.256   5.664  0.00  0.00    -0.398 OA
HETATM   23  H   UNK N   1      26.865  22.220   5.644  0.00  0.00     0.209 HD
ENDBRANCH  21  22
ENDBRANCH   7  21
BRANCH   5  24
HETATM   24  O   UNK N   1      25.637  15.948   5.246  0.00  0.00    -0.390 OA
HETATM   25  H   UNK N   1      25.337  15.964   4.324  0.00  0.00     0.210 HD
ENDBRANCH   5  24
BRANCH   6  26
HETATM   26  O   UNK N   1      25.377  18.792   5.559  0.00  0.00    -0.390 OA
HETATM   27  H   UNK N   1      25.187  19.059   6.472  0.00  0.00     0.210 HD
ENDBRANCH   6  26
TORSDOF 8
ENDMDL
MODEL 5
REMARK VINA RESULT:      -6.8     15.463     17.570
REMARK  8 active torsions:
REMARK  status: ('A' for Active; 'I' for Inactive)
REMARK    1  A    between atoms: N_2  and  C_4 
REMARK    2  A    between atoms: C_6  and  N_7 
REMARK    3  A    between atoms: C_12  and  O_13 
REMARK    4  A    between atoms: C_14  and  O_13 
REMARK    5  A    between atoms: C_18  and  O_19 
REMARK    6  A    between atoms: C_20  and  O_21 
REMARK    7  A    between atoms: C_22  and  C_23 
REMARK    8  A    between atoms: C_23  and  O_24 
ROOT
HETATM    1  C   UNK N   1      26.101  23.343  -6.833  0.00  0.00     0.303 C 
HETATM    2  O   UNK N   1      27.196  22.525  -6.452  0.00  0.00    -0.348 OA
HETATM    3  C   UNK N   1      25.129  22.476  -7.655  0.00  0.00     0.256 C 
HETATM    4  F   UNK N   1      24.700  21.408  -6.881  0.00  0.00    -0.241 F 
HETATM    5  C   UNK N   1      25.890  21.958  -8.896  0.00  0.00     0.188 C 
HETATM    6  C   UNK N   1      27.218  21.280  -8.489  0.00  0.00     0.180 C 
HETATM    7  C   UNK N   1      28.000  22.242  -7.574  0.00  0.00     0.179 C 
ENDROOT
BRANCH   1   8
HETATM    8  O   UNK N   1      25.492  23.866  -5.701  0.00  0.00    -0.315 OA
BRANCH   8   9
HETATM    9  C   UNK N   1      25.708  25.136  -5.240  0.00  0.00     0.105 A 
HETATM   10  C   UNK N   1      26.619  25.386  -4.184  0.00  0.00     0.138 A 
HETATM   11  C   UNK N   1      26.866  26.720  -3.800  0.00  0.00     0.075 A 
HETATM   12  C   UNK N   1      26.224  27.794  -4.439  0.00  0.00     0.105 A 
HETATM   13  C   UNK N   1      25.304  27.532  -5.449  0.00  0.00     0.039 A 
HETATM   14  C   UNK N   1      25.049  26.227  -5.838  0.00  0.00     0.042 A 
BRANCH  10  15
HETATM   15  N   UNK N   1      27.291  24.325  -3.501  0.00  0.00    -0.113 N 
HETATM   16  O   UNK N   1      28.491  23.933  -3.875  0.00  0.00    -0.532 OA
HETATM   17  O   UNK N   1      26.743  23.748  -2.611  0.00  0.00    -0.532 OA
ENDBRANCH  10  15
BRANCH  12  18
HETATM   18  N   UNK N   1      26.513  29.139  -4.080  0.00  0.00    -0.116 N 
HETATM   19  O   UNK N   1      27.047  29.957  -4.964  0.00  0.00    -0.532 OA
HETATM   20  O   UNK N   1      26.313  29.525  -2.969  0.00  0.00    -0.532 OA
ENDBRANCH  12  18
ENDBRANCH   8   9
ENDBRANCH   1   8
BRANCH   7  21
HETATM   21  C   UNK N   1      29.302  21.641  -7.057  0.00  0.00     0.198 C 
BRANCH  21  22
HETATM   22  O   UNK N   1      29.512  21.986  -5.721  0.00  0.00    -0.398 OA
HETATM   23  H   UNK N   1      30.132  22.607  -5.309  0.00  0.00     0.209 HD
ENDBRANCH  21  22
ENDBRANCH   7  21
BRANCH   5  24
HETATM   24  O   UNK N   1      25.093  21.067  -9.619  0.00  0.00    -0.390 OA
HETATM   25  H   UNK N   1      25.398  20.186  -9.885  0.00  0.00     0.210 HD
ENDBRANCH   5  24
BRANCH   6  26
HETATM   26  O   UNK N   1      27.963  20.966  -9.628  0.00  0.00    -0.390 OA
HETATM   27  H   UNK N   1      28.181  20.071  -9.932  0.00  0.00     0.210 HD
ENDBRANCH   6  26
TORSDOF 8
ENDMDL
MODEL 6
REMARK VINA RESULT:      -6.7      4.544      8.511
REMARK  8 active torsions:
REMARK  status: ('A' for Active; 'I' for Inactive)
REMARK    1  A    between atoms: N_2  and  C_4 
REMARK    2  A    between atoms: C_6  and  N_7 
REMARK    3  A    between atoms: C_12  and  O_13 
REMARK    4  A    between atoms: C_14  and  O_13 
REMARK    5  A    between atoms: C_18  and  O_19 
REMARK    6  A    between atoms: C_20  and  O_21 
REMARK    7  A    between atoms: C_22  and  C_23 
REMARK    8  A    between atoms: C_23  and  O_24 
ROOT
HETATM    1  C   UNK N   1      35.330  13.251  12.242  0.00  0.00     0.303 C 
HETATM    2  O   UNK N   1      35.370  13.611  13.614  0.00  0.00    -0.348 OA
HETATM    3  C   UNK N   1      35.160  11.722  12.161  0.00  0.00     0.256 C 
HETATM    4  F   UNK N   1      33.985  11.357  12.801  0.00  0.00    -0.241 F 
HETATM    5  C   UNK N   1      36.371  11.073  12.866  0.00  0.00     0.188 C 
HETATM    6  C   UNK N   1      36.563  11.654  14.285  0.00  0.00     0.180 C 
HETATM    7  C   UNK N   1      36.588  13.192  14.186  0.00  0.00     0.179 C 
ENDROOT
BRANCH   1   8
HETATM    8  O   UNK N   1      34.287  13.919  11.615  0.00  0.00    -0.315 OA
BRANCH   8   9
HETATM    9  C   UNK N   1      34.467  14.929  10.710  0.00  0.00     0.105 A 
HETATM   10  C   UNK N   1      34.064  14.782   9.359  0.00  0.00     0.138 A 
HETATM   11  C   UNK N   1      34.198  15.881   8.485  0.00  0.00     0.075 A 
HETATM   12  C   UNK N   1      34.724  17.105   8.929  0.00  0.00     0.105 A 
HETATM   13  C   UNK N   1      35.150  17.224  10.248  0.00  0.00     0.039 A 
HETATM   14  C   UNK N   1      35.027  16.154  11.119  0.00  0.00     0.042 A 
BRANCH  10  15
HETATM   15  N   UNK N   1      33.529  13.553   8.861  0.00  0.00    -0.113 N 
HETATM   16  O   UNK N   1      32.231  13.397   8.701  0.00  0.00    -0.532 OA
HETATM   17  O   UNK N   1      34.256  12.634   8.634  0.00  0.00    -0.532 OA
ENDBRANCH  10  15
BRANCH  12  18
HETATM   18  N   UNK N   1      34.812  18.225   8.057  0.00  0.00    -0.116 N 
HETATM   19  O   UNK N   1      35.188  19.397   8.524  0.00  0.00    -0.532 OA
HETATM   20  O   UNK N   1      34.508  18.121   6.908  0.00  0.00    -0.532 OA
ENDBRANCH  12  18
ENDBRANCH   8   9
ENDBRANCH   1   8
BRANCH   7  21
HETATM   21  C   UNK N   1      36.706  13.872  15.546  0.00  0.00     0.198 C 
BRANCH  21  22
HETATM   22  O   UNK N   1      37.684  14.866  15.521  0.00  0.00    -0.398 OA
HETATM   23  H   UNK N   1      37.836  15.602  14.908  0.00  0.00     0.209 HD
ENDBRANCH  21  22
ENDBRANCH   7  21
BRANCH   5  24
HETATM   24  O   UNK N   1      36.212   9.686  12.928  0.00  0.00    -0.390 OA
HETATM   25  H   UNK N   1      35.594   9.256  13.539  0.00  0.00     0.210 HD
ENDBRANCH   5  24
BRANCH   6  26
HETATM   26  O   UNK N   1      37.752  11.176  14.841  0.00  0.00    -0.390 OA
HETATM   27  H   UNK N   1      37.820  10.511  15.544  0.00  0.00     0.210 HD
ENDBRANCH   6  26
TORSDOF 8
ENDMDL
MODEL 7
REMARK VINA RESULT:      -6.7      3.195      7.157
REMARK  8 active torsions:
REMARK  status: ('A' for Active; 'I' for Inactive)
REMARK    1  A    between atoms: N_2  and  C_4 
REMARK    2  A    between atoms: C_6  and  N_7 
REMARK    3  A    between atoms: C_12  and  O_13 
REMARK    4  A    between atoms: C_14  and  O_13 
REMARK    5  A    between atoms: C_18  and  O_19 
REMARK    6  A    between atoms: C_20  and  O_21 
REMARK    7  A    between atoms: C_22  and  C_23 
REMARK    8  A    between atoms: C_23  and  O_24 
ROOT
HETATM    1  C   UNK N   1      31.440  16.755   6.800  0.00  0.00     0.303 C 
HETATM    2  O   UNK N   1      32.369  16.947   7.856  0.00  0.00    -0.348 OA
HETATM    3  C   UNK N   1      31.735  15.387   6.156  0.00  0.00     0.256 C 
HETATM    4  F   UNK N   1      31.606  14.392   7.113  0.00  0.00    -0.241 F 
HETATM    5  C   UNK N   1      33.183  15.420   5.618  0.00  0.00     0.188 C 
HETATM    6  C   UNK N   1      34.172  15.874   6.716  0.00  0.00     0.180 C 
HETATM    7  C   UNK N   1      33.653  17.188   7.330  0.00  0.00     0.179 C 
ENDROOT
BRANCH   1   8
HETATM    8  O   UNK N   1      30.147  16.821   7.299  0.00  0.00    -0.315 OA
BRANCH   8   9
HETATM    9  C   UNK N   1      29.229  17.757   6.909  0.00  0.00     0.105 A 
HETATM   10  C   UNK N   1      28.469  18.478   7.863  0.00  0.00     0.138 A 
HETATM   11  C   UNK N   1      27.594  19.489   7.413  0.00  0.00     0.075 A 
HETATM   12  C   UNK N   1      27.463  19.785   6.046  0.00  0.00     0.105 A 
HETATM   13  C   UNK N   1      28.187  19.044   5.117  0.00  0.00     0.039 A 
HETATM   14  C   UNK N   1      29.050  18.046   5.543  0.00  0.00     0.042 A 
BRANCH  10  15
HETATM   15  N   UNK N   1      28.565  18.209   9.263  0.00  0.00    -0.113 N 
HETATM   16  O   UNK N   1      29.483  18.795  10.003  0.00  0.00    -0.532 OA
HETATM   17  O   UNK N   1      27.841  17.404   9.767  0.00  0.00    -0.532 OA
ENDBRANCH  10  15
BRANCH  12  18
HETATM   18  N   UNK N   1      26.616  20.837   5.601  0.00  0.00    -0.116 N 
HETATM   19  O   UNK N   1      26.128  20.818   4.377  0.00  0.00    -0.532 OA
HETATM   20  O   UNK N   1      26.375  21.761   6.315  0.00  0.00    -0.532 OA
ENDBRANCH  12  18
ENDBRANCH   8   9
ENDBRANCH   1   8
BRANCH   7  21
HETATM   21  C   UNK N   1      34.524  17.691   8.476  0.00  0.00     0.198 C 
BRANCH  21  22
HETATM   22  O   UNK N   1      34.941  19.003   8.245  0.00  0.00    -0.398 OA
HETATM   23  H   UNK N   1      34.449  19.838   8.222  0.00  0.00     0.209 HD
ENDBRANCH  21  22
ENDBRANCH   7  21
BRANCH   5  24
HETATM   24  O   UNK N   1      33.548  14.164   5.127  0.00  0.00    -0.390 OA
HETATM   25  H   UNK N   1      32.906  13.452   4.976  0.00  0.00     0.210 HD
ENDBRANCH   5  24
BRANCH   6  26
HETATM   26  O   UNK N   1      35.445  16.052   6.169  0.00  0.00    -0.390 OA
HETATM   27  H   UNK N   1      36.252  16.249   6.668  0.00  0.00     0.210 HD
ENDBRANCH   6  26
TORSDOF 8
ENDMDL
MODEL 8
REMARK VINA RESULT:      -6.6     15.813     18.112
REMARK  8 active torsions:
REMARK  status: ('A' for Active; 'I' for Inactive)
REMARK    1  A    between atoms: N_2  and  C_4 
REMARK    2  A    between atoms: C_6  and  N_7 
REMARK    3  A    between atoms: C_12  and  O_13 
REMARK    4  A    between atoms: C_14  and  O_13 
REMARK    5  A    between atoms: C_18  and  O_19 
REMARK    6  A    between atoms: C_20  and  O_21 
REMARK    7  A    between atoms: C_22  and  C_23 
REMARK    8  A    between atoms: C_23  and  O_24 
ROOT
HETATM    1  C   UNK N   1      26.019  24.049  -6.671  0.00  0.00     0.303 C 
HETATM    2  O   UNK N   1      25.314  23.024  -7.354  0.00  0.00    -0.348 OA
HETATM    3  C   UNK N   1      26.550  25.038  -7.725  0.00  0.00     0.256 C 
HETATM    4  F   UNK N   1      25.484  25.565  -8.439  0.00  0.00    -0.241 F 
HETATM    5  C   UNK N   1      27.489  24.260  -8.674  0.00  0.00     0.188 C 
HETATM    6  C   UNK N   1      26.794  22.996  -9.227  0.00  0.00     0.180 C 
HETATM    7  C   UNK N   1      26.219  22.194  -8.044  0.00  0.00     0.179 C 
ENDROOT
BRANCH   1   8
HETATM    8  O   UNK N   1      25.174  24.670  -5.762  0.00  0.00    -0.315 OA
BRANCH   8   9
HETATM    9  C   UNK N   1      25.503  25.806  -5.073  0.00  0.00     0.105 A 
HETATM   10  C   UNK N   1      26.463  25.778  -4.032  0.00  0.00     0.138 A 
HETATM   11  C   UNK N   1      26.825  26.990  -3.407  0.00  0.00     0.075 A 
HETATM   12  C   UNK N   1      26.249  28.211  -3.795  0.00  0.00     0.105 A 
HETATM   13  C   UNK N   1      25.280  28.219  -4.793  0.00  0.00     0.039 A 
HETATM   14  C   UNK N   1      24.912  27.037  -5.416  0.00  0.00     0.042 A 
BRANCH  10  15
HETATM   15  N   UNK N   1      27.072  24.559  -3.599  0.00  0.00    -0.113 N 
HETATM   16  O   UNK N   1      28.246  24.187  -4.066  0.00  0.00    -0.532 OA
HETATM   17  O   UNK N   1      26.492  23.837  -2.845  0.00  0.00    -0.532 OA
ENDBRANCH  10  15
BRANCH  12  18
HETATM   18  N   UNK N   1      26.652  29.435  -3.195  0.00  0.00    -0.116 N 
HETATM   19  O   UNK N   1      27.349  29.424  -2.077  0.00  0.00    -0.532 OA
HETATM   20  O   UNK N   1      26.330  30.478  -3.675  0.00  0.00    -0.532 OA
ENDBRANCH  12  18
ENDBRANCH   8   9
ENDBRANCH   1   8
BRANCH   7  21
HETATM   21  C   UNK N   1      25.450  20.954  -8.486  0.00  0.00     0.198 C 
BRANCH  21  22
HETATM   22  O   UNK N   1      25.104  21.040  -9.835  0.00  0.00    -0.398 OA
HETATM   23  H   UNK N   1      25.006  20.358 -10.517  0.00  0.00     0.209 HD
ENDBRANCH  21  22
ENDBRANCH   7  21
BRANCH   5  24
HETATM   24  O   UNK N   1      27.909  25.081  -9.724  0.00  0.00    -0.390 OA
HETATM   25  H   UNK N   1      28.556  24.794 -10.387  0.00  0.00     0.210 HD
ENDBRANCH   5  24
BRANCH   6  26
HETATM   26  O   UNK N   1      27.708  22.225  -9.949  0.00  0.00    -0.390 OA
HETATM   27  H   UNK N   1      27.669  21.263 -10.065  0.00  0.00     0.210 HD
ENDBRANCH   6  26
TORSDOF 8
ENDMDL
MODEL 9
REMARK VINA RESULT:      -6.6     10.073     11.840
REMARK  8 active torsions:
REMARK  status: ('A' for Active; 'I' for Inactive)
REMARK    1  A    between atoms: N_2  and  C_4 
REMARK    2  A    between atoms: C_6  and  N_7 
REMARK    3  A    between atoms: C_12  and  O_13 
REMARK    4  A    between atoms: C_14  and  O_13 
REMARK    5  A    between atoms: C_18  and  O_19 
REMARK    6  A    between atoms: C_20  and  O_21 
REMARK    7  A    between atoms: C_22  and  C_23 
REMARK    8  A    between atoms: C_23  and  O_24 
ROOT
HETATM    1  C   UNK N   1      21.469  17.724   3.913  0.00  0.00     0.303 C 
HETATM    2  O   UNK N   1      22.716  18.213   3.445  0.00  0.00    -0.348 OA
HETATM    3  C   UNK N   1      20.389  18.137   2.895  0.00  0.00     0.256 C 
HETATM    4  F   UNK N   1      20.696  17.596   1.656  0.00  0.00    -0.241 F 
HETATM    5  C   UNK N   1      20.380  19.679   2.813  0.00  0.00     0.188 C 
HETATM    6  C   UNK N   1      21.801  20.227   2.547  0.00  0.00     0.180 C 
HETATM    7  C   UNK N   1      22.765  19.614   3.581  0.00  0.00     0.179 C 
ENDROOT
BRANCH   1   8
HETATM    8  O   UNK N   1      21.535  16.346   4.063  0.00  0.00    -0.315 OA
BRANCH   8   9
HETATM    9  C   UNK N   1      21.527  15.712   5.275  0.00  0.00     0.105 A 
HETATM   10  C   UNK N   1      20.351  15.100   5.774  0.00  0.00     0.138 A 
HETATM   11  C   UNK N   1      20.416  14.391   6.991  0.00  0.00     0.075 A 
HETATM   12  C   UNK N   1      21.617  14.287   7.712  0.00  0.00     0.105 A 
HETATM   13  C   UNK N   1      22.756  14.924   7.229  0.00  0.00     0.039 A 
HETATM   14  C   UNK N   1      22.709  15.627   6.035  0.00  0.00     0.042 A 
BRANCH  10  15
HETATM   15  N   UNK N   1      19.104  15.184   5.079  0.00  0.00    -0.113 N 
HETATM   16  O   UNK N   1      18.797  14.318   4.135  0.00  0.00    -0.532 OA
HETATM   17  O   UNK N   1      18.348  16.078   5.314  0.00  0.00    -0.532 OA
ENDBRANCH  10  15
BRANCH  12  18
HETATM   18  N   UNK N   1      21.689  13.531   8.913  0.00  0.00    -0.116 N 
HETATM   19  O   UNK N   1      20.620  12.908   9.365  0.00  0.00    -0.532 OA
HETATM   20  O   UNK N   1      22.702  13.487   9.541  0.00  0.00    -0.532 OA
ENDBRANCH  12  18
ENDBRANCH   8   9
ENDBRANCH   1   8
BRANCH   7  21
HETATM   21  C   UNK N   1      24.214  20.039   3.364  0.00  0.00     0.198 C 
BRANCH  21  22
HETATM   22  O   UNK N   1      24.340  20.795   2.198  0.00  0.00    -0.398 OA
HETATM   23  H   UNK N   1      23.704  21.007   1.498  0.00  0.00     0.209 HD
ENDBRANCH  21  22
ENDBRANCH   7  21
BRANCH   5  24
HETATM   24  O   UNK N   1      19.500  20.109   1.817  0.00  0.00    -0.390 OA
HETATM   25  H   UNK N   1      19.679  19.987   0.871  0.00  0.00     0.210 HD
ENDBRANCH   5  24
BRANCH   6  26
HETATM   26  O   UNK N   1      21.800  21.621   2.637  0.00  0.00    -0.390 OA
HETATM   27  H   UNK N   1      21.033  22.174   2.852  0.00  0.00     0.210 HD
ENDBRANCH   6  26
TORSDOF 8
ENDMDL
