REMARK  5 active torsions:
REMARK  status: ('A' for Active; 'I' for Inactive)
REMARK    1  A    between atoms: N_10  and  C_22 
REMARK    2  A    between atoms: O_19  and  C_24 
REMARK    3  A    between atoms: C_22  and  C_23 
REMARK    4  A    between atoms: C_23  and  C_25 
REMARK    5  A    between atoms: C_24  and  C_25 
ROOT
HETATM    1  C   UNK N   1       4.363   4.497   0.628  0.00  0.00     0.013 A 
HETATM    2  C   UNK N   1       5.743   4.294   0.702  0.00  0.00     0.001 A 
HETATM    3  C   UNK N   1       6.276   3.016   0.507  0.00  0.00     0.001 A 
HETATM    4  C   UNK N   1       5.433   1.935   0.231  0.00  0.00     0.018 A 
HETATM    5  C   UNK N   1       4.044   2.124   0.152  0.00  0.00     0.043 A 
HETATM    6  C   UNK N   1       3.511   3.421   0.355  0.00  0.00    -0.004 A 
HETATM    7  C   UNK N   1       2.132   3.582   0.280  0.00  0.00     0.054 A 
HETATM    8  C   UNK N   1       1.307   2.506   0.009  0.00  0.00     0.063 A 
HETATM    9  C   UNK N   1       3.171   1.042  -0.139  0.00  0.00     0.259 A 
HETATM   10  N   UNK N   1       1.800   1.253  -0.215  0.00  0.00    -0.312 N 
HETATM   11  C   UNK N   1       1.286   4.768   0.444  0.00  0.00     0.196 A 
HETATM   12  C   UNK N   1      -0.096   4.327   0.288  0.00  0.00     0.027 A 
HETATM   13  C   UNK N   1      -0.090   2.969   0.024  0.00  0.00     0.006 A 
HETATM   14  C   UNK N   1      -1.284   5.048   0.387  0.00  0.00     0.016 A 
HETATM   15  C   UNK N   1      -2.494   4.353   0.218  0.00  0.00     0.001 A 
HETATM   16  C   UNK N   1      -2.492   2.967  -0.043  0.00  0.00     0.001 A 
HETATM   17  C   UNK N   1      -1.280   2.264  -0.143  0.00  0.00     0.014 A 
HETATM   18  O   UNK N   1       1.661   5.907   0.672  0.00  0.00    -0.286 OA
HETATM   19  O   UNK N   1       3.629  -0.074  -0.331  0.00  0.00    -0.267 OA
ENDROOT
BRANCH  10  20
HETATM   20  C   UNK N   1       0.892   0.167  -0.581  0.00  0.00     0.133 C 
BRANCH  20  21
HETATM   21  C   UNK N   1       0.703  -0.825   0.553  0.00  0.00     0.031 C 
BRANCH  21  22
HETATM   22  C   UNK N   1      -0.313  -1.894   0.161  0.00  0.00     0.111 C 
BRANCH  22  23
HETATM   23  C   UNK N   1      -1.696  -1.336  -0.002  0.00  0.00     0.139 C 
HETATM   24  O   UNK N   1      -1.954  -0.585  -0.929  0.00  0.00    -0.650 OA
BRANCH  23  25
HETATM   25  O   UNK N   1      -2.666  -1.692   0.859  0.00  0.00    -0.776 OA
HETATM   26  H   UNK N   1      -3.219  -1.230   1.458  0.00  0.00     0.167 HD
ENDBRANCH  23  25
ENDBRANCH  22  23
ENDBRANCH  21  22
ENDBRANCH  20  21
ENDBRANCH  10  20
TORSDOF 5
