MODEL 1
REMARK VINA RESULT:      -7.9      0.000      0.000
REMARK  5 active torsions:
REMARK  status: ('A' for Active; 'I' for Inactive)
REMARK    1  A    between atoms: N_10  and  C_22 
REMARK    2  A    between atoms: O_19  and  C_24 
REMARK    3  A    between atoms: C_22  and  C_23 
REMARK    4  A    between atoms: C_23  and  C_25 
REMARK    5  A    between atoms: C_24  and  C_25 
ROOT
HETATM    1  C   UNK N   1      23.507  12.815   8.887  0.00  0.00     0.013 A 
HETATM    2  C   UNK N   1      23.395  11.830   9.871  0.00  0.00     0.001 A 
HETATM    3  C   UNK N   1      22.241  11.751  10.658  0.00  0.00     0.001 A 
HETATM    4  C   UNK N   1      21.191  12.654  10.461  0.00  0.00     0.018 A 
HETATM    5  C   UNK N   1      21.289  13.648   9.476  0.00  0.00     0.043 A 
HETATM    6  C   UNK N   1      22.463  13.724   8.685  0.00  0.00    -0.004 A 
HETATM    7  C   UNK N   1      22.540  14.723   7.721  0.00  0.00     0.054 A 
HETATM    8  C   UNK N   1      21.497  15.612   7.537  0.00  0.00     0.063 A 
HETATM    9  C   UNK N   1      20.229  14.567   9.252  0.00  0.00     0.259 A 
HETATM   10  N   UNK N   1      20.347  15.542   8.269  0.00  0.00    -0.312 N 
HETATM   11  C   UNK N   1      23.598  15.066   6.766  0.00  0.00     0.196 A 
HETATM   12  C   UNK N   1      23.136  16.234   6.024  0.00  0.00     0.027 A 
HETATM   13  C   UNK N   1      21.873  16.566   6.481  0.00  0.00     0.006 A 
HETATM   14  C   UNK N   1      23.773  16.976   5.031  0.00  0.00     0.016 A 
HETATM   15  C   UNK N   1      23.097  18.089   4.503  0.00  0.00     0.001 A 
HETATM   16  C   UNK N   1      21.813  18.435   4.972  0.00  0.00     0.001 A 
HETATM   17  C   UNK N   1      21.190  17.668   5.970  0.00  0.00     0.014 A 
HETATM   18  O   UNK N   1      24.664  14.490   6.619  0.00  0.00    -0.286 OA
HETATM   19  O   UNK N   1      19.209  14.494   9.920  0.00  0.00    -0.267 OA
ENDROOT
BRANCH  10  20
HETATM   20  C   UNK N   1      19.240  16.452   7.977  0.00  0.00     0.133 C 
BRANCH  20  21
HETATM   21  C   UNK N   1      19.210  17.636   8.927  0.00  0.00     0.031 C 
BRANCH  21  22
HETATM   22  C   UNK N   1      17.871  17.699   9.657  0.00  0.00     0.111 C 
BRANCH  22  23
HETATM   23  C   UNK N   1      17.837  18.780  10.697  0.00  0.00     0.139 C 
HETATM   24  O   UNK N   1      17.006  18.751  11.590  0.00  0.00    -0.650 OA
BRANCH  23  25
HETATM   25  O   UNK N   1      18.749  19.768  10.664  0.00  0.00    -0.776 OA
HETATM   26  H   UNK N   1      19.453  20.035  11.222  0.00  0.00     0.167 HD
ENDBRANCH  23  25
ENDBRANCH  22  23
ENDBRANCH  21  22
ENDBRANCH  20  21
ENDBRANCH  10  20
TORSDOF 5
ENDMDL
MODEL 2
REMARK VINA RESULT:      -7.6      8.401     11.070
REMARK  5 active torsions:
REMARK  status: ('A' for Active; 'I' for Inactive)
REMARK    1  A    between atoms: N_10  and  C_22 
REMARK    2  A    between atoms: O_19  and  C_24 
REMARK    3  A    between atoms: C_22  and  C_23 
REMARK    4  A    between atoms: C_23  and  C_25 
REMARK    5  A    between atoms: C_24  and  C_25 
ROOT
HETATM    1  C   UNK N   1      27.565  18.948   4.161  0.00  0.00     0.013 A 
HETATM    2  C   UNK N   1      26.663  19.996   4.354  0.00  0.00     0.001 A 
HETATM    3  C   UNK N   1      26.524  20.580   5.618  0.00  0.00     0.001 A 
HETATM    4  C   UNK N   1      27.291  20.122   6.694  0.00  0.00     0.018 A 
HETATM    5  C   UNK N   1      28.203  19.069   6.514  0.00  0.00     0.043 A 
HETATM    6  C   UNK N   1      28.335  18.481   5.232  0.00  0.00    -0.004 A 
HETATM    7  C   UNK N   1      29.238  17.435   5.081  0.00  0.00     0.054 A 
HETATM    8  C   UNK N   1      29.990  16.988   6.152  0.00  0.00     0.063 A 
HETATM    9  C   UNK N   1      29.000  18.597   7.591  0.00  0.00     0.259 A 
HETATM   10  N   UNK N   1      29.898  17.556   7.389  0.00  0.00    -0.312 N 
HETATM   11  C   UNK N   1      29.596  16.627   3.911  0.00  0.00     0.196 A 
HETATM   12  C   UNK N   1      30.583  15.649   4.358  0.00  0.00     0.027 A 
HETATM   13  C   UNK N   1      30.825  15.862   5.703  0.00  0.00     0.006 A 
HETATM   14  C   UNK N   1      31.216  14.628   3.653  0.00  0.00     0.016 A 
HETATM   15  C   UNK N   1      32.113  13.802   4.351  0.00  0.00     0.001 A 
HETATM   16  C   UNK N   1      32.357  14.011   5.724  0.00  0.00     0.001 A 
HETATM   17  C   UNK N   1      31.709  15.051   6.411  0.00  0.00     0.014 A 
HETATM   18  O   UNK N   1      29.154  16.744   2.779  0.00  0.00    -0.286 OA
HETATM   19  O   UNK N   1      28.901  19.114   8.693  0.00  0.00    -0.267 OA
ENDROOT
BRANCH  10  20
HETATM   20  C   UNK N   1      30.776  17.102   8.467  0.00  0.00     0.133 C 
BRANCH  20  21
HETATM   21  C   UNK N   1      31.942  18.049   8.689  0.00  0.00     0.031 C 
BRANCH  21  22
HETATM   22  C   UNK N   1      33.266  17.300   8.566  0.00  0.00     0.111 C 
BRANCH  22  23
HETATM   23  C   UNK N   1      34.286  18.067   7.778  0.00  0.00     0.139 C 
HETATM   24  O   UNK N   1      34.495  17.795   6.606  0.00  0.00    -0.650 OA
BRANCH  23  25
HETATM   25  O   UNK N   1      34.952  19.083   8.356  0.00  0.00    -0.776 OA
HETATM   26  H   UNK N   1      34.921  20.017   8.286  0.00  0.00     0.167 HD
ENDBRANCH  23  25
ENDBRANCH  22  23
ENDBRANCH  21  22
ENDBRANCH  20  21
ENDBRANCH  10  20
TORSDOF 5
ENDMDL
MODEL 3
REMARK VINA RESULT:      -7.5     16.454     18.362
REMARK  5 active torsions:
REMARK  status: ('A' for Active; 'I' for Inactive)
REMARK    1  A    between atoms: N_10  and  C_22 
REMARK    2  A    between atoms: O_19  and  C_24 
REMARK    3  A    between atoms: C_22  and  C_23 
REMARK    4  A    between atoms: C_23  and  C_25 
REMARK    5  A    between atoms: C_24  and  C_25 
ROOT
HETATM    1  C   UNK N   1      25.209  26.114  -5.938  0.00  0.00     0.013 A 
HETATM    2  C   UNK N   1      24.779  27.316  -5.371  0.00  0.00     0.001 A 
HETATM    3  C   UNK N   1      25.614  28.016  -4.494  0.00  0.00     0.001 A 
HETATM    4  C   UNK N   1      26.885  27.522  -4.184  0.00  0.00     0.018 A 
HETATM    5  C   UNK N   1      27.331  26.316  -4.748  0.00  0.00     0.043 A 
HETATM    6  C   UNK N   1      26.478  25.610  -5.632  0.00  0.00    -0.004 A 
HETATM    7  C   UNK N   1      26.939  24.414  -6.172  0.00  0.00     0.054 A 
HETATM    8  C   UNK N   1      28.196  23.933  -5.857  0.00  0.00     0.063 A 
HETATM    9  C   UNK N   1      28.623  25.803  -4.457  0.00  0.00     0.259 A 
HETATM   10  N   UNK N   1      29.044  24.609  -5.028  0.00  0.00    -0.312 N 
HETATM   11  C   UNK N   1      26.310  23.463  -7.094  0.00  0.00     0.196 A 
HETATM   12  C   UNK N   1      27.257  22.369  -7.283  0.00  0.00     0.027 A 
HETATM   13  C   UNK N   1      28.393  22.647  -6.544  0.00  0.00     0.006 A 
HETATM   14  C   UNK N   1      27.137  21.199  -8.029  0.00  0.00     0.016 A 
HETATM   15  C   UNK N   1      28.208  20.290  -8.008  0.00  0.00     0.001 A 
HETATM   16  C   UNK N   1      29.365  20.565  -7.250  0.00  0.00     0.001 A 
HETATM   17  C   UNK N   1      29.463  21.755  -6.510  0.00  0.00     0.014 A 
HETATM   18  O   UNK N   1      25.206  23.562  -7.604  0.00  0.00    -0.286 OA
HETATM   19  O   UNK N   1      29.367  26.418  -3.708  0.00  0.00    -0.267 OA
ENDROOT
BRANCH  10  20
HETATM   20  C   UNK N   1      30.395  24.100  -4.795  0.00  0.00     0.133 C 
BRANCH  20  21
HETATM   21  C   UNK N   1      30.631  23.757  -3.335  0.00  0.00     0.031 C 
BRANCH  21  22
HETATM   22  C   UNK N   1      30.256  22.303  -3.062  0.00  0.00     0.111 C 
BRANCH  22  23
HETATM   23  C   UNK N   1      31.445  21.388  -3.106  0.00  0.00     0.139 C 
HETATM   24  O   UNK N   1      31.605  20.627  -4.046  0.00  0.00    -0.650 OA
BRANCH  23  25
HETATM   25  O   UNK N   1      32.357  21.432  -2.119  0.00  0.00    -0.776 OA
HETATM   26  H   UNK N   1      32.408  21.082  -1.251  0.00  0.00     0.167 HD
ENDBRANCH  23  25
ENDBRANCH  22  23
ENDBRANCH  21  22
ENDBRANCH  20  21
ENDBRANCH  10  20
TORSDOF 5
ENDMDL
MODEL 4
REMARK VINA RESULT:      -7.3      3.290      6.493
REMARK  5 active torsions:
REMARK  status: ('A' for Active; 'I' for Inactive)
REMARK    1  A    between atoms: N_10  and  C_22 
REMARK    2  A    between atoms: O_19  and  C_24 
REMARK    3  A    between atoms: C_22  and  C_23 
REMARK    4  A    between atoms: C_23  and  C_25 
REMARK    5  A    between atoms: C_24  and  C_25 
ROOT
HETATM    1  C   UNK N   1      26.276  20.275   3.904  0.00  0.00     0.013 A 
HETATM    2  C   UNK N   1      27.612  20.249   4.311  0.00  0.00     0.001 A 
HETATM    3  C   UNK N   1      28.111  19.148   5.015  0.00  0.00     0.001 A 
HETATM    4  C   UNK N   1      27.278  18.064   5.310  0.00  0.00     0.018 A 
HETATM    5  C   UNK N   1      25.934  18.075   4.906  0.00  0.00     0.043 A 
HETATM    6  C   UNK N   1      25.435  19.196   4.197  0.00  0.00    -0.004 A 
HETATM    7  C   UNK N   1      24.098  19.187   3.814  0.00  0.00     0.054 A 
HETATM    8  C   UNK N   1      23.283  18.111   4.113  0.00  0.00     0.063 A 
HETATM    9  C   UNK N   1      25.074  16.979   5.185  0.00  0.00     0.259 A 
HETATM   10  N   UNK N   1      23.748  17.010   4.773  0.00  0.00    -0.312 N 
HETATM   11  C   UNK N   1      23.292  20.175   3.090  0.00  0.00     0.196 A 
HETATM   12  C   UNK N   1      21.939  19.637   3.006  0.00  0.00     0.027 A 
HETATM   13  C   UNK N   1      21.927  18.396   3.617  0.00  0.00     0.006 A 
HETATM   14  C   UNK N   1      20.786  20.193   2.454  0.00  0.00     0.016 A 
HETATM   15  C   UNK N   1      19.592  19.456   2.540  0.00  0.00     0.001 A 
HETATM   16  C   UNK N   1      19.575  18.194   3.170  0.00  0.00     0.001 A 
HETATM   17  C   UNK N   1      20.752  17.654   3.714  0.00  0.00     0.014 A 
HETATM   18  O   UNK N   1      23.675  21.245   2.646  0.00  0.00    -0.286 OA
HETATM   19  O   UNK N   1      25.506  16.004   5.781  0.00  0.00    -0.267 OA
ENDROOT
BRANCH  10  20
HETATM   20  C   UNK N   1      22.867  15.864   4.990  0.00  0.00     0.133 C 
BRANCH  20  21
HETATM   21  C   UNK N   1      22.458  15.726   6.445  0.00  0.00     0.031 C 
BRANCH  21  22
HETATM   22  C   UNK N   1      20.989  16.098   6.623  0.00  0.00     0.111 C 
BRANCH  22  23
HETATM   23  C   UNK N   1      20.805  17.300   7.502  0.00  0.00     0.139 C 
HETATM   24  O   UNK N   1      20.392  17.174   8.643  0.00  0.00    -0.650 OA
BRANCH  23  25
HETATM   25  O   UNK N   1      21.129  18.521   7.040  0.00  0.00    -0.776 OA
HETATM   26  H   UNK N   1      21.461  19.307   7.428  0.00  0.00     0.167 HD
ENDBRANCH  23  25
ENDBRANCH  22  23
ENDBRANCH  21  22
ENDBRANCH  20  21
ENDBRANCH  10  20
TORSDOF 5
ENDMDL
MODEL 5
REMARK VINA RESULT:      -7.2      4.427      7.405
REMARK  5 active torsions:
REMARK  status: ('A' for Active; 'I' for Inactive)
REMARK    1  A    between atoms: N_10  and  C_22 
REMARK    2  A    between atoms: O_19  and  C_24 
REMARK    3  A    between atoms: C_22  and  C_23 
REMARK    4  A    between atoms: C_23  and  C_25 
REMARK    5  A    between atoms: C_24  and  C_25 
ROOT
HETATM    1  C   UNK N   1      26.777  17.999   4.876  0.00  0.00     0.013 A 
HETATM    2  C   UNK N   1      27.819  18.829   4.455  0.00  0.00     0.001 A 
HETATM    3  C   UNK N   1      27.540  20.000   3.744  0.00  0.00     0.001 A 
HETATM    4  C   UNK N   1      26.218  20.350   3.453  0.00  0.00     0.018 A 
HETATM    5  C   UNK N   1      25.160  19.527   3.870  0.00  0.00     0.043 A 
HETATM    6  C   UNK N   1      25.451  18.340   4.587  0.00  0.00    -0.004 A 
HETATM    7  C   UNK N   1      24.387  17.536   4.983  0.00  0.00     0.054 A 
HETATM    8  C   UNK N   1      23.084  17.891   4.689  0.00  0.00     0.063 A 
HETATM    9  C   UNK N   1      23.809  19.871   3.596  0.00  0.00     0.259 A 
HETATM   10  N   UNK N   1      22.779  19.042   4.022  0.00  0.00    -0.312 N 
HETATM   11  C   UNK N   1      24.354  16.268   5.718  0.00  0.00     0.196 A 
HETATM   12  C   UNK N   1      22.953  15.871   5.814  0.00  0.00     0.027 A 
HETATM   13  C   UNK N   1      22.185  16.843   5.199  0.00  0.00     0.006 A 
HETATM   14  C   UNK N   1      22.380  14.733   6.379  0.00  0.00     0.016 A 
HETATM   15  C   UNK N   1      20.984  14.590   6.302  0.00  0.00     0.001 A 
HETATM   16  C   UNK N   1      20.198  15.575   5.669  0.00  0.00     0.001 A 
HETATM   17  C   UNK N   1      20.800  16.716   5.111  0.00  0.00     0.014 A 
HETATM   18  O   UNK N   1      25.312  15.656   6.162  0.00  0.00    -0.286 OA
HETATM   19  O   UNK N   1      23.555  20.902   2.993  0.00  0.00    -0.267 OA
ENDROOT
BRANCH  10  20
HETATM   20  C   UNK N   1      21.380  19.413   3.810  0.00  0.00     0.133 C 
BRANCH  20  21
HETATM   21  C   UNK N   1      20.897  19.044   2.418  0.00  0.00     0.031 C 
BRANCH  21  22
HETATM   22  C   UNK N   1      19.945  20.111   1.886  0.00  0.00     0.111 C 
BRANCH  22  23
HETATM   23  C   UNK N   1      20.624  21.070   0.953  0.00  0.00     0.139 C 
HETATM   24  O   UNK N   1      21.289  20.655   0.017  0.00  0.00    -0.650 OA
BRANCH  23  25
HETATM   25  O   UNK N   1      20.471  22.395   1.129  0.00  0.00    -0.776 OA
HETATM   26  H   UNK N   1      20.981  23.070   1.533  0.00  0.00     0.167 HD
ENDBRANCH  23  25
ENDBRANCH  22  23
ENDBRANCH  21  22
ENDBRANCH  20  21
ENDBRANCH  10  20
TORSDOF 5
ENDMDL
MODEL 6
REMARK VINA RESULT:      -7.2     17.258     18.427
REMARK  5 active torsions:
REMARK  status: ('A' for Active; 'I' for Inactive)
REMARK    1  A    between atoms: N_10  and  C_22 
REMARK    2  A    between atoms: O_19  and  C_24 
REMARK    3  A    between atoms: C_22  and  C_23 
REMARK    4  A    between atoms: C_23  and  C_25 
REMARK    5  A    between atoms: C_24  and  C_25 
ROOT
HETATM    1  C   UNK N   1      28.362  28.232  -3.386  0.00  0.00     0.013 A 
HETATM    2  C   UNK N   1      27.540  29.356  -3.282  0.00  0.00     0.001 A 
HETATM    3  C   UNK N   1      26.239  29.324  -3.794  0.00  0.00     0.001 A 
HETATM    4  C   UNK N   1      25.751  28.167  -4.408  0.00  0.00     0.018 A 
HETATM    5  C   UNK N   1      26.566  27.029  -4.520  0.00  0.00     0.043 A 
HETATM    6  C   UNK N   1      27.884  27.070  -4.002  0.00  0.00    -0.004 A 
HETATM    7  C   UNK N   1      28.675  25.934  -4.131  0.00  0.00     0.054 A 
HETATM    8  C   UNK N   1      28.183  24.795  -4.743  0.00  0.00     0.063 A 
HETATM    9  C   UNK N   1      26.086  25.839  -5.129  0.00  0.00     0.259 A 
HETATM   10  N   UNK N   1      26.909  24.724  -5.226  0.00  0.00    -0.312 N 
HETATM   11  C   UNK N   1      30.054  25.662  -3.715  0.00  0.00     0.196 A 
HETATM   12  C   UNK N   1      30.366  24.304  -4.146  0.00  0.00     0.027 A 
HETATM   13  C   UNK N   1      29.246  23.776  -4.762  0.00  0.00     0.006 A 
HETATM   14  C   UNK N   1      31.549  23.576  -4.032  0.00  0.00     0.016 A 
HETATM   15  C   UNK N   1      31.581  22.278  -4.571  0.00  0.00     0.001 A 
HETATM   16  C   UNK N   1      30.443  21.741  -5.207  0.00  0.00     0.001 A 
HETATM   17  C   UNK N   1      29.261  22.493  -5.305  0.00  0.00     0.014 A 
HETATM   18  O   UNK N   1      30.802  26.424  -3.125  0.00  0.00    -0.286 OA
HETATM   19  O   UNK N   1      24.944  25.795  -5.562  0.00  0.00    -0.267 OA
ENDROOT
BRANCH  10  20
HETATM   20  C   UNK N   1      26.411  23.469  -5.788  0.00  0.00     0.133 C 
BRANCH  20  21
HETATM   21  C   UNK N   1      26.474  23.459  -7.305  0.00  0.00     0.031 C 
BRANCH  21  22
HETATM   22  C   UNK N   1      26.430  22.026  -7.829  0.00  0.00     0.111 C 
BRANCH  22  23
HETATM   23  C   UNK N   1      25.143  21.715  -8.534  0.00  0.00     0.139 C 
HETATM   24  O   UNK N   1      24.093  22.205  -8.149  0.00  0.00    -0.650 OA
BRANCH  23  25
HETATM   25  O   UNK N   1      25.151  20.917  -9.617  0.00  0.00    -0.776 OA
HETATM   26  H   UNK N   1      25.815  20.466 -10.100  0.00  0.00     0.167 HD
ENDBRANCH  23  25
ENDBRANCH  22  23
ENDBRANCH  21  22
ENDBRANCH  20  21
ENDBRANCH  10  20
TORSDOF 5
ENDMDL
MODEL 7
REMARK VINA RESULT:      -7.1      3.467      5.239
REMARK  5 active torsions:
REMARK  status: ('A' for Active; 'I' for Inactive)
REMARK    1  A    between atoms: N_10  and  C_22 
REMARK    2  A    between atoms: O_19  and  C_24 
REMARK    3  A    between atoms: C_22  and  C_23 
REMARK    4  A    between atoms: C_23  and  C_25 
REMARK    5  A    between atoms: C_24  and  C_25 
ROOT
HETATM    1  C   UNK N   1      24.114  14.442   6.858  0.00  0.00     0.013 A 
HETATM    2  C   UNK N   1      23.403  13.466   7.560  0.00  0.00     0.001 A 
HETATM    3  C   UNK N   1      22.017  13.579   7.711  0.00  0.00     0.001 A 
HETATM    4  C   UNK N   1      21.334  14.666   7.156  0.00  0.00     0.018 A 
HETATM    5  C   UNK N   1      22.035  15.654   6.447  0.00  0.00     0.043 A 
HETATM    6  C   UNK N   1      23.439  15.534   6.301  0.00  0.00    -0.004 A 
HETATM    7  C   UNK N   1      24.113  16.529   5.601  0.00  0.00     0.054 A 
HETATM    8  C   UNK N   1      23.428  17.601   5.059  0.00  0.00     0.063 A 
HETATM    9  C   UNK N   1      21.359  16.759   5.865  0.00  0.00     0.259 A 
HETATM   10  N   UNK N   1      22.073  17.723   5.164  0.00  0.00    -0.312 N 
HETATM   11  C   UNK N   1      25.535  16.697   5.287  0.00  0.00     0.196 A 
HETATM   12  C   UNK N   1      25.660  17.952   4.554  0.00  0.00     0.027 A 
HETATM   13  C   UNK N   1      24.397  18.499   4.411  0.00  0.00     0.006 A 
HETATM   14  C   UNK N   1      26.795  18.592   4.058  0.00  0.00     0.016 A 
HETATM   15  C   UNK N   1      26.625  19.826   3.407  0.00  0.00     0.001 A 
HETATM   16  C   UNK N   1      25.340  20.390   3.267  0.00  0.00     0.001 A 
HETATM   17  C   UNK N   1      24.212  19.723   3.771  0.00  0.00     0.014 A 
HETATM   18  O   UNK N   1      26.443  15.939   5.584  0.00  0.00    -0.286 OA
HETATM   19  O   UNK N   1      20.146  16.856   5.974  0.00  0.00    -0.267 OA
ENDROOT
BRANCH  10  20
HETATM   20  C   UNK N   1      21.387  18.831   4.500  0.00  0.00     0.133 C 
BRANCH  20  21
HETATM   21  C   UNK N   1      20.942  18.466   3.095  0.00  0.00     0.031 C 
BRANCH  21  22
HETATM   22  C   UNK N   1      20.158  19.616   2.470  0.00  0.00     0.111 C 
BRANCH  22  23
HETATM   23  C   UNK N   1      21.052  20.636   1.828  0.00  0.00     0.139 C 
HETATM   24  O   UNK N   1      21.342  20.547   0.646  0.00  0.00    -0.650 OA
BRANCH  23  25
HETATM   25  O   UNK N   1      21.509  21.673   2.552  0.00  0.00    -0.776 OA
HETATM   26  H   UNK N   1      21.541  21.877   3.466  0.00  0.00     0.167 HD
ENDBRANCH  23  25
ENDBRANCH  22  23
ENDBRANCH  21  22
ENDBRANCH  20  21
ENDBRANCH  10  20
TORSDOF 5
ENDMDL
MODEL 8
REMARK VINA RESULT:      -7.1     17.210     18.903
REMARK  5 active torsions:
REMARK  status: ('A' for Active; 'I' for Inactive)
REMARK    1  A    between atoms: N_10  and  C_22 
REMARK    2  A    between atoms: O_19  and  C_24 
REMARK    3  A    between atoms: C_22  and  C_23 
REMARK    4  A    between atoms: C_23  and  C_25 
REMARK    5  A    between atoms: C_24  and  C_25 
ROOT
HETATM    1  C   UNK N   1      29.708  22.179  -5.129  0.00  0.00     0.013 A 
HETATM    2  C   UNK N   1      30.402  21.023  -5.496  0.00  0.00     0.001 A 
HETATM    3  C   UNK N   1      30.057  20.338  -6.665  0.00  0.00     0.001 A 
HETATM    4  C   UNK N   1      29.021  20.808  -7.478  0.00  0.00     0.018 A 
HETATM    5  C   UNK N   1      28.315  21.969  -7.123  0.00  0.00     0.043 A 
HETATM    6  C   UNK N   1      28.667  22.655  -5.935  0.00  0.00    -0.004 A 
HETATM    7  C   UNK N   1      27.949  23.797  -5.600  0.00  0.00     0.054 A 
HETATM    8  C   UNK N   1      26.924  24.252  -6.409  0.00  0.00     0.063 A 
HETATM    9  C   UNK N   1      27.267  22.470  -7.941  0.00  0.00     0.259 A 
HETATM   10  N   UNK N   1      26.584  23.622  -7.571  0.00  0.00    -0.312 N 
HETATM   11  C   UNK N   1      28.060  24.710  -4.458  0.00  0.00     0.196 A 
HETATM   12  C   UNK N   1      27.016  25.717  -4.618  0.00  0.00     0.027 A 
HETATM   13  C   UNK N   1      26.332  25.449  -5.790  0.00  0.00     0.006 A 
HETATM   14  C   UNK N   1      26.667  26.785  -3.795  0.00  0.00     0.016 A 
HETATM   15  C   UNK N   1      25.583  27.591  -4.184  0.00  0.00     0.001 A 
HETATM   16  C   UNK N   1      24.878  27.316  -5.373  0.00  0.00     0.001 A 
HETATM   17  C   UNK N   1      25.253  26.235  -6.189  0.00  0.00     0.014 A 
HETATM   18  O   UNK N   1      28.866  24.642  -3.544  0.00  0.00    -0.286 OA
HETATM   19  O   UNK N   1      26.972  21.890  -8.975  0.00  0.00    -0.267 OA
ENDROOT
BRANCH  10  20
HETATM   20  C   UNK N   1      25.550  24.191  -8.434  0.00  0.00     0.133 C 
BRANCH  20  21
HETATM   21  C   UNK N   1      26.139  25.023  -9.559  0.00  0.00     0.031 C 
BRANCH  21  22
HETATM   22  C   UNK N   1      25.181  26.144  -9.950  0.00  0.00     0.111 C 
BRANCH  22  23
HETATM   23  C   UNK N   1      24.349  25.793 -11.149  0.00  0.00     0.139 C 
HETATM   24  O   UNK N   1      24.425  24.683 -11.649  0.00  0.00    -0.650 OA
BRANCH  23  25
HETATM   25  O   UNK N   1      23.490  26.697 -11.654  0.00  0.00    -0.776 OA
HETATM   26  H   UNK N   1      22.583  26.686 -11.887  0.00  0.00     0.167 HD
ENDBRANCH  23  25
ENDBRANCH  22  23
ENDBRANCH  21  22
ENDBRANCH  20  21
ENDBRANCH  10  20
TORSDOF 5
ENDMDL
MODEL 9
REMARK VINA RESULT:      -7.1     15.048     17.355
REMARK  5 active torsions:
REMARK  status: ('A' for Active; 'I' for Inactive)
REMARK    1  A    between atoms: N_10  and  C_22 
REMARK    2  A    between atoms: O_19  and  C_24 
REMARK    3  A    between atoms: C_22  and  C_23 
REMARK    4  A    between atoms: C_23  and  C_25 
REMARK    5  A    between atoms: C_24  and  C_25 
ROOT
HETATM    1  C   UNK N   1      35.468  11.020  18.841  0.00  0.00     0.013 A 
HETATM    2  C   UNK N   1      35.375  12.169  19.630  0.00  0.00     0.001 A 
HETATM    3  C   UNK N   1      35.175  13.417  19.031  0.00  0.00     0.001 A 
HETATM    4  C   UNK N   1      35.060  13.522  17.642  0.00  0.00     0.018 A 
HETATM    5  C   UNK N   1      35.150  12.376  16.836  0.00  0.00     0.043 A 
HETATM    6  C   UNK N   1      35.358  11.116  17.449  0.00  0.00    -0.004 A 
HETATM    7  C   UNK N   1      35.452   9.996  16.630  0.00  0.00     0.054 A 
HETATM    8  C   UNK N   1      35.340  10.112  15.257  0.00  0.00     0.063 A 
HETATM    9  C   UNK N   1      35.025  12.459  15.424  0.00  0.00     0.259 A 
HETATM   10  N   UNK N   1      35.114  11.312  14.646  0.00  0.00    -0.312 N 
HETATM   11  C   UNK N   1      35.666   8.581  16.947  0.00  0.00     0.196 A 
HETATM   12  C   UNK N   1      35.709   7.864  15.677  0.00  0.00     0.027 A 
HETATM   13  C   UNK N   1      35.511   8.778  14.657  0.00  0.00     0.006 A 
HETATM   14  C   UNK N   1      35.924   6.513  15.416  0.00  0.00     0.016 A 
HETATM   15  C   UNK N   1      35.944   6.094  14.074  0.00  0.00     0.001 A 
HETATM   16  C   UNK N   1      35.751   7.025  13.032  0.00  0.00     0.001 A 
HETATM   17  C   UNK N   1      35.531   8.381  13.322  0.00  0.00     0.014 A 
HETATM   18  O   UNK N   1      35.790   8.092  18.058  0.00  0.00    -0.286 OA
HETATM   19  O   UNK N   1      34.829  13.542  14.894  0.00  0.00    -0.267 OA
ENDROOT
BRANCH  10  20
HETATM   20  C   UNK N   1      34.919  11.368  13.198  0.00  0.00     0.133 C 
BRANCH  20  21
HETATM   21  C   UNK N   1      36.191  11.757  12.466  0.00  0.00     0.031 C 
BRANCH  21  22
HETATM   22  C   UNK N   1      35.881  12.757  11.356  0.00  0.00     0.111 C 
BRANCH  22  23
HETATM   23  C   UNK N   1      35.519  14.111  11.890  0.00  0.00     0.139 C 
HETATM   24  O   UNK N   1      34.392  14.555  11.736  0.00  0.00    -0.650 OA
BRANCH  23  25
HETATM   25  O   UNK N   1      36.430  14.826  12.574  0.00  0.00    -0.776 OA
HETATM   26  H   UNK N   1      36.753  14.815  13.453  0.00  0.00     0.167 HD
ENDBRANCH  23  25
ENDBRANCH  22  23
ENDBRANCH  21  22
ENDBRANCH  20  21
ENDBRANCH  10  20
TORSDOF 5
ENDMDL
