REMARK  8 active torsions:
REMARK  status: ('A' for Active; 'I' for Inactive)
REMARK    1  A    between atoms: C_2  and  N_1 
REMARK    2  A    between atoms: C_2  and  C_3 
REMARK    3  A    between atoms: C_2  and  C_7 
REMARK    4  A    between atoms: C_3  and  C_4 
REMARK    5  A    between atoms: C_4  and  S_5 
REMARK    6  A    between atoms: C_7  and  O_8 
REMARK    7  A    between atoms: C_7  and  O_9 
REMARK    8  A    between atoms: C_7  and  C_10 
ROOT
HETATM    1  C   UNK N   1       1.315   0.072   0.920  0.00  0.00     0.231 C 
ENDROOT
BRANCH   1   2
HETATM    2  C   UNK N   1       0.497   0.943  -0.082  0.00  0.00     0.144 C 
BRANCH   2   3
HETATM    3  N   UNK N   1       0.820   0.697  -1.486  0.00  0.00    -0.421 N 
HETATM    4  H   UNK N   1       0.784   0.416  -2.466  0.00  0.00     0.150 HD
HETATM    5  H   UNK N   1       1.761   1.091  -1.486  0.00  0.00     0.150 HD
ENDBRANCH   2   3
BRANCH   2   6
HETATM    6  C   UNK N   1      -1.026   0.851   0.100  0.00  0.00     0.040 C 
BRANCH   6   7
HETATM    7  C   UNK N   1      -1.623  -0.439  -0.452  0.00  0.00     0.075 C 
BRANCH   7   8
HETATM    8  S   UNK N   1      -3.250  -0.744   0.300  0.00  0.00    -0.173 SA
HETATM    9  C   UNK N   1      -4.051   0.628  -0.583  0.00  0.00     0.089 C 
ENDBRANCH   7   8
ENDBRANCH   6   7
ENDBRANCH   2   6
ENDBRANCH   1   2
BRANCH   1  10
HETATM   10  O   UNK N   1       0.470  -0.637   1.700  0.00  0.00    -0.359 OA
HETATM   11  H   UNK N   1      -0.249  -0.375   2.240  0.00  0.00     0.213 HD
ENDBRANCH   1  10
BRANCH   1  12
HETATM   12  O   UNK N   1       2.092   0.903   1.650  0.00  0.00    -0.359 OA
HETATM   13  H   UNK N   1       2.860   0.724   2.155  0.00  0.00     0.213 HD
ENDBRANCH   1  12
BRANCH   1  14
HETATM   14  C   UNK N   1       2.189  -0.871   0.172  0.00  0.00     0.115 A 
HETATM   15  N   UNK N   1       3.454  -0.592  -0.226  0.00  0.00    -0.359 N 
HETATM   16  C   UNK N   1       4.052  -1.657  -0.869  0.00  0.00     0.096 A 
ATOM     17  HN  UNK N   1       3.913   0.305  -0.067  1.00  0.00     0.165 HD
HETATM   18  C   UNK N   1       3.257  -2.812  -0.988  0.00  0.00     0.068 A 
HETATM   19  S   UNK N   1       1.818  -2.420  -0.264  0.00  0.00    -0.082 SA
ENDBRANCH   1  14
TORSDOF 8
