MODEL 1
REMARK VINA RESULT:      -4.7      0.000      0.000
REMARK  8 active torsions:
REMARK  status: ('A' for Active; 'I' for Inactive)
REMARK    1  A    between atoms: C_2  and  N_1 
REMARK    2  A    between atoms: C_2  and  C_3 
REMARK    3  A    between atoms: C_2  and  C_7 
REMARK    4  A    between atoms: C_3  and  C_4 
REMARK    5  A    between atoms: C_4  and  S_5 
REMARK    6  A    between atoms: C_7  and  O_8 
REMARK    7  A    between atoms: C_7  and  O_9 
REMARK    8  A    between atoms: C_7  and  C_10 
ROOT
HETATM    1  C   UNK N   1      28.173  18.180   8.174  0.00  0.00     0.231 C 
ENDROOT
BRANCH   1   2
HETATM    2  C   UNK N   1      29.677  18.431   8.500  0.00  0.00     0.144 C 
BRANCH   2   3
HETATM    3  N   UNK N   1      29.971  18.508   9.930  0.00  0.00    -0.421 N 
HETATM    4  H   UNK N   1      30.265  18.821  10.855  0.00  0.00     0.150 HD
HETATM    5  H   UNK N   1      29.649  17.576  10.191  0.00  0.00     0.150 HD
ENDBRANCH   2   3
BRANCH   2   6
HETATM    6  C   UNK N   1      30.639  17.425   7.849  0.00  0.00     0.040 C 
BRANCH   6   7
HETATM    7  C   UNK N   1      32.042  17.460   8.446  0.00  0.00     0.075 C 
BRANCH   7   8
HETATM    8  S   UNK N   1      33.280  17.593   7.121  0.00  0.00    -0.173 SA
HETATM    9  C   UNK N   1      34.504  18.418   8.181  0.00  0.00     0.089 C 
ENDBRANCH   7   8
ENDBRANCH   6   7
ENDBRANCH   2   6
ENDBRANCH   1   2
BRANCH   1  10
HETATM   10  O   UNK N   1      27.433  18.334   9.294  0.00  0.00    -0.359 OA
HETATM   11  H   UNK N   1      26.959  19.067   9.633  0.00  0.00     0.213 HD
ENDBRANCH   1  10
BRANCH   1  12
HETATM   12  O   UNK N   1      28.063  16.932   7.668  0.00  0.00    -0.359 OA
HETATM   13  H   UNK N   1      27.820  16.646   6.810  0.00  0.00     0.213 HD
ENDBRANCH   1  12
BRANCH   1  14
HETATM   14  C   UNK N   1      27.709  19.156   7.151  0.00  0.00     0.115 A 
HETATM   15  N   UNK N   1      26.967  20.257   7.422  0.00  0.00    -0.359 N 
HETATM   16  C   UNK N   1      26.707  21.009   6.295  0.00  0.00     0.096 A 
ATOM     17  HN  UNK N   1      26.639  20.502   8.357  1.00  0.00     0.165 HD
HETATM   18  C   UNK N   1      27.250  20.508   5.098  0.00  0.00     0.068 A 
HETATM   19  S   UNK N   1      28.042  19.118   5.534  0.00  0.00    -0.082 SA
ENDBRANCH   1  14
TORSDOF 8
ENDMDL
MODEL 2
REMARK VINA RESULT:      -4.6     14.132     16.703
REMARK  8 active torsions:
REMARK  status: ('A' for Active; 'I' for Inactive)
REMARK    1  A    between atoms: C_2  and  N_1 
REMARK    2  A    between atoms: C_2  and  C_3 
REMARK    3  A    between atoms: C_2  and  C_7 
REMARK    4  A    between atoms: C_3  and  C_4 
REMARK    5  A    between atoms: C_4  and  S_5 
REMARK    6  A    between atoms: C_7  and  O_8 
REMARK    7  A    between atoms: C_7  and  O_9 
REMARK    8  A    between atoms: C_7  and  C_10 
ROOT
HETATM    1  C   UNK N   1      43.848  23.457   2.997  0.00  0.00     0.231 C 
ENDROOT
BRANCH   1   2
HETATM    2  C   UNK N   1      44.399  22.021   3.255  0.00  0.00     0.144 C 
BRANCH   2   3
HETATM    3  N   UNK N   1      45.545  21.977   4.161  0.00  0.00    -0.421 N 
HETATM    4  H   UNK N   1      46.363  22.219   4.720  0.00  0.00     0.150 HD
HETATM    5  H   UNK N   1      45.478  20.994   4.425  0.00  0.00     0.150 HD
ENDBRANCH   2   3
BRANCH   2   6
HETATM    6  C   UNK N   1      43.341  21.019   3.743  0.00  0.00     0.040 C 
BRANCH   6   7
HETATM    7  C   UNK N   1      43.362  19.699   2.980  0.00  0.00     0.075 C 
BRANCH   7   8
HETATM    8  S   UNK N   1      41.923  19.597   1.874  0.00  0.00    -0.173 SA
HETATM    9  C   UNK N   1      40.775  20.283   3.105  0.00  0.00     0.089 C 
ENDBRANCH   7   8
ENDBRANCH   6   7
ENDBRANCH   2   6
ENDBRANCH   1   2
BRANCH   1  10
HETATM   10  O   UNK N   1      43.614  24.073   4.176  0.00  0.00    -0.359 OA
HETATM   11  H   UNK N   1      42.840  24.458   4.536  0.00  0.00     0.213 HD
ENDBRANCH   1  10
BRANCH   1  12
HETATM   12  O   UNK N   1      42.721  23.341   2.260  0.00  0.00    -0.359 OA
HETATM   13  H   UNK N   1      42.565  22.872   1.464  0.00  0.00     0.213 HD
ENDBRANCH   1  12
BRANCH   1  14
HETATM   14  C   UNK N   1      44.846  24.249   2.228  0.00  0.00     0.115 A 
HETATM   15  N   UNK N   1      45.516  25.320   2.717  0.00  0.00    -0.359 N 
HETATM   16  C   UNK N   1      46.408  25.846   1.805  0.00  0.00     0.096 A 
ATOM     17  HN  UNK N   1      45.377  25.695   3.655  1.00  0.00     0.165 HD
HETATM   18  C   UNK N   1      46.459  25.186   0.563  0.00  0.00     0.068 A 
HETATM   19  S   UNK N   1      45.356  23.955   0.685  0.00  0.00    -0.082 SA
ENDBRANCH   1  14
TORSDOF 8
ENDMDL
MODEL 3
REMARK VINA RESULT:      -4.6     13.842     15.578
REMARK  8 active torsions:
REMARK  status: ('A' for Active; 'I' for Inactive)
REMARK    1  A    between atoms: C_2  and  N_1 
REMARK    2  A    between atoms: C_2  and  C_3 
REMARK    3  A    between atoms: C_2  and  C_7 
REMARK    4  A    between atoms: C_3  and  C_4 
REMARK    5  A    between atoms: C_4  and  S_5 
REMARK    6  A    between atoms: C_7  and  O_8 
REMARK    7  A    between atoms: C_7  and  O_9 
REMARK    8  A    between atoms: C_7  and  C_10 
ROOT
HETATM    1  C   UNK N   1      44.060  23.450   3.001  0.00  0.00     0.231 C 
ENDROOT
BRANCH   1   2
HETATM    2  C   UNK N   1      44.608  22.016   3.275  0.00  0.00     0.144 C 
BRANCH   2   3
HETATM    3  N   UNK N   1      45.741  21.978   4.197  0.00  0.00    -0.421 N 
HETATM    4  H   UNK N   1      46.588  21.712   4.699  0.00  0.00     0.150 HD
HETATM    5  H   UNK N   1      45.540  22.840   4.704  0.00  0.00     0.150 HD
ENDBRANCH   2   3
BRANCH   2   6
HETATM    6  C   UNK N   1      43.544  21.016   3.755  0.00  0.00     0.040 C 
BRANCH   6   7
HETATM    7  C   UNK N   1      43.527  19.721   2.950  0.00  0.00     0.075 C 
BRANCH   7   8
HETATM    8  S   UNK N   1      42.073  19.685   1.859  0.00  0.00    -0.173 SA
HETATM    9  C   UNK N   1      40.926  20.208   3.169  0.00  0.00     0.089 C 
ENDBRANCH   7   8
ENDBRANCH   6   7
ENDBRANCH   2   6
ENDBRANCH   1   2
BRANCH   1  10
HETATM   10  O   UNK N   1      45.074  24.258   2.620  0.00  0.00    -0.359 OA
HETATM   11  H   UNK N   1      45.729  24.712   3.113  0.00  0.00     0.213 HD
ENDBRANCH   1  10
BRANCH   1  12
HETATM   12  O   UNK N   1      43.468  23.890   4.134  0.00  0.00    -0.359 OA
HETATM   13  H   UNK N   1      43.770  24.502   4.775  0.00  0.00     0.213 HD
ENDBRANCH   1  12
BRANCH   1  14
HETATM   14  C   UNK N   1      43.045  23.404   1.915  0.00  0.00     0.115 A 
HETATM   15  N   UNK N   1      41.730  23.690   2.082  0.00  0.00    -0.359 N 
HETATM   16  C   UNK N   1      41.018  23.605   0.902  0.00  0.00     0.096 A 
ATOM     17  HN  UNK N   1      41.315  23.942   2.979  1.00  0.00     0.165 HD
HETATM   18  C   UNK N   1      41.771  23.247  -0.231  0.00  0.00     0.068 A 
HETATM   19  S   UNK N   1      43.321  23.053   0.325  0.00  0.00    -0.082 SA
ENDBRANCH   1  14
TORSDOF 8
ENDMDL
MODEL 4
REMARK VINA RESULT:      -4.6      6.042      9.024
REMARK  8 active torsions:
REMARK  status: ('A' for Active; 'I' for Inactive)
REMARK    1  A    between atoms: C_2  and  N_1 
REMARK    2  A    between atoms: C_2  and  C_3 
REMARK    3  A    between atoms: C_2  and  C_7 
REMARK    4  A    between atoms: C_3  and  C_4 
REMARK    5  A    between atoms: C_4  and  S_5 
REMARK    6  A    between atoms: C_7  and  O_8 
REMARK    7  A    between atoms: C_7  and  O_9 
REMARK    8  A    between atoms: C_7  and  C_10 
ROOT
HETATM    1  C   UNK N   1      35.694  15.789  11.183  0.00  0.00     0.231 C 
ENDROOT
BRANCH   1   2
HETATM    2  C   UNK N   1      34.707  15.176  10.142  0.00  0.00     0.144 C 
BRANCH   2   3
HETATM    3  N   UNK N   1      33.328  15.075  10.616  0.00  0.00    -0.421 N 
HETATM    4  H   UNK N   1      32.340  14.842  10.717  0.00  0.00     0.150 HD
HETATM    5  H   UNK N   1      33.420  15.663  11.445  0.00  0.00     0.150 HD
ENDBRANCH   2   3
BRANCH   2   6
HETATM    6  C   UNK N   1      34.712  15.883   8.777  0.00  0.00     0.040 C 
BRANCH   6   7
HETATM    7  C   UNK N   1      33.319  16.053   8.181  0.00  0.00     0.075 C 
BRANCH   7   8
HETATM    8  S   UNK N   1      32.921  17.820   8.023  0.00  0.00    -0.173 SA
HETATM    9  C   UNK N   1      34.639  18.355   8.279  0.00  0.00     0.089 C 
ENDBRANCH   7   8
ENDBRANCH   6   7
ENDBRANCH   2   6
ENDBRANCH   1   2
BRANCH   1  10
HETATM   10  O   UNK N   1      35.149  16.900  11.725  0.00  0.00    -0.359 OA
HETATM   11  H   UNK N   1      34.400  17.024  12.274  0.00  0.00     0.213 HD
ENDBRANCH   1  10
BRANCH   1  12
HETATM   12  O   UNK N   1      36.853  16.060  10.543  0.00  0.00    -0.359 OA
HETATM   13  H   UNK N   1      37.611  16.524  10.837  0.00  0.00     0.213 HD
ENDBRANCH   1  12
BRANCH   1  14
HETATM   14  C   UNK N   1      35.961  14.804  12.265  0.00  0.00     0.115 A 
HETATM   15  N   UNK N   1      36.437  15.124  13.493  0.00  0.00    -0.359 N 
HETATM   16  C   UNK N   1      36.558  14.022  14.316  0.00  0.00     0.096 A 
ATOM     17  HN  UNK N   1      36.679  16.073  13.776  1.00  0.00     0.165 HD
HETATM   18  C   UNK N   1      36.170  12.797  13.743  0.00  0.00     0.068 A 
HETATM   19  S   UNK N   1      35.689  13.176  12.202  0.00  0.00    -0.082 SA
ENDBRANCH   1  14
TORSDOF 8
ENDMDL
MODEL 5
REMARK VINA RESULT:      -4.5      5.855      7.817
REMARK  8 active torsions:
REMARK  status: ('A' for Active; 'I' for Inactive)
REMARK    1  A    between atoms: C_2  and  N_1 
REMARK    2  A    between atoms: C_2  and  C_3 
REMARK    3  A    between atoms: C_2  and  C_7 
REMARK    4  A    between atoms: C_3  and  C_4 
REMARK    5  A    between atoms: C_4  and  S_5 
REMARK    6  A    between atoms: C_7  and  O_8 
REMARK    7  A    between atoms: C_7  and  O_9 
REMARK    8  A    between atoms: C_7  and  C_10 
ROOT
HETATM    1  C   UNK N   1      34.640  15.567  10.749  0.00  0.00     0.231 C 
ENDROOT
BRANCH   1   2
HETATM    2  C   UNK N   1      35.722  14.461  10.557  0.00  0.00     0.144 C 
BRANCH   2   3
HETATM    3  N   UNK N   1      37.096  14.958  10.599  0.00  0.00    -0.421 N 
HETATM    4  H   UNK N   1      38.081  15.099  10.820  0.00  0.00     0.150 HD
HETATM    5  H   UNK N   1      36.999  15.700   9.905  0.00  0.00     0.150 HD
ENDBRANCH   2   3
BRANCH   2   6
HETATM    6  C   UNK N   1      35.593  13.277  11.528  0.00  0.00     0.040 C 
BRANCH   6   7
HETATM    7  C   UNK N   1      36.751  13.179  12.516  0.00  0.00     0.075 C 
BRANCH   7   8
HETATM    8  S   UNK N   1      36.272  13.908  14.111  0.00  0.00    -0.173 SA
HETATM    9  C   UNK N   1      35.064  12.602  14.484  0.00  0.00     0.089 C 
ENDBRANCH   7   8
ENDBRANCH   6   7
ENDBRANCH   2   6
ENDBRANCH   1   2
BRANCH   1  10
HETATM   10  O   UNK N   1      35.063  16.461  11.669  0.00  0.00    -0.359 OA
HETATM   11  H   UNK N   1      35.479  16.351  12.501  0.00  0.00     0.213 HD
ENDBRANCH   1  10
BRANCH   1  12
HETATM   12  O   UNK N   1      33.493  14.961  11.129  0.00  0.00    -0.359 OA
HETATM   13  H   UNK N   1      32.722  15.319  11.523  0.00  0.00     0.213 HD
ENDBRANCH   1  12
BRANCH   1  14
HETATM   14  C   UNK N   1      34.406  16.273   9.460  0.00  0.00     0.115 A 
HETATM   15  N   UNK N   1      34.133  17.596   9.350  0.00  0.00    -0.359 N 
HETATM   16  C   UNK N   1      33.997  17.999   8.036  0.00  0.00     0.096 A 
ATOM     17  HN  UNK N   1      34.040  18.224  10.148  1.00  0.00     0.165 HD
HETATM   18  C   UNK N   1      34.165  16.985   7.075  0.00  0.00     0.068 A 
HETATM   19  S   UNK N   1      34.481  15.612   7.949  0.00  0.00    -0.082 SA
ENDBRANCH   1  14
TORSDOF 8
ENDMDL
MODEL 6
REMARK VINA RESULT:      -4.4      4.004      5.519
REMARK  8 active torsions:
REMARK  status: ('A' for Active; 'I' for Inactive)
REMARK    1  A    between atoms: C_2  and  N_1 
REMARK    2  A    between atoms: C_2  and  C_3 
REMARK    3  A    between atoms: C_2  and  C_7 
REMARK    4  A    between atoms: C_3  and  C_4 
REMARK    5  A    between atoms: C_4  and  S_5 
REMARK    6  A    between atoms: C_7  and  O_8 
REMARK    7  A    between atoms: C_7  and  O_9 
REMARK    8  A    between atoms: C_7  and  C_10 
ROOT
HETATM    1  C   UNK N   1      34.147  17.782   7.855  0.00  0.00     0.231 C 
ENDROOT
BRANCH   1   2
HETATM    2  C   UNK N   1      34.767  16.749   8.846  0.00  0.00     0.144 C 
BRANCH   2   3
HETATM    3  N   UNK N   1      34.828  17.215  10.230  0.00  0.00    -0.421 N 
HETATM    4  H   UNK N   1      35.014  17.753  11.076  0.00  0.00     0.150 HD
HETATM    5  H   UNK N   1      34.313  16.447  10.661  0.00  0.00     0.150 HD
ENDBRANCH   2   3
BRANCH   2   6
HETATM    6  C   UNK N   1      34.096  15.367   8.817  0.00  0.00     0.040 C 
BRANCH   6   7
HETATM    7  C   UNK N   1      35.079  14.224   8.586  0.00  0.00     0.075 C 
BRANCH   7   8
HETATM    8  S   UNK N   1      34.636  12.802   9.628  0.00  0.00    -0.173 SA
HETATM    9  C   UNK N   1      34.920  13.697  11.184  0.00  0.00     0.089 C 
ENDBRANCH   7   8
ENDBRANCH   6   7
ENDBRANCH   2   6
ENDBRANCH   1   2
BRANCH   1  10
HETATM   10  O   UNK N   1      34.625  17.561   6.611  0.00  0.00    -0.359 OA
HETATM   11  H   UNK N   1      35.045  16.817   6.227  0.00  0.00     0.213 HD
ENDBRANCH   1  10
BRANCH   1  12
HETATM   12  O   UNK N   1      34.461  19.019   8.300  0.00  0.00    -0.359 OA
HETATM   13  H   UNK N   1      34.230  19.451   9.098  0.00  0.00     0.213 HD
ENDBRANCH   1  12
BRANCH   1  14
HETATM   14  C   UNK N   1      32.666  17.638   7.837  0.00  0.00     0.115 A 
HETATM   15  N   UNK N   1      31.846  18.025   8.844  0.00  0.00    -0.359 N 
HETATM   16  C   UNK N   1      30.514  17.811   8.552  0.00  0.00     0.096 A 
ATOM     17  HN  UNK N   1      32.177  18.431   9.720  1.00  0.00     0.165 HD
HETATM   18  C   UNK N   1      30.258  17.245   7.290  0.00  0.00     0.068 A 
HETATM   19  S   UNK N   1      31.752  17.041   6.599  0.00  0.00    -0.082 SA
ENDBRANCH   1  14
TORSDOF 8
ENDMDL
MODEL 7
REMARK VINA RESULT:      -4.3      3.944      6.937
REMARK  8 active torsions:
REMARK  status: ('A' for Active; 'I' for Inactive)
REMARK    1  A    between atoms: C_2  and  N_1 
REMARK    2  A    between atoms: C_2  and  C_3 
REMARK    3  A    between atoms: C_2  and  C_7 
REMARK    4  A    between atoms: C_3  and  C_4 
REMARK    5  A    between atoms: C_4  and  S_5 
REMARK    6  A    between atoms: C_7  and  O_8 
REMARK    7  A    between atoms: C_7  and  O_9 
REMARK    8  A    between atoms: C_7  and  C_10 
ROOT
HETATM    1  C   UNK N   1      34.024  17.672   8.041  0.00  0.00     0.231 C 
ENDROOT
BRANCH   1   2
HETATM    2  C   UNK N   1      32.537  17.225   7.891  0.00  0.00     0.144 C 
BRANCH   2   3
HETATM    3  N   UNK N   1      31.602  17.984   8.719  0.00  0.00    -0.421 N 
HETATM    4  H   UNK N   1      31.092  18.387   9.505  0.00  0.00     0.150 HD
HETATM    5  H   UNK N   1      31.087  18.442   7.966  0.00  0.00     0.150 HD
ENDBRANCH   2   3
BRANCH   2   6
HETATM    6  C   UNK N   1      32.024  17.217   6.443  0.00  0.00     0.040 C 
BRANCH   6   7
HETATM    7  C   UNK N   1      31.566  15.841   5.972  0.00  0.00     0.075 C 
BRANCH   7   8
HETATM    8  S   UNK N   1      29.761  15.827   5.755  0.00  0.00    -0.173 SA
HETATM    9  C   UNK N   1      29.687  17.567   5.235  0.00  0.00     0.089 C 
ENDBRANCH   7   8
ENDBRANCH   6   7
ENDBRANCH   2   6
ENDBRANCH   1   2
BRANCH   1  10
HETATM   10  O   UNK N   1      34.073  18.963   8.436  0.00  0.00    -0.359 OA
HETATM   11  H   UNK N   1      34.231  19.354   9.272  0.00  0.00     0.213 HD
ENDBRANCH   1  10
BRANCH   1  12
HETATM   12  O   UNK N   1      34.631  17.490   6.847  0.00  0.00    -0.359 OA
HETATM   13  H   UNK N   1      34.497  17.925   6.028  0.00  0.00     0.213 HD
ENDBRANCH   1  12
BRANCH   1  14
HETATM   14  C   UNK N   1      34.704  16.828   9.060  0.00  0.00     0.115 A 
HETATM   15  N   UNK N   1      34.973  17.224  10.327  0.00  0.00    -0.359 N 
HETATM   16  C   UNK N   1      35.577  16.233  11.073  0.00  0.00     0.096 A 
ATOM     17  HN  UNK N   1      34.752  18.152  10.690  1.00  0.00     0.165 HD
HETATM   18  C   UNK N   1      35.796  15.018  10.396  0.00  0.00     0.068 A 
HETATM   19  S   UNK N   1      35.205  15.266   8.867  0.00  0.00    -0.082 SA
ENDBRANCH   1  14
TORSDOF 8
ENDMDL
MODEL 8
REMARK VINA RESULT:      -4.2      9.584     10.789
REMARK  8 active torsions:
REMARK  status: ('A' for Active; 'I' for Inactive)
REMARK    1  A    between atoms: C_2  and  N_1 
REMARK    2  A    between atoms: C_2  and  C_3 
REMARK    3  A    between atoms: C_2  and  C_7 
REMARK    4  A    between atoms: C_3  and  C_4 
REMARK    5  A    between atoms: C_4  and  S_5 
REMARK    6  A    between atoms: C_7  and  O_8 
REMARK    7  A    between atoms: C_7  and  O_9 
REMARK    8  A    between atoms: C_7  and  C_10 
ROOT
HETATM    1  C   UNK N   1      19.835  17.087   0.894  0.00  0.00     0.231 C 
ENDROOT
BRANCH   1   2
HETATM    2  C   UNK N   1      20.169  15.716   1.558  0.00  0.00     0.144 C 
BRANCH   2   3
HETATM    3  N   UNK N   1      19.025  14.814   1.668  0.00  0.00    -0.421 N 
HETATM    4  H   UNK N   1      18.412  14.029   1.893  0.00  0.00     0.150 HD
HETATM    5  H   UNK N   1      18.354  15.370   1.139  0.00  0.00     0.150 HD
ENDBRANCH   2   3
BRANCH   2   6
HETATM    6  C   UNK N   1      21.333  14.962   0.896  0.00  0.00     0.040 C 
BRANCH   6   7
HETATM    7  C   UNK N   1      22.541  14.793   1.811  0.00  0.00     0.075 C 
BRANCH   7   8
HETATM    8  S   UNK N   1      23.937  14.097   0.878  0.00  0.00    -0.173 SA
HETATM    9  C   UNK N   1      25.156  14.499   2.165  0.00  0.00     0.089 C 
ENDBRANCH   7   8
ENDBRANCH   6   7
ENDBRANCH   2   6
ENDBRANCH   1   2
BRANCH   1  10
HETATM   10  O   UNK N   1      18.510  17.159   0.643  0.00  0.00    -0.359 OA
HETATM   11  H   UNK N   1      17.937  17.889   0.517  0.00  0.00     0.213 HD
ENDBRANCH   1  10
BRANCH   1  12
HETATM   12  O   UNK N   1      20.566  17.186  -0.238  0.00  0.00    -0.359 OA
HETATM   13  H   UNK N   1      20.333  16.997  -1.126  0.00  0.00     0.213 HD
ENDBRANCH   1  12
BRANCH   1  14
HETATM   14  C   UNK N   1      20.214  18.196   1.810  0.00  0.00     0.115 A 
HETATM   15  N   UNK N   1      20.307  19.497   1.441  0.00  0.00    -0.359 N 
HETATM   16  C   UNK N   1      20.641  20.322   2.496  0.00  0.00     0.096 A 
ATOM     17  HN  UNK N   1      20.147  19.829   0.490  1.00  0.00     0.165 HD
HETATM   18  C   UNK N   1      20.817  19.676   3.734  0.00  0.00     0.068 A 
HETATM   19  S   UNK N   1      20.537  18.072   3.425  0.00  0.00    -0.082 SA
ENDBRANCH   1  14
TORSDOF 8
ENDMDL
MODEL 9
REMARK VINA RESULT:      -4.2      8.275     10.287
REMARK  8 active torsions:
REMARK  status: ('A' for Active; 'I' for Inactive)
REMARK    1  A    between atoms: C_2  and  N_1 
REMARK    2  A    between atoms: C_2  and  C_3 
REMARK    3  A    between atoms: C_2  and  C_7 
REMARK    4  A    between atoms: C_3  and  C_4 
REMARK    5  A    between atoms: C_4  and  S_5 
REMARK    6  A    between atoms: C_7  and  O_8 
REMARK    7  A    between atoms: C_7  and  O_9 
REMARK    8  A    between atoms: C_7  and  C_10 
ROOT
HETATM    1  C   UNK N   1      35.911  13.919  13.085  0.00  0.00     0.231 C 
ENDROOT
BRANCH   1   2
HETATM    2  C   UNK N   1      36.752  12.685  12.635  0.00  0.00     0.144 C 
BRANCH   2   3
HETATM    3  N   UNK N   1      37.907  13.022  11.806  0.00  0.00    -0.421 N 
HETATM    4  H   UNK N   1      38.830  13.310  11.480  0.00  0.00     0.150 HD
HETATM    5  H   UNK N   1      37.488  12.834  10.895  0.00  0.00     0.150 HD
ENDBRANCH   2   3
BRANCH   2   6
HETATM    6  C   UNK N   1      37.216  11.783  13.789  0.00  0.00     0.040 C 
BRANCH   6   7
HETATM    7  C   UNK N   1      36.733  10.342  13.661  0.00  0.00     0.075 C 
BRANCH   7   8
HETATM    8  S   UNK N   1      35.373  10.035  14.827  0.00  0.00    -0.173 SA
HETATM    9  C   UNK N   1      36.273  10.722  16.248  0.00  0.00     0.089 C 
ENDBRANCH   7   8
ENDBRANCH   6   7
ENDBRANCH   2   6
ENDBRANCH   1   2
BRANCH   1  10
HETATM   10  O   UNK N   1      36.717  14.822  13.686  0.00  0.00    -0.359 OA
HETATM   11  H   UNK N   1      37.595  15.093  13.505  0.00  0.00     0.213 HD
ENDBRANCH   1  10
BRANCH   1  12
HETATM   12  O   UNK N   1      34.944  13.477  13.920  0.00  0.00    -0.359 OA
HETATM   13  H   UNK N   1      34.819  12.634  14.306  0.00  0.00     0.213 HD
ENDBRANCH   1  12
BRANCH   1  14
HETATM   14  C   UNK N   1      35.272  14.554  11.901  0.00  0.00     0.115 A 
HETATM   15  N   UNK N   1      34.222  14.030  11.224  0.00  0.00    -0.359 N 
HETATM   16  C   UNK N   1      33.802  14.841  10.189  0.00  0.00     0.096 A 
ATOM     17  HN  UNK N   1      33.788  13.135  11.455  1.00  0.00     0.165 HD
HETATM   18  C   UNK N   1      34.525  16.038  10.032  0.00  0.00     0.068 A 
HETATM   19  S   UNK N   1      35.674  16.007  11.227  0.00  0.00    -0.082 SA
ENDBRANCH   1  14
TORSDOF 8
ENDMDL
