MODEL 1
REMARK VINA RESULT:      -5.5      0.000      0.000
REMARK  8 active torsions:
REMARK  status: ('A' for Active; 'I' for Inactive)
REMARK    1  A    between atoms: C_6  and  C_7 
REMARK    2  A    between atoms: C_7  and  C_8 
REMARK    3  A    between atoms: C_8  and  C_9 
REMARK    4  A    between atoms: C_9  and  C_10 
REMARK    5  A    between atoms: C_10  and  C_11 
REMARK    6  A    between atoms: C_10  and  C_14 
REMARK    7  A    between atoms: C_11  and  O_13 
REMARK    8  A    between atoms: C_14  and  S_15 
ROOT
HETATM    1  C   UNK N   1      29.054  23.924  -3.675  0.00  0.00     0.016 C 
ENDROOT
BRANCH   1   2
HETATM    2  C   UNK N   1      27.649  23.936  -3.094  0.00  0.00     0.006 C 
BRANCH   2   3
HETATM    3  C   UNK N   1      26.601  24.059  -4.188  0.00  0.00     0.038 C 
BRANCH   3   4
HETATM    4  C   UNK N   1      26.137  25.474  -4.374  0.00  0.00    -0.058 A 
HETATM    5  C   UNK N   1      25.414  25.811  -5.524  0.00  0.00     0.007 A 
HETATM    6  C   UNK N   1      24.946  27.118  -5.704  0.00  0.00     0.001 A 
HETATM    7  C   UNK N   1      25.194  28.091  -4.732  0.00  0.00     0.000 A 
HETATM    8  C   UNK N   1      25.910  27.761  -3.579  0.00  0.00     0.001 A 
HETATM    9  C   UNK N   1      26.378  26.457  -3.398  0.00  0.00     0.007 A 
ENDBRANCH   3   4
ENDBRANCH   2   3
ENDBRANCH   1   2
BRANCH   1  10
HETATM   10  C   UNK N   1      29.705  22.548  -3.497  0.00  0.00     0.092 C 
BRANCH  10  11
HETATM   11  C   UNK N   1      30.671  22.574  -2.337  0.00  0.00     0.144 C 
HETATM   12  O   UNK N   1      30.385  23.145  -1.294  0.00  0.00    -0.650 OA
BRANCH  11  13
HETATM   13  O   UNK N   1      31.875  21.984  -2.457  0.00  0.00    -0.776 OA
HETATM   14  H   UNK N   1      31.985  21.063  -2.322  0.00  0.00     0.167 HD
ENDBRANCH  11  13
ENDBRANCH  10  11
BRANCH  10  15
HETATM   15  C   UNK N   1      30.356  22.053  -4.802  0.00  0.00     0.086 C 
BRANCH  15  16
HETATM   16  S   UNK N   1      29.264  22.200  -6.255  0.00  0.00    -0.181 SA
HETATM   17  H   UNK N   1      28.055  21.891  -6.800  0.00  0.00     0.101 HD
ENDBRANCH  15  16
ENDBRANCH  10  15
ENDBRANCH   1  10
TORSDOF 8
ENDMDL
MODEL 2
REMARK VINA RESULT:      -5.3     11.242     13.335
REMARK  8 active torsions:
REMARK  status: ('A' for Active; 'I' for Inactive)
REMARK    1  A    between atoms: C_6  and  C_7 
REMARK    2  A    between atoms: C_7  and  C_8 
REMARK    3  A    between atoms: C_8  and  C_9 
REMARK    4  A    between atoms: C_9  and  C_10 
REMARK    5  A    between atoms: C_10  and  C_11 
REMARK    6  A    between atoms: C_10  and  C_14 
REMARK    7  A    between atoms: C_11  and  O_13 
REMARK    8  A    between atoms: C_14  and  S_15 
ROOT
HETATM    1  C   UNK N   1      31.874  17.441   7.547  0.00  0.00     0.016 C 
ENDROOT
BRANCH   1   2
HETATM    2  C   UNK N   1      30.574  17.702   8.290  0.00  0.00     0.006 C 
BRANCH   2   3
HETATM    3  C   UNK N   1      29.379  17.181   7.507  0.00  0.00     0.038 C 
BRANCH   3   4
HETATM    4  C   UNK N   1      28.688  18.267   6.735  0.00  0.00    -0.058 A 
HETATM    5  C   UNK N   1      28.071  19.313   7.431  0.00  0.00     0.007 A 
HETATM    6  C   UNK N   1      27.446  20.352   6.731  0.00  0.00     0.001 A 
HETATM    7  C   UNK N   1      27.443  20.352   5.333  0.00  0.00     0.000 A 
HETATM    8  C   UNK N   1      28.062  19.314   4.632  0.00  0.00     0.001 A 
HETATM    9  C   UNK N   1      28.686  18.277   5.329  0.00  0.00     0.007 A 
ENDBRANCH   3   4
ENDBRANCH   2   3
ENDBRANCH   1   2
BRANCH   1  10
HETATM   10  C   UNK N   1      33.074  17.550   8.495  0.00  0.00     0.092 C 
BRANCH  10  11
HETATM   11  C   UNK N   1      34.235  18.212   7.793  0.00  0.00     0.144 C 
HETATM   12  O   UNK N   1      34.932  19.036   8.370  0.00  0.00    -0.650 OA
BRANCH  11  13
HETATM   13  O   UNK N   1      34.494  17.916   6.505  0.00  0.00    -0.776 OA
HETATM   14  H   UNK N   1      34.361  18.543   5.822  0.00  0.00     0.167 HD
ENDBRANCH  11  13
ENDBRANCH  10  11
BRANCH  10  15
HETATM   15  C   UNK N   1      33.447  16.184   9.101  0.00  0.00     0.086 C 
BRANCH  15  16
HETATM   16  S   UNK N   1      33.103  14.781   7.987  0.00  0.00    -0.181 SA
HETATM   17  H   UNK N   1      32.395  14.335   6.915  0.00  0.00     0.101 HD
ENDBRANCH  15  16
ENDBRANCH  10  15
ENDBRANCH   1  10
TORSDOF 8
ENDMDL
MODEL 3
REMARK VINA RESULT:      -5.2     16.892     18.642
REMARK  8 active torsions:
REMARK  status: ('A' for Active; 'I' for Inactive)
REMARK    1  A    between atoms: C_6  and  C_7 
REMARK    2  A    between atoms: C_7  and  C_8 
REMARK    3  A    between atoms: C_8  and  C_9 
REMARK    4  A    between atoms: C_9  and  C_10 
REMARK    5  A    between atoms: C_10  and  C_11 
REMARK    6  A    between atoms: C_10  and  C_14 
REMARK    7  A    between atoms: C_11  and  O_13 
REMARK    8  A    between atoms: C_14  and  S_15 
ROOT
HETATM    1  C   UNK N   1      20.714  15.446   9.013  0.00  0.00     0.016 C 
ENDROOT
BRANCH   1   2
HETATM    2  C   UNK N   1      21.559  14.608   8.066  0.00  0.00     0.006 C 
BRANCH   2   3
HETATM    3  C   UNK N   1      21.438  13.127   8.384  0.00  0.00     0.038 C 
BRANCH   3   4
HETATM    4  C   UNK N   1      22.341  12.712   9.509  0.00  0.00    -0.058 A 
HETATM    5  C   UNK N   1      23.727  12.741   9.318  0.00  0.00     0.007 A 
HETATM    6  C   UNK N   1      24.589  12.386  10.362  0.00  0.00     0.001 A 
HETATM    7  C   UNK N   1      24.068  12.008  11.603  0.00  0.00     0.000 A 
HETATM    8  C   UNK N   1      22.686  11.983  11.803  0.00  0.00     0.001 A 
HETATM    9  C   UNK N   1      21.824  12.336  10.761  0.00  0.00     0.007 A 
ENDBRANCH   3   4
ENDBRANCH   2   3
ENDBRANCH   1   2
BRANCH   1  10
HETATM   10  C   UNK N   1      20.285  16.757   8.346  0.00  0.00     0.092 C 
BRANCH  10  11
HETATM   11  C   UNK N   1      18.897  17.144   8.799  0.00  0.00     0.144 C 
HETATM   12  O   UNK N   1      17.932  16.439   8.537  0.00  0.00    -0.650 OA
BRANCH  11  13
HETATM   13  O   UNK N   1      18.712  18.292   9.478  0.00  0.00    -0.776 OA
HETATM   14  H   UNK N   1      18.396  18.293  10.360  0.00  0.00     0.167 HD
ENDBRANCH  11  13
ENDBRANCH  10  11
BRANCH  10  15
HETATM   15  C   UNK N   1      20.411  16.684   6.812  0.00  0.00     0.086 C 
BRANCH  15  16
HETATM   16  S   UNK N   1      21.458  18.003   6.111  0.00  0.00    -0.181 SA
HETATM   17  H   UNK N   1      22.499  18.853   6.319  0.00  0.00     0.101 HD
ENDBRANCH  15  16
ENDBRANCH  10  15
ENDBRANCH   1  10
TORSDOF 8
ENDMDL
MODEL 4
REMARK VINA RESULT:      -5.2     20.946     24.105
REMARK  8 active torsions:
REMARK  status: ('A' for Active; 'I' for Inactive)
REMARK    1  A    between atoms: C_6  and  C_7 
REMARK    2  A    between atoms: C_7  and  C_8 
REMARK    3  A    between atoms: C_8  and  C_9 
REMARK    4  A    between atoms: C_9  and  C_10 
REMARK    5  A    between atoms: C_10  and  C_11 
REMARK    6  A    between atoms: C_10  and  C_14 
REMARK    7  A    between atoms: C_11  and  O_13 
REMARK    8  A    between atoms: C_14  and  S_15 
ROOT
HETATM    1  C   UNK N   1      36.383  14.473  13.757  0.00  0.00     0.016 C 
ENDROOT
BRANCH   1   2
HETATM    2  C   UNK N   1      36.538  13.851  15.136  0.00  0.00     0.006 C 
BRANCH   2   3
HETATM    3  C   UNK N   1      35.292  13.074  15.533  0.00  0.00     0.038 C 
BRANCH   3   4
HETATM    4  C   UNK N   1      35.358  12.581  16.949  0.00  0.00    -0.058 A 
HETATM    5  C   UNK N   1      35.149  13.484  17.997  0.00  0.00     0.007 A 
HETATM    6  C   UNK N   1      35.176  13.040  19.325  0.00  0.00     0.001 A 
HETATM    7  C   UNK N   1      35.405  11.691  19.608  0.00  0.00     0.000 A 
HETATM    8  C   UNK N   1      35.609  10.783  18.566  0.00  0.00     0.001 A 
HETATM    9  C   UNK N   1      35.582  11.224  17.241  0.00  0.00     0.007 A 
ENDBRANCH   3   4
ENDBRANCH   2   3
ENDBRANCH   1   2
BRANCH   1  10
HETATM   10  C   UNK N   1      35.832  13.450  12.757  0.00  0.00     0.092 C 
BRANCH  10  11
HETATM   11  C   UNK N   1      36.958  12.621  12.187  0.00  0.00     0.144 C 
HETATM   12  O   UNK N   1      36.948  11.401  12.276  0.00  0.00    -0.650 OA
BRANCH  11  13
HETATM   13  O   UNK N   1      38.003  13.230  11.594  0.00  0.00    -0.776 OA
HETATM   14  H   UNK N   1      38.798  12.769  11.411  0.00  0.00     0.167 HD
ENDBRANCH  11  13
ENDBRANCH  10  11
BRANCH  10  15
HETATM   15  C   UNK N   1      34.977  14.122  11.667  0.00  0.00     0.086 C 
BRANCH  15  16
HETATM   16  S   UNK N   1      35.477  15.841  11.315  0.00  0.00    -0.181 SA
HETATM   17  H   UNK N   1      35.602  17.106  11.801  0.00  0.00     0.101 HD
ENDBRANCH  15  16
ENDBRANCH  10  15
ENDBRANCH   1  10
TORSDOF 8
ENDMDL
MODEL 5
REMARK VINA RESULT:      -5.1     21.805     24.558
REMARK  8 active torsions:
REMARK  status: ('A' for Active; 'I' for Inactive)
REMARK    1  A    between atoms: C_6  and  C_7 
REMARK    2  A    between atoms: C_7  and  C_8 
REMARK    3  A    between atoms: C_8  and  C_9 
REMARK    4  A    between atoms: C_9  and  C_10 
REMARK    5  A    between atoms: C_10  and  C_11 
REMARK    6  A    between atoms: C_10  and  C_14 
REMARK    7  A    between atoms: C_11  and  O_13 
REMARK    8  A    between atoms: C_14  and  S_15 
ROOT
HETATM    1  C   UNK N   1      34.119  11.056  13.712  0.00  0.00     0.016 C 
ENDROOT
BRANCH   1   2
HETATM    2  C   UNK N   1      34.232  10.465  15.108  0.00  0.00     0.006 C 
BRANCH   2   3
HETATM    3  C   UNK N   1      35.579  10.788  15.735  0.00  0.00     0.038 C 
BRANCH   3   4
HETATM    4  C   UNK N   1      35.439  11.491  17.053  0.00  0.00    -0.058 A 
HETATM    5  C   UNK N   1      35.564  10.754  18.237  0.00  0.00     0.007 A 
HETATM    6  C   UNK N   1      35.465  11.394  19.478  0.00  0.00     0.001 A 
HETATM    7  C   UNK N   1      35.249  12.773  19.540  0.00  0.00     0.000 A 
HETATM    8  C   UNK N   1      35.129  13.516  18.363  0.00  0.00     0.001 A 
HETATM    9  C   UNK N   1      35.226  12.879  17.123  0.00  0.00     0.007 A 
ENDBRANCH   3   4
ENDBRANCH   2   3
ENDBRANCH   1   2
BRANCH   1  10
HETATM   10  C   UNK N   1      35.429  11.735  13.299  0.00  0.00     0.092 C 
BRANCH  10  11
HETATM   11  C   UNK N   1      35.216  13.219  13.126  0.00  0.00     0.144 C 
HETATM   12  O   UNK N   1      35.808  14.026  13.830  0.00  0.00    -0.650 OA
BRANCH  11  13
HETATM   13  O   UNK N   1      34.343  13.666  12.203  0.00  0.00    -0.776 OA
HETATM   14  H   UNK N   1      34.191  14.582  12.076  0.00  0.00     0.167 HD
ENDBRANCH  11  13
ENDBRANCH  10  11
BRANCH  10  15
HETATM   15  C   UNK N   1      36.045  11.073  12.052  0.00  0.00     0.086 C 
BRANCH  15  16
HETATM   16  S   UNK N   1      37.573  11.890  11.482  0.00  0.00    -0.181 SA
HETATM   17  H   UNK N   1      38.216  13.071  11.275  0.00  0.00     0.101 HD
ENDBRANCH  15  16
ENDBRANCH  10  15
ENDBRANCH   1  10
TORSDOF 8
ENDMDL
MODEL 6
REMARK VINA RESULT:      -5.0     20.314     23.475
REMARK  8 active torsions:
REMARK  status: ('A' for Active; 'I' for Inactive)
REMARK    1  A    between atoms: C_6  and  C_7 
REMARK    2  A    between atoms: C_7  and  C_8 
REMARK    3  A    between atoms: C_8  and  C_9 
REMARK    4  A    between atoms: C_9  and  C_10 
REMARK    5  A    between atoms: C_10  and  C_11 
REMARK    6  A    between atoms: C_10  and  C_14 
REMARK    7  A    between atoms: C_11  and  O_13 
REMARK    8  A    between atoms: C_14  and  S_15 
ROOT
HETATM    1  C   UNK N   1      35.316  13.352  12.842  0.00  0.00     0.016 C 
ENDROOT
BRANCH   1   2
HETATM    2  C   UNK N   1      35.768  13.316  14.293  0.00  0.00     0.006 C 
BRANCH   2   3
HETATM    3  C   UNK N   1      35.218  12.094  15.011  0.00  0.00     0.038 C 
BRANCH   3   4
HETATM    4  C   UNK N   1      35.284  12.234  16.504  0.00  0.00    -0.058 A 
HETATM    5  C   UNK N   1      35.113  13.498  17.079  0.00  0.00     0.007 A 
HETATM    6  C   UNK N   1      35.141  13.648  18.471  0.00  0.00     0.001 A 
HETATM    7  C   UNK N   1      35.334  12.533  19.292  0.00  0.00     0.000 A 
HETATM    8  C   UNK N   1      35.500  11.268  18.725  0.00  0.00     0.001 A 
HETATM    9  C   UNK N   1      35.472  11.117  17.336  0.00  0.00     0.007 A 
ENDBRANCH   3   4
ENDBRANCH   2   3
ENDBRANCH   1   2
BRANCH   1  10
HETATM   10  C   UNK N   1      36.416  13.926  11.942  0.00  0.00     0.092 C 
BRANCH  10  11
HETATM   11  C   UNK N   1      36.000  15.275  11.407  0.00  0.00     0.144 C 
HETATM   12  O   UNK N   1      34.821  15.602  11.372  0.00  0.00    -0.650 OA
BRANCH  11  13
HETATM   13  O   UNK N   1      36.933  16.123  10.934  0.00  0.00    -0.776 OA
HETATM   14  H   UNK N   1      36.769  16.664  10.187  0.00  0.00     0.167 HD
ENDBRANCH  11  13
ENDBRANCH  10  11
BRANCH  10  15
HETATM   15  C   UNK N   1      36.813  12.940  10.828  0.00  0.00     0.086 C 
BRANCH  15  16
HETATM   16  S   UNK N   1      38.587  13.002  10.408  0.00  0.00    -0.181 SA
HETATM   17  H   UNK N   1      39.578  13.686   9.774  0.00  0.00     0.101 HD
ENDBRANCH  15  16
ENDBRANCH  10  15
ENDBRANCH   1  10
TORSDOF 8
ENDMDL
MODEL 7
REMARK VINA RESULT:      -5.0     13.461     14.750
REMARK  8 active torsions:
REMARK  status: ('A' for Active; 'I' for Inactive)
REMARK    1  A    between atoms: C_6  and  C_7 
REMARK    2  A    between atoms: C_7  and  C_8 
REMARK    3  A    between atoms: C_8  and  C_9 
REMARK    4  A    between atoms: C_9  and  C_10 
REMARK    5  A    between atoms: C_10  and  C_11 
REMARK    6  A    between atoms: C_10  and  C_14 
REMARK    7  A    between atoms: C_11  and  O_13 
REMARK    8  A    between atoms: C_14  and  S_15 
ROOT
HETATM    1  C   UNK N   1      33.959  16.999   6.776  0.00  0.00     0.016 C 
ENDROOT
BRANCH   1   2
HETATM    2  C   UNK N   1      32.597  17.441   6.266  0.00  0.00     0.006 C 
BRANCH   2   3
HETATM    3  C   UNK N   1      31.498  16.506   6.746  0.00  0.00     0.038 C 
BRANCH   3   4
HETATM    4  C   UNK N   1      30.368  17.246   7.400  0.00  0.00    -0.058 A 
HETATM    5  C   UNK N   1      30.504  17.665   8.728  0.00  0.00     0.007 A 
HETATM    6  C   UNK N   1      29.474  18.381   9.349  0.00  0.00     0.001 A 
HETATM    7  C   UNK N   1      28.309  18.688   8.642  0.00  0.00     0.000 A 
HETATM    8  C   UNK N   1      28.168  18.279   7.314  0.00  0.00     0.001 A 
HETATM    9  C   UNK N   1      29.195  17.563   6.693  0.00  0.00     0.007 A 
ENDBRANCH   3   4
ENDBRANCH   2   3
ENDBRANCH   1   2
BRANCH   1  10
HETATM   10  C   UNK N   1      33.950  16.860   8.303  0.00  0.00     0.092 C 
BRANCH  10  11
HETATM   11  C   UNK N   1      34.852  17.898   8.926  0.00  0.00     0.144 C 
HETATM   12  O   UNK N   1      35.469  17.659   9.955  0.00  0.00    -0.650 OA
BRANCH  11  13
HETATM   13  O   UNK N   1      34.963  19.115   8.358  0.00  0.00    -0.776 OA
HETATM   14  H   UNK N   1      34.371  19.398   7.689  0.00  0.00     0.167 HD
ENDBRANCH  11  13
ENDBRANCH  10  11
BRANCH  10  15
HETATM   15  C   UNK N   1      34.297  15.427   8.747  0.00  0.00     0.086 C 
BRANCH  15  16
HETATM   16  S   UNK N   1      35.448  14.579   7.614  0.00  0.00    -0.181 SA
HETATM   17  H   UNK N   1      36.732  14.472   7.176  0.00  0.00     0.101 HD
ENDBRANCH  15  16
ENDBRANCH  10  15
ENDBRANCH   1  10
TORSDOF 8
ENDMDL
MODEL 8
REMARK VINA RESULT:      -5.0     10.320     12.025
REMARK  8 active torsions:
REMARK  status: ('A' for Active; 'I' for Inactive)
REMARK    1  A    between atoms: C_6  and  C_7 
REMARK    2  A    between atoms: C_7  and  C_8 
REMARK    3  A    between atoms: C_8  and  C_9 
REMARK    4  A    between atoms: C_9  and  C_10 
REMARK    5  A    between atoms: C_10  and  C_11 
REMARK    6  A    between atoms: C_10  and  C_14 
REMARK    7  A    between atoms: C_11  and  O_13 
REMARK    8  A    between atoms: C_14  and  S_15 
ROOT
HETATM    1  C   UNK N   1      31.140  16.271   6.695  0.00  0.00     0.016 C 
ENDROOT
BRANCH   1   2
HETATM    2  C   UNK N   1      29.832  16.763   6.096  0.00  0.00     0.006 C 
BRANCH   2   3
HETATM    3  C   UNK N   1      29.072  17.639   7.079  0.00  0.00     0.038 C 
BRANCH   3   4
HETATM    4  C   UNK N   1      28.342  18.758   6.395  0.00  0.00    -0.058 A 
HETATM    5  C   UNK N   1      27.723  19.744   7.171  0.00  0.00     0.007 A 
HETATM    6  C   UNK N   1      27.061  20.813   6.554  0.00  0.00     0.001 A 
HETATM    7  C   UNK N   1      27.023  20.902   5.160  0.00  0.00     0.000 A 
HETATM    8  C   UNK N   1      27.644  19.924   4.379  0.00  0.00     0.001 A 
HETATM    9  C   UNK N   1      28.304  18.857   4.993  0.00  0.00     0.007 A 
ENDBRANCH   3   4
ENDBRANCH   2   3
ENDBRANCH   1   2
BRANCH   1  10
HETATM   10  C   UNK N   1      32.337  16.776   5.881  0.00  0.00     0.092 C 
BRANCH  10  11
HETATM   11  C   UNK N   1      33.235  17.626   6.747  0.00  0.00     0.144 C 
HETATM   12  O   UNK N   1      34.365  17.921   6.381  0.00  0.00    -0.650 OA
BRANCH  11  13
HETATM   13  O   UNK N   1      32.801  18.045   7.951  0.00  0.00    -0.776 OA
HETATM   14  H   UNK N   1      33.400  18.264   8.638  0.00  0.00     0.167 HD
ENDBRANCH  11  13
ENDBRANCH  10  11
BRANCH  10  15
HETATM   15  C   UNK N   1      31.888  17.501   4.598  0.00  0.00     0.086 C 
BRANCH  15  16
HETATM   16  S   UNK N   1      32.569  16.761   3.076  0.00  0.00    -0.181 SA
HETATM   17  H   UNK N   1      33.270  15.729   2.534  0.00  0.00     0.101 HD
ENDBRANCH  15  16
ENDBRANCH  10  15
ENDBRANCH   1  10
TORSDOF 8
ENDMDL
MODEL 9
REMARK VINA RESULT:      -5.0     12.695     14.685
REMARK  8 active torsions:
REMARK  status: ('A' for Active; 'I' for Inactive)
REMARK    1  A    between atoms: C_6  and  C_7 
REMARK    2  A    between atoms: C_7  and  C_8 
REMARK    3  A    between atoms: C_8  and  C_9 
REMARK    4  A    between atoms: C_9  and  C_10 
REMARK    5  A    between atoms: C_10  and  C_11 
REMARK    6  A    between atoms: C_10  and  C_14 
REMARK    7  A    between atoms: C_11  and  O_13 
REMARK    8  A    between atoms: C_14  and  S_15 
ROOT
HETATM    1  C   UNK N   1      33.169  16.223   8.194  0.00  0.00     0.016 C 
ENDROOT
BRANCH   1   2
HETATM    2  C   UNK N   1      31.671  16.388   8.392  0.00  0.00     0.006 C 
BRANCH   2   3
HETATM    3  C   UNK N   1      31.074  17.308   7.338  0.00  0.00     0.038 C 
BRANCH   3   4
HETATM    4  C   UNK N   1      31.150  16.717   5.961  0.00  0.00    -0.058 A 
HETATM    5  C   UNK N   1      30.594  15.454   5.727  0.00  0.00     0.007 A 
HETATM    6  C   UNK N   1      30.627  14.897   4.444  0.00  0.00     0.001 A 
HETATM    7  C   UNK N   1      31.209  15.603   3.388  0.00  0.00     0.000 A 
HETATM    8  C   UNK N   1      31.760  16.867   3.612  0.00  0.00     0.001 A 
HETATM    9  C   UNK N   1      31.729  17.425   4.893  0.00  0.00     0.007 A 
ENDBRANCH   3   4
ENDBRANCH   2   3
ENDBRANCH   1   2
BRANCH   1  10
HETATM   10  C   UNK N   1      33.944  17.267   9.006  0.00  0.00     0.092 C 
BRANCH  10  11
HETATM   11  C   UNK N   1      34.590  18.272   8.083  0.00  0.00     0.144 C 
HETATM   12  O   UNK N   1      35.245  19.204   8.527  0.00  0.00    -0.650 OA
BRANCH  11  13
HETATM   13  O   UNK N   1      34.423  18.159   6.751  0.00  0.00    -0.776 OA
HETATM   14  H   UNK N   1      34.675  18.847   6.166  0.00  0.00     0.167 HD
ENDBRANCH  11  13
ENDBRANCH  10  11
BRANCH  10  15
HETATM   15  C   UNK N   1      34.952  16.608   9.966  0.00  0.00     0.086 C 
BRANCH  15  16
HETATM   16  S   UNK N   1      34.361  15.029  10.661  0.00  0.00    -0.181 SA
HETATM   17  H   UNK N   1      34.045  14.335  11.789  0.00  0.00     0.101 HD
ENDBRANCH  15  16
ENDBRANCH  10  15
ENDBRANCH   1  10
TORSDOF 8
ENDMDL
