MODEL 1
REMARK VINA RESULT:      -6.9      0.000      0.000
REMARK  13 active torsions:
REMARK  status: ('A' for Active; 'I' for Inactive)
REMARK    1  A    between atoms: N_1  and  O_2 
REMARK    2  A    between atoms: O_2  and  C_29 
REMARK    3  A    between atoms: C_3  and  C_4 
REMARK    4  A    between atoms: C_3  and  C_28 
REMARK    5  A    between atoms: C_4  and  N_5 
REMARK    6  A    between atoms: N_5  and  C_7 
REMARK    7  A    between atoms: C_8  and  C_7 
REMARK    8  A    between atoms: C_10  and  N_11 
REMARK    9  A    between atoms: C_18  and  N_19 
REMARK   10  A    between atoms: C_23  and  C_31 
REMARK   11  A    between atoms: C_24  and  O_25 
REMARK   12  A    between atoms: C_26  and  O_27 
REMARK   13  A    between atoms: C_28  and  C_29 
ROOT
HETATM    1  C   UNK N   1      33.954  15.541   9.426  0.00  0.00     0.183 C 
HETATM    2  O   UNK N   1      32.638  15.902   9.077  0.00  0.00    -0.354 OA
HETATM    3  C   UNK N   1      32.866  16.613   7.873  0.00  0.00     0.263 C 
HETATM    4  C   UNK N   1      33.910  17.635   8.287  0.00  0.00     0.198 C 
HETATM    5  C   UNK N   1      34.830  16.781   9.157  0.00  0.00     0.182 C 
ENDROOT
BRANCH   3   6
HETATM    6  N   UNK N   1      31.607  17.103   7.290  0.00  0.00    -0.287 N 
HETATM    7  C   UNK N   1      30.585  17.570   8.022  0.00  0.00     0.143 A 
HETATM    8  N   UNK N   1      30.544  17.740   9.368  0.00  0.00    -0.336 N 
HETATM    9  C   UNK N   1      29.538  17.856   7.225  0.00  0.00     0.122 A 
HETATM   10  C   UNK N   1      29.392  18.227   9.920  0.00  0.00     0.183 A 
ATOM     11  HN  UNK N   1      31.350  17.511   9.950  1.00  0.00     0.168 HD
HETATM   12  N   UNK N   1      28.308  18.517   9.127  0.00  0.00    -0.337 N 
HETATM   13  C   UNK N   1      28.359  18.334   7.773  0.00  0.00     0.131 A 
ATOM     14  HN  UNK N   1      27.453  18.872   9.555  1.00  0.00     0.168 HD
HETATM   15  N   UNK N   1      29.848  17.583   5.945  0.00  0.00    -0.336 N 
HETATM   16  C   UNK N   1      31.130  17.120   6.008  0.00  0.00     0.111 A 
ATOM     17  HN  UNK N   1      29.261  17.695   5.119  1.00  0.00     0.168 HD
BRANCH  13  18
HETATM   18  N   UNK N   1      27.236  18.613   6.969  0.00  0.00    -0.383 N 
HETATM   19  H   UNK N   1      26.951  17.982   6.269  0.00  0.00     0.157 HD
HETATM   20  H   UNK N   1      26.732  19.447   7.108  0.00  0.00     0.157 HD
ENDBRANCH  13  18
BRANCH  16  21
HETATM   21  C   UNK N   1      31.854  16.626   4.827  0.00  0.00     0.038 C 
HETATM   22  C   UNK N   1      32.665  17.419   4.129  0.00  0.00     0.015 C 
ENDBRANCH  16  21
ENDBRANCH   3   6
BRANCH   4  23
HETATM   23  O   UNK N   1      34.594  18.225   7.223  0.00  0.00    -0.388 OA
HETATM   24  H   UNK N   1      35.472  18.084   6.836  0.00  0.00     0.210 HD
ENDBRANCH   4  23
BRANCH   1  25
HETATM   25  C   UNK N   1      34.089  14.910  10.810  0.00  0.00     0.306 C 
BRANCH  25  26
HETATM   26  N   UNK N   1      34.915  13.714  10.689  0.00  0.00     0.086 N 
HETATM   27  C   UNK N   1      34.832  13.177   9.337  0.00  0.00     0.310 C 
BRANCH  26  28
HETATM   28  C   UNK N   1      36.288  13.975  11.139  0.00  0.00     0.272 C 
BRANCH  28  29
HETATM   29  C   UNK N   1      36.676  13.224  12.415  0.00  0.00     0.032 C 
BRANCH  29  30
HETATM   30  C   UNK N   1      36.387  14.069  13.653  0.00  0.00     0.030 C 
BRANCH  30  31
HETATM   31  C   UNK N   1      35.464  13.336  14.615  0.00  0.00     0.200 C 
BRANCH  31  32
HETATM   32  O   UNK N   1      34.415  12.736  13.922  0.00  0.00    -0.287 OA
BRANCH  32  33
HETATM   33  N   UNK N   1      34.089  11.661  14.677  0.00  0.00    -0.311 N 
HETATM   34  H   UNK N   1      33.964  11.710  15.688  0.00  0.00     0.184 HD
HETATM   35  H   UNK N   1      33.963  10.759  14.214  0.00  0.00     0.184 HD
ENDBRANCH  32  33
ENDBRANCH  31  32
ENDBRANCH  30  31
ENDBRANCH  29  30
ENDBRANCH  28  29
ENDBRANCH  26  28
ENDBRANCH  25  26
ENDBRANCH   1  25
BRANCH   5  36
HETATM   36  O   UNK N   1      35.148  17.484  10.324  0.00  0.00    -0.390 OA
HETATM   37  H   UNK N   1      35.155  18.363  10.733  0.00  0.00     0.210 HD
ENDBRANCH   5  36
TORSDOF 13
ENDMDL
MODEL 2
REMARK VINA RESULT:      -6.5      1.634      1.992
REMARK  13 active torsions:
REMARK  status: ('A' for Active; 'I' for Inactive)
REMARK    1  A    between atoms: N_1  and  O_2 
REMARK    2  A    between atoms: O_2  and  C_29 
REMARK    3  A    between atoms: C_3  and  C_4 
REMARK    4  A    between atoms: C_3  and  C_28 
REMARK    5  A    between atoms: C_4  and  N_5 
REMARK    6  A    between atoms: N_5  and  C_7 
REMARK    7  A    between atoms: C_8  and  C_7 
REMARK    8  A    between atoms: C_10  and  N_11 
REMARK    9  A    between atoms: C_18  and  N_19 
REMARK   10  A    between atoms: C_23  and  C_31 
REMARK   11  A    between atoms: C_24  and  O_25 
REMARK   12  A    between atoms: C_26  and  O_27 
REMARK   13  A    between atoms: C_28  and  C_29 
ROOT
HETATM    1  C   UNK N   1      34.015  15.494   9.253  0.00  0.00     0.183 C 
HETATM    2  O   UNK N   1      32.690  15.855   8.941  0.00  0.00    -0.354 OA
HETATM    3  C   UNK N   1      32.891  16.627   7.770  0.00  0.00     0.263 C 
HETATM    4  C   UNK N   1      33.929  17.641   8.219  0.00  0.00     0.198 C 
HETATM    5  C   UNK N   1      34.872  16.756   9.032  0.00  0.00     0.182 C 
ENDROOT
BRANCH   3   6
HETATM    6  N   UNK N   1      31.618  17.130   7.230  0.00  0.00    -0.287 N 
HETATM    7  C   UNK N   1      30.628  17.610   7.997  0.00  0.00     0.143 A 
HETATM    8  N   UNK N   1      30.636  17.785   9.342  0.00  0.00    -0.336 N 
HETATM    9  C   UNK N   1      29.556  17.906   7.236  0.00  0.00     0.122 A 
HETATM   10  C   UNK N   1      29.509  18.287   9.933  0.00  0.00     0.183 A 
ATOM     11  HN  UNK N   1      31.459  17.549   9.897  1.00  0.00     0.168 HD
HETATM   12  N   UNK N   1      28.402  18.586   9.177  0.00  0.00    -0.337 N 
HETATM   13  C   UNK N   1      28.402  18.399   7.823  0.00  0.00     0.131 A 
ATOM     14  HN  UNK N   1      27.566  18.953   9.635  1.00  0.00     0.168 HD
HETATM   15  N   UNK N   1      29.817  17.624   5.947  0.00  0.00    -0.336 N 
HETATM   16  C   UNK N   1      31.095  17.147   5.966  0.00  0.00     0.111 A 
ATOM     17  HN  UNK N   1      29.203  17.740   5.142  1.00  0.00     0.168 HD
BRANCH  13  18
HETATM   18  N   UNK N   1      27.255  18.687   7.059  0.00  0.00    -0.383 N 
HETATM   19  H   UNK N   1      27.074  19.605   6.753  0.00  0.00     0.157 HD
HETATM   20  H   UNK N   1      26.628  17.963   6.828  0.00  0.00     0.157 HD
ENDBRANCH  13  18
BRANCH  16  21
HETATM   21  C   UNK N   1      31.772  16.641   4.762  0.00  0.00     0.038 C 
HETATM   22  C   UNK N   1      32.616  17.403   4.069  0.00  0.00     0.015 C 
ENDBRANCH  16  21
ENDBRANCH   3   6
BRANCH   4  23
HETATM   23  O   UNK N   1      34.590  18.290   7.175  0.00  0.00    -0.388 OA
HETATM   24  H   UNK N   1      35.526  18.427   6.964  0.00  0.00     0.210 HD
ENDBRANCH   4  23
BRANCH   1  25
HETATM   25  C   UNK N   1      34.178  14.798  10.603  0.00  0.00     0.306 C 
BRANCH  25  26
HETATM   26  N   UNK N   1      34.259  13.360  10.369  0.00  0.00     0.086 N 
HETATM   27  C   UNK N   1      34.745  13.094   9.022  0.00  0.00     0.310 C 
BRANCH  26  28
HETATM   28  C   UNK N   1      35.041  12.700  11.421  0.00  0.00     0.272 C 
BRANCH  28  29
HETATM   29  C   UNK N   1      35.752  11.426  10.958  0.00  0.00     0.032 C 
BRANCH  29  30
HETATM   30  C   UNK N   1      37.251  11.506  11.239  0.00  0.00     0.030 C 
BRANCH  30  31
HETATM   31  C   UNK N   1      37.683  12.939  11.512  0.00  0.00     0.200 C 
BRANCH  31  32
HETATM   32  O   UNK N   1      38.476  13.415  10.471  0.00  0.00    -0.287 OA
BRANCH  32  33
HETATM   33  N   UNK N   1      37.901  14.591  10.125  0.00  0.00    -0.311 N 
HETATM   34  H   UNK N   1      38.437  15.401   9.815  0.00  0.00     0.184 HD
HETATM   35  H   UNK N   1      36.884  14.671  10.176  0.00  0.00     0.184 HD
ENDBRANCH  32  33
ENDBRANCH  31  32
ENDBRANCH  30  31
ENDBRANCH  29  30
ENDBRANCH  28  29
ENDBRANCH  26  28
ENDBRANCH  25  26
ENDBRANCH   1  25
BRANCH   5  36
HETATM   36  O   UNK N   1      35.200  17.406  10.228  0.00  0.00    -0.390 OA
HETATM   37  H   UNK N   1      35.326  18.274  10.640  0.00  0.00     0.210 HD
ENDBRANCH   5  36
TORSDOF 13
ENDMDL
MODEL 3
REMARK VINA RESULT:      -6.5      1.574      2.767
REMARK  13 active torsions:
REMARK  status: ('A' for Active; 'I' for Inactive)
REMARK    1  A    between atoms: N_1  and  O_2 
REMARK    2  A    between atoms: O_2  and  C_29 
REMARK    3  A    between atoms: C_3  and  C_4 
REMARK    4  A    between atoms: C_3  and  C_28 
REMARK    5  A    between atoms: C_4  and  N_5 
REMARK    6  A    between atoms: N_5  and  C_7 
REMARK    7  A    between atoms: C_8  and  C_7 
REMARK    8  A    between atoms: C_10  and  N_11 
REMARK    9  A    between atoms: C_18  and  N_19 
REMARK   10  A    between atoms: C_23  and  C_31 
REMARK   11  A    between atoms: C_24  and  O_25 
REMARK   12  A    between atoms: C_26  and  O_27 
REMARK   13  A    between atoms: C_28  and  C_29 
ROOT
HETATM    1  C   UNK N   1      33.989  15.495   9.498  0.00  0.00     0.183 C 
HETATM    2  O   UNK N   1      32.678  15.825   9.106  0.00  0.00    -0.354 OA
HETATM    3  C   UNK N   1      32.931  16.618   7.960  0.00  0.00     0.263 C 
HETATM    4  C   UNK N   1      33.909  17.653   8.486  0.00  0.00     0.198 C 
HETATM    5  C   UNK N   1      34.823  16.783   9.347  0.00  0.00     0.182 C 
ENDROOT
BRANCH   3   6
HETATM    6  N   UNK N   1      31.681  17.093   7.346  0.00  0.00    -0.287 N 
HETATM    7  C   UNK N   1      30.642  17.563   8.053  0.00  0.00     0.143 A 
HETATM    8  N   UNK N   1      30.574  17.750   9.395  0.00  0.00    -0.336 N 
HETATM    9  C   UNK N   1      29.609  17.833   7.231  0.00  0.00     0.122 A 
HETATM   10  C   UNK N   1      29.407  18.237   9.918  0.00  0.00     0.183 A 
ATOM     11  HN  UNK N   1      31.369  17.533   9.996  1.00  0.00     0.168 HD
HETATM   12  N   UNK N   1      28.338  18.509   9.100  0.00  0.00    -0.337 N 
HETATM   13  C   UNK N   1      28.416  18.310   7.750  0.00  0.00     0.131 A 
ATOM     14  HN  UNK N   1      27.472  18.865   9.507  1.00  0.00     0.168 HD
HETATM   15  N   UNK N   1      29.945  17.545   5.961  0.00  0.00    -0.336 N 
HETATM   16  C   UNK N   1      31.229  17.091   6.055  0.00  0.00     0.111 A 
ATOM     17  HN  UNK N   1      29.375  17.644   5.122  1.00  0.00     0.168 HD
BRANCH  13  18
HETATM   18  N   UNK N   1      27.308  18.572   6.920  0.00  0.00    -0.383 N 
HETATM   19  H   UNK N   1      26.883  19.459   6.917  0.00  0.00     0.157 HD
HETATM   20  H   UNK N   1      26.955  17.859   6.339  0.00  0.00     0.157 HD
ENDBRANCH  13  18
BRANCH  16  21
HETATM   21  C   UNK N   1      31.979  16.586   4.895  0.00  0.00     0.038 C 
HETATM   22  C   UNK N   1      32.879  17.343   4.269  0.00  0.00     0.015 C 
ENDBRANCH  16  21
ENDBRANCH   3   6
BRANCH   4  23
HETATM   23  O   UNK N   1      34.617  18.335   7.494  0.00  0.00    -0.388 OA
HETATM   24  H   UNK N   1      34.674  19.269   7.242  0.00  0.00     0.210 HD
ENDBRANCH   4  23
BRANCH   1  25
HETATM   25  C   UNK N   1      34.086  14.785  10.846  0.00  0.00     0.306 C 
BRANCH  25  26
HETATM   26  N   UNK N   1      35.386  14.128  10.925  0.00  0.00     0.086 N 
HETATM   27  C   UNK N   1      35.547  13.481  12.220  0.00  0.00     0.310 C 
BRANCH  26  28
HETATM   28  C   UNK N   1      35.591  13.227   9.784  0.00  0.00     0.272 C 
BRANCH  28  29
HETATM   29  C   UNK N   1      34.711  11.976   9.816  0.00  0.00     0.032 C 
BRANCH  29  30
HETATM   30  C   UNK N   1      34.812  11.205   8.502  0.00  0.00     0.030 C 
BRANCH  30  31
HETATM   31  C   UNK N   1      33.579  11.427   7.639  0.00  0.00     0.200 C 
BRANCH  31  32
HETATM   32  O   UNK N   1      32.745  12.381   8.216  0.00  0.00    -0.287 OA
BRANCH  32  33
HETATM   33  N   UNK N   1      32.470  13.238   7.205  0.00  0.00    -0.311 N 
HETATM   34  H   UNK N   1      31.731  13.939   7.257  0.00  0.00     0.184 HD
HETATM   35  H   UNK N   1      33.027  13.181   6.351  0.00  0.00     0.184 HD
ENDBRANCH  32  33
ENDBRANCH  31  32
ENDBRANCH  30  31
ENDBRANCH  29  30
ENDBRANCH  28  29
ENDBRANCH  26  28
ENDBRANCH  25  26
ENDBRANCH   1  25
BRANCH   5  36
HETATM   36  O   UNK N   1      35.057  17.425  10.569  0.00  0.00    -0.390 OA
HETATM   37  H   UNK N   1      34.988  17.328  11.531  0.00  0.00     0.210 HD
ENDBRANCH   5  36
TORSDOF 13
ENDMDL
MODEL 4
REMARK VINA RESULT:      -6.3      4.256      6.754
REMARK  13 active torsions:
REMARK  status: ('A' for Active; 'I' for Inactive)
REMARK    1  A    between atoms: N_1  and  O_2 
REMARK    2  A    between atoms: O_2  and  C_29 
REMARK    3  A    between atoms: C_3  and  C_4 
REMARK    4  A    between atoms: C_3  and  C_28 
REMARK    5  A    between atoms: C_4  and  N_5 
REMARK    6  A    between atoms: N_5  and  C_7 
REMARK    7  A    between atoms: C_8  and  C_7 
REMARK    8  A    between atoms: C_10  and  N_11 
REMARK    9  A    between atoms: C_18  and  N_19 
REMARK   10  A    between atoms: C_23  and  C_31 
REMARK   11  A    between atoms: C_24  and  O_25 
REMARK   12  A    between atoms: C_26  and  O_27 
REMARK   13  A    between atoms: C_28  and  C_29 
ROOT
HETATM    1  C   UNK N   1      30.774  17.990   8.387  0.00  0.00     0.183 C 
HETATM    2  O   UNK N   1      30.123  17.680   7.177  0.00  0.00    -0.354 OA
HETATM    3  C   UNK N   1      28.884  18.342   7.362  0.00  0.00     0.263 C 
HETATM    4  C   UNK N   1      28.418  17.798   8.701  0.00  0.00     0.198 C 
HETATM    5  C   UNK N   1      29.719  17.828   9.500  0.00  0.00     0.182 C 
ENDROOT
BRANCH   3   6
HETATM    6  N   UNK N   1      28.002  18.168   6.197  0.00  0.00    -0.287 N 
HETATM    7  C   UNK N   1      27.829  16.996   5.569  0.00  0.00     0.143 A 
HETATM    8  N   UNK N   1      28.348  15.791   5.912  0.00  0.00    -0.336 N 
HETATM    9  C   UNK N   1      27.043  17.164   4.487  0.00  0.00     0.122 A 
HETATM   10  C   UNK N   1      28.049  14.713   5.124  0.00  0.00     0.183 A 
ATOM     11  HN  UNK N   1      28.944  15.691   6.734  1.00  0.00     0.168 HD
HETATM   12  N   UNK N   1      27.258  14.863   4.011  0.00  0.00    -0.337 N 
HETATM   13  C   UNK N   1      26.746  16.084   3.671  0.00  0.00     0.131 A 
ATOM     14  HN  UNK N   1      27.050  14.050   3.430  1.00  0.00     0.168 HD
HETATM   15  N   UNK N   1      26.681  18.454   4.378  0.00  0.00    -0.336 N 
HETATM   16  C   UNK N   1      27.284  19.057   5.444  0.00  0.00     0.111 A 
ATOM     17  HN  UNK N   1      26.093  18.884   3.665  1.00  0.00     0.168 HD
BRANCH  13  18
HETATM   18  N   UNK N   1      25.954  16.233   2.515  0.00  0.00    -0.383 N 
HETATM   19  H   UNK N   1      26.314  16.677   1.714  0.00  0.00     0.157 HD
HETATM   20  H   UNK N   1      25.030  15.891   2.510  0.00  0.00     0.157 HD
ENDBRANCH  13  18
BRANCH  16  21
HETATM   21  C   UNK N   1      27.217  20.507   5.679  0.00  0.00     0.038 C 
HETATM   22  C   UNK N   1      26.444  21.020   6.635  0.00  0.00     0.015 C 
ENDBRANCH  16  21
ENDBRANCH   3   6
BRANCH   4  23
HETATM   23  O   UNK N   1      27.411  18.549   9.309  0.00  0.00    -0.388 OA
HETATM   24  H   UNK N   1      26.609  18.313   9.800  0.00  0.00     0.210 HD
ENDBRANCH   4  23
BRANCH   1  25
HETATM   25  C   UNK N   1      32.094  17.254   8.601  0.00  0.00     0.306 C 
BRANCH  25  26
HETATM   26  N   UNK N   1      32.999  17.614   7.514  0.00  0.00     0.086 N 
HETATM   27  C   UNK N   1      34.185  18.275   8.043  0.00  0.00     0.310 C 
BRANCH  26  28
HETATM   28  C   UNK N   1      33.298  16.450   6.671  0.00  0.00     0.272 C 
BRANCH  28  29
HETATM   29  C   UNK N   1      33.703  16.808   5.239  0.00  0.00     0.032 C 
BRANCH  29  30
HETATM   30  C   UNK N   1      32.613  17.629   4.555  0.00  0.00     0.030 C 
BRANCH  30  31
HETATM   31  C   UNK N   1      32.244  17.035   3.204  0.00  0.00     0.200 C 
BRANCH  31  32
HETATM   32  O   UNK N   1      31.150  16.182   3.328  0.00  0.00    -0.287 OA
BRANCH  32  33
HETATM   33  N   UNK N   1      30.151  16.825   2.679  0.00  0.00    -0.311 N 
HETATM   34  H   UNK N   1      29.895  16.619   1.713  0.00  0.00     0.184 HD
HETATM   35  H   UNK N   1      29.630  17.548   3.178  0.00  0.00     0.184 HD
ENDBRANCH  32  33
ENDBRANCH  31  32
ENDBRANCH  30  31
ENDBRANCH  29  30
ENDBRANCH  28  29
ENDBRANCH  26  28
ENDBRANCH  25  26
ENDBRANCH   1  25
BRANCH   5  36
HETATM   36  O   UNK N   1      29.856  16.628  10.207  0.00  0.00    -0.390 OA
HETATM   37  H   UNK N   1      29.559  16.142  10.991  0.00  0.00     0.210 HD
ENDBRANCH   5  36
TORSDOF 13
ENDMDL
MODEL 5
REMARK VINA RESULT:      -6.1      8.750     11.944
REMARK  13 active torsions:
REMARK  status: ('A' for Active; 'I' for Inactive)
REMARK    1  A    between atoms: N_1  and  O_2 
REMARK    2  A    between atoms: O_2  and  C_29 
REMARK    3  A    between atoms: C_3  and  C_4 
REMARK    4  A    between atoms: C_3  and  C_28 
REMARK    5  A    between atoms: C_4  and  N_5 
REMARK    6  A    between atoms: N_5  and  C_7 
REMARK    7  A    between atoms: C_8  and  C_7 
REMARK    8  A    between atoms: C_10  and  N_11 
REMARK    9  A    between atoms: C_18  and  N_19 
REMARK   10  A    between atoms: C_23  and  C_31 
REMARK   11  A    between atoms: C_24  and  O_25 
REMARK   12  A    between atoms: C_26  and  O_27 
REMARK   13  A    between atoms: C_28  and  C_29 
ROOT
HETATM    1  C   UNK N   1      22.483  17.831   5.021  0.00  0.00     0.183 C 
HETATM    2  O   UNK N   1      23.832  17.502   4.790  0.00  0.00    -0.354 OA
HETATM    3  C   UNK N   1      24.394  18.789   4.603  0.00  0.00     0.263 C 
HETATM    4  C   UNK N   1      23.505  19.382   3.526  0.00  0.00     0.198 C 
HETATM    5  C   UNK N   1      22.125  18.931   4.001  0.00  0.00     0.182 C 
ENDROOT
BRANCH   3   6
HETATM    6  N   UNK N   1      25.841  18.713   4.345  0.00  0.00    -0.287 N 
HETATM    7  C   UNK N   1      26.441  17.642   3.805  0.00  0.00     0.143 A 
HETATM    8  N   UNK N   1      25.851  16.508   3.349  0.00  0.00    -0.336 N 
HETATM    9  C   UNK N   1      27.776  17.825   3.777  0.00  0.00     0.122 A 
HETATM   10  C   UNK N   1      26.655  15.526   2.839  0.00  0.00     0.183 A 
ATOM     11  HN  UNK N   1      24.839  16.392   3.386  1.00  0.00     0.168 HD
HETATM   12  N   UNK N   1      28.019  15.687   2.809  0.00  0.00    -0.337 N 
HETATM   13  C   UNK N   1      28.602  16.831   3.279  0.00  0.00     0.131 A 
ATOM     14  HN  UNK N   1      28.604  14.942   2.432  1.00  0.00     0.168 HD
HETATM   15  N   UNK N   1      28.085  19.025   4.300  0.00  0.00    -0.336 N 
HETATM   16  C   UNK N   1      26.876  19.556   4.644  0.00  0.00     0.111 A 
ATOM     17  HN  UNK N   1      29.009  19.441   4.414  1.00  0.00     0.168 HD
BRANCH  13  18
HETATM   18  N   UNK N   1      30.003  16.980   3.265  0.00  0.00    -0.383 N 
HETATM   19  H   UNK N   1      30.471  17.390   4.027  0.00  0.00     0.157 HD
HETATM   20  H   UNK N   1      30.518  16.671   2.485  0.00  0.00     0.157 HD
ENDBRANCH  13  18
BRANCH  16  21
HETATM   21  C   UNK N   1      26.744  20.851   5.330  0.00  0.00     0.038 C 
HETATM   22  C   UNK N   1      26.710  20.931   6.659  0.00  0.00     0.015 C 
ENDBRANCH  16  21
ENDBRANCH   3   6
BRANCH   4  23
HETATM   23  O   UNK N   1      23.589  20.770   3.407  0.00  0.00    -0.388 OA
HETATM   24  H   UNK N   1      24.158  21.360   2.888  0.00  0.00     0.210 HD
ENDBRANCH   4  23
BRANCH   1  25
HETATM   25  C   UNK N   1      21.540  16.631   5.073  0.00  0.00     0.306 C 
BRANCH  25  26
HETATM   26  N   UNK N   1      20.427  16.961   5.957  0.00  0.00     0.086 N 
HETATM   27  C   UNK N   1      19.289  16.095   5.680  0.00  0.00     0.310 C 
BRANCH  26  28
HETATM   28  C   UNK N   1      20.850  16.950   7.363  0.00  0.00     0.272 C 
BRANCH  28  29
HETATM   29  C   UNK N   1      19.802  16.381   8.322  0.00  0.00     0.032 C 
BRANCH  29  30
HETATM   30  C   UNK N   1      19.116  17.498   9.104  0.00  0.00     0.030 C 
BRANCH  30  31
HETATM   31  C   UNK N   1      19.905  18.796   9.015  0.00  0.00     0.200 C 
BRANCH  31  32
HETATM   32  O   UNK N   1      19.904  19.453  10.243  0.00  0.00    -0.287 OA
BRANCH  32  33
HETATM   33  N   UNK N   1      18.605  19.447  10.623  0.00  0.00    -0.311 N 
HETATM   34  H   UNK N   1      18.047  20.297  10.704  0.00  0.00     0.184 HD
HETATM   35  H   UNK N   1      18.164  18.552  10.840  0.00  0.00     0.184 HD
ENDBRANCH  32  33
ENDBRANCH  31  32
ENDBRANCH  30  31
ENDBRANCH  29  30
ENDBRANCH  28  29
ENDBRANCH  26  28
ENDBRANCH  25  26
ENDBRANCH   1  25
BRANCH   5  36
HETATM   36  O   UNK N   1      21.396  18.443   2.910  0.00  0.00    -0.390 OA
HETATM   37  H   UNK N   1      20.651  18.629   2.319  0.00  0.00     0.210 HD
ENDBRANCH   5  36
TORSDOF 13
ENDMDL
MODEL 6
REMARK VINA RESULT:      -5.9      2.545      8.975
REMARK  13 active torsions:
REMARK  status: ('A' for Active; 'I' for Inactive)
REMARK    1  A    between atoms: N_1  and  O_2 
REMARK    2  A    between atoms: O_2  and  C_29 
REMARK    3  A    between atoms: C_3  and  C_4 
REMARK    4  A    between atoms: C_3  and  C_28 
REMARK    5  A    between atoms: C_4  and  N_5 
REMARK    6  A    between atoms: N_5  and  C_7 
REMARK    7  A    between atoms: C_8  and  C_7 
REMARK    8  A    between atoms: C_10  and  N_11 
REMARK    9  A    between atoms: C_18  and  N_19 
REMARK   10  A    between atoms: C_23  and  C_31 
REMARK   11  A    between atoms: C_24  and  O_25 
REMARK   12  A    between atoms: C_26  and  O_27 
REMARK   13  A    between atoms: C_28  and  C_29 
ROOT
HETATM    1  C   UNK N   1      34.701  15.056  10.958  0.00  0.00     0.183 C 
HETATM    2  O   UNK N   1      34.745  13.679  11.250  0.00  0.00    -0.354 OA
HETATM    3  C   UNK N   1      35.106  13.707  12.620  0.00  0.00     0.263 C 
HETATM    4  C   UNK N   1      36.349  14.579  12.615  0.00  0.00     0.198 C 
HETATM    5  C   UNK N   1      35.929  15.684  11.648  0.00  0.00     0.182 C 
ENDROOT
BRANCH   3   6
HETATM    6  N   UNK N   1      35.213  12.349  13.176  0.00  0.00    -0.287 N 
HETATM    7  C   UNK N   1      35.561  11.277  12.449  0.00  0.00     0.143 A 
HETATM    8  N   UNK N   1      35.932  11.250  11.145  0.00  0.00    -0.336 N 
HETATM    9  C   UNK N   1      35.482  10.162  13.202  0.00  0.00     0.122 A 
HETATM   10  C   UNK N   1      36.242  10.039  10.589  0.00  0.00     0.183 A 
ATOM     11  HN  UNK N   1      35.979  12.107  10.594  1.00  0.00     0.168 HD
HETATM   12  N   UNK N   1      36.160   8.889  11.336  0.00  0.00    -0.337 N 
HETATM   13  C   UNK N   1      35.777   8.928  12.648  0.00  0.00     0.131 A 
ATOM     14  HN  UNK N   1      36.387   7.992  10.904  1.00  0.00     0.168 HD
HETATM   15  N   UNK N   1      35.080  10.477  14.446  0.00  0.00    -0.336 N 
HETATM   16  C   UNK N   1      34.920  11.832  14.408  0.00  0.00     0.111 A 
ATOM     17  HN  UNK N   1      34.929   9.849  15.235  1.00  0.00     0.168 HD
BRANCH  13  18
HETATM   18  N   UNK N   1      35.674   7.741  13.400  0.00  0.00    -0.383 N 
HETATM   19  H   UNK N   1      35.090   7.008  13.103  0.00  0.00     0.157 HD
HETATM   20  H   UNK N   1      36.191   7.646  14.233  0.00  0.00     0.157 HD
ENDBRANCH  13  18
BRANCH  16  21
HETATM   21  C   UNK N   1      34.410  12.603  15.552  0.00  0.00     0.038 C 
HETATM   22  C   UNK N   1      35.200  12.934  16.572  0.00  0.00     0.015 C 
ENDBRANCH  16  21
ENDBRANCH   3   6
BRANCH   4  23
HETATM   23  O   UNK N   1      36.705  15.084  13.866  0.00  0.00    -0.388 OA
HETATM   24  H   UNK N   1      37.487  15.552  14.196  0.00  0.00     0.210 HD
ENDBRANCH   4  23
BRANCH   1  25
HETATM   25  C   UNK N   1      34.522  15.382   9.477  0.00  0.00     0.306 C 
BRANCH  25  26
HETATM   26  N   UNK N   1      33.763  16.623   9.370  0.00  0.00     0.086 N 
HETATM   27  C   UNK N   1      34.540  17.631   8.662  0.00  0.00     0.310 C 
BRANCH  26  28
HETATM   28  C   UNK N   1      32.438  16.381   8.787  0.00  0.00     0.272 C 
BRANCH  28  29
HETATM   29  C   UNK N   1      31.885  17.566   7.991  0.00  0.00     0.032 C 
BRANCH  29  30
HETATM   30  C   UNK N   1      30.362  17.618   8.079  0.00  0.00     0.030 C 
BRANCH  30  31
HETATM   31  C   UNK N   1      29.908  18.461   9.261  0.00  0.00     0.200 C 
BRANCH  31  32
HETATM   32  O   UNK N   1      28.728  17.953   9.799  0.00  0.00    -0.287 OA
BRANCH  32  33
HETATM   33  N   UNK N   1      27.752  18.498   9.036  0.00  0.00    -0.311 N 
HETATM   34  H   UNK N   1      26.796  18.143   9.021  0.00  0.00     0.184 HD
HETATM   35  H   UNK N   1      27.983  19.300   8.448  0.00  0.00     0.184 HD
ENDBRANCH  32  33
ENDBRANCH  31  32
ENDBRANCH  30  31
ENDBRANCH  29  30
ENDBRANCH  28  29
ENDBRANCH  26  28
ENDBRANCH  25  26
ENDBRANCH   1  25
BRANCH   5  36
HETATM   36  O   UNK N   1      36.977  15.945  10.758  0.00  0.00    -0.390 OA
HETATM   37  H   UNK N   1      37.267  15.850   9.838  0.00  0.00     0.210 HD
ENDBRANCH   5  36
TORSDOF 13
ENDMDL
MODEL 7
REMARK VINA RESULT:      -5.9     15.184     18.717
REMARK  13 active torsions:
REMARK  status: ('A' for Active; 'I' for Inactive)
REMARK    1  A    between atoms: N_1  and  O_2 
REMARK    2  A    between atoms: O_2  and  C_29 
REMARK    3  A    between atoms: C_3  and  C_4 
REMARK    4  A    between atoms: C_3  and  C_28 
REMARK    5  A    between atoms: C_4  and  N_5 
REMARK    6  A    between atoms: N_5  and  C_7 
REMARK    7  A    between atoms: C_8  and  C_7 
REMARK    8  A    between atoms: C_10  and  N_11 
REMARK    9  A    between atoms: C_18  and  N_19 
REMARK   10  A    between atoms: C_23  and  C_31 
REMARK   11  A    between atoms: C_24  and  O_25 
REMARK   12  A    between atoms: C_26  and  O_27 
REMARK   13  A    between atoms: C_28  and  C_29 
ROOT
HETATM    1  C   UNK N   1      27.191  25.422  -7.321  0.00  0.00     0.183 C 
HETATM    2  O   UNK N   1      28.215  24.776  -6.602  0.00  0.00    -0.354 OA
HETATM    3  C   UNK N   1      27.830  23.420  -6.746  0.00  0.00     0.263 C 
HETATM    4  C   UNK N   1      26.387  23.436  -6.273  0.00  0.00     0.198 C 
HETATM    5  C   UNK N   1      25.876  24.717  -6.930  0.00  0.00     0.182 C 
ENDROOT
BRANCH   3   6
HETATM    6  N   UNK N   1      28.773  22.518  -6.067  0.00  0.00    -0.287 N 
HETATM    7  C   UNK N   1      29.392  22.824  -4.917  0.00  0.00     0.143 A 
HETATM    8  N   UNK N   1      29.223  23.936  -4.159  0.00  0.00    -0.336 N 
HETATM    9  C   UNK N   1      30.262  21.849  -4.587  0.00  0.00     0.122 A 
HETATM   10  C   UNK N   1      29.965  24.055  -3.016  0.00  0.00     0.183 A 
ATOM     11  HN  UNK N   1      28.561  24.662  -4.433  1.00  0.00     0.168 HD
HETATM   12  N   UNK N   1      30.865  23.078  -2.666  0.00  0.00    -0.337 N 
HETATM   13  C   UNK N   1      31.033  21.965  -3.442  0.00  0.00     0.131 A 
ATOM     14  HN  UNK N   1      31.417  23.186  -1.815  1.00  0.00     0.168 HD
HETATM   15  N   UNK N   1      30.236  20.877  -5.517  0.00  0.00    -0.336 N 
HETATM   16  C   UNK N   1      29.309  21.310  -6.420  0.00  0.00     0.111 A 
ATOM     17  HN  UNK N   1      30.781  20.016  -5.541  1.00  0.00     0.168 HD
BRANCH  13  18
HETATM   18  N   UNK N   1      31.974  20.978  -3.088  0.00  0.00    -0.383 N 
HETATM   19  H   UNK N   1      31.822  20.034  -3.321  0.00  0.00     0.157 HD
HETATM   20  H   UNK N   1      32.790  21.236  -2.601  0.00  0.00     0.157 HD
ENDBRANCH  13  18
BRANCH  16  21
HETATM   21  C   UNK N   1      29.008  20.578  -7.660  0.00  0.00     0.038 C 
HETATM   22  C   UNK N   1      29.385  19.312  -7.827  0.00  0.00     0.015 C 
ENDBRANCH  16  21
ENDBRANCH   3   6
BRANCH   4  23
HETATM   23  O   UNK N   1      25.643  22.319  -6.653  0.00  0.00    -0.388 OA
HETATM   24  H   UNK N   1      25.174  21.631  -6.156  0.00  0.00     0.210 HD
ENDBRANCH   4  23
BRANCH   1  25
HETATM   25  C   UNK N   1      27.199  26.944  -7.202  0.00  0.00     0.306 C 
BRANCH  25  26
HETATM   26  N   UNK N   1      28.531  27.363  -6.781  0.00  0.00     0.086 N 
HETATM   27  C   UNK N   1      29.236  27.993  -7.890  0.00  0.00     0.310 C 
BRANCH  26  28
HETATM   28  C   UNK N   1      28.465  28.196  -5.574  0.00  0.00     0.272 C 
BRANCH  28  29
HETATM   29  C   UNK N   1      27.214  29.074  -5.494  0.00  0.00     0.032 C 
BRANCH  29  30
HETATM   30  C   UNK N   1      26.700  29.160  -4.059  0.00  0.00     0.030 C 
BRANCH  30  31
HETATM   31  C   UNK N   1      25.640  28.103  -3.791  0.00  0.00     0.200 C 
BRANCH  31  32
HETATM   32  O   UNK N   1      26.037  27.269  -2.748  0.00  0.00    -0.287 OA
BRANCH  32  33
HETATM   33  N   UNK N   1      26.453  26.138  -3.366  0.00  0.00    -0.311 N 
HETATM   34  H   UNK N   1      27.396  26.024  -3.737  0.00  0.00     0.184 HD
HETATM   35  H   UNK N   1      25.793  25.365  -3.466  0.00  0.00     0.184 HD
ENDBRANCH  32  33
ENDBRANCH  31  32
ENDBRANCH  30  31
ENDBRANCH  29  30
ENDBRANCH  28  29
ENDBRANCH  26  28
ENDBRANCH  25  26
ENDBRANCH   1  25
BRANCH   5  36
HETATM   36  O   UNK N   1      25.125  25.447  -6.002  0.00  0.00    -0.390 OA
HETATM   37  H   UNK N   1      24.268  25.873  -5.848  0.00  0.00     0.210 HD
ENDBRANCH   5  36
TORSDOF 13
ENDMDL
MODEL 8
REMARK VINA RESULT:      -5.9      8.771     12.399
REMARK  13 active torsions:
REMARK  status: ('A' for Active; 'I' for Inactive)
REMARK    1  A    between atoms: N_1  and  O_2 
REMARK    2  A    between atoms: O_2  and  C_29 
REMARK    3  A    between atoms: C_3  and  C_4 
REMARK    4  A    between atoms: C_3  and  C_28 
REMARK    5  A    between atoms: C_4  and  N_5 
REMARK    6  A    between atoms: N_5  and  C_7 
REMARK    7  A    between atoms: C_8  and  C_7 
REMARK    8  A    between atoms: C_10  and  N_11 
REMARK    9  A    between atoms: C_18  and  N_19 
REMARK   10  A    between atoms: C_23  and  C_31 
REMARK   11  A    between atoms: C_24  and  O_25 
REMARK   12  A    between atoms: C_26  and  O_27 
REMARK   13  A    between atoms: C_28  and  C_29 
ROOT
HETATM    1  C   UNK N   1      22.405  18.316   4.999  0.00  0.00     0.183 C 
HETATM    2  O   UNK N   1      23.751  17.924   4.863  0.00  0.00    -0.354 OA
HETATM    3  C   UNK N   1      24.354  19.156   4.509  0.00  0.00     0.263 C 
HETATM    4  C   UNK N   1      23.513  19.608   3.329  0.00  0.00     0.198 C 
HETATM    5  C   UNK N   1      22.108  19.263   3.819  0.00  0.00     0.182 C 
ENDROOT
BRANCH   3   6
HETATM    6  N   UNK N   1      25.805  19.009   4.312  0.00  0.00    -0.287 N 
HETATM    7  C   UNK N   1      26.374  17.904   3.806  0.00  0.00     0.143 A 
HETATM    8  N   UNK N   1      25.750  16.796   3.334  0.00  0.00    -0.336 N 
HETATM    9  C   UNK N   1      27.716  18.023   3.832  0.00  0.00     0.122 A 
HETATM   10  C   UNK N   1      26.525  15.771   2.865  0.00  0.00     0.183 A 
ATOM     11  HN  UNK N   1      24.732  16.729   3.330  1.00  0.00     0.168 HD
HETATM   12  N   UNK N   1      27.896  15.867   2.891  0.00  0.00    -0.337 N 
HETATM   13  C   UNK N   1      28.513  16.986   3.375  0.00  0.00     0.131 A 
ATOM     14  HN  UNK N   1      28.459  15.091   2.544  1.00  0.00     0.168 HD
HETATM   15  N   UNK N   1      28.062  19.212   4.358  0.00  0.00    -0.336 N 
HETATM   16  C   UNK N   1      26.867  19.804   4.647  0.00  0.00     0.111 A 
ATOM     17  HN  UNK N   1      28.999  19.585   4.506  1.00  0.00     0.168 HD
BRANCH  13  18
HETATM   18  N   UNK N   1      29.919  17.068   3.418  0.00  0.00    -0.383 N 
HETATM   19  H   UNK N   1      30.364  17.808   3.890  0.00  0.00     0.157 HD
HETATM   20  H   UNK N   1      30.461  16.377   2.972  0.00  0.00     0.157 HD
ENDBRANCH  13  18
BRANCH  16  21
HETATM   21  C   UNK N   1      26.770  21.110   5.317  0.00  0.00     0.038 C 
HETATM   22  C   UNK N   1      26.873  21.219   6.640  0.00  0.00     0.015 C 
ENDBRANCH  16  21
ENDBRANCH   3   6
BRANCH   4  23
HETATM   23  O   UNK N   1      23.641  20.961   3.013  0.00  0.00    -0.388 OA
HETATM   24  H   UNK N   1      24.388  21.509   2.725  0.00  0.00     0.210 HD
ENDBRANCH   4  23
BRANCH   1  25
HETATM   25  C   UNK N   1      21.428  17.159   5.194  0.00  0.00     0.306 C 
BRANCH  25  26
HETATM   26  N   UNK N   1      22.198  15.952   5.476  0.00  0.00     0.086 N 
HETATM   27  C   UNK N   1      21.819  15.402   6.771  0.00  0.00     0.310 C 
BRANCH  26  28
HETATM   28  C   UNK N   1      22.093  14.991   4.371  0.00  0.00     0.272 C 
BRANCH  28  29
HETATM   29  C   UNK N   1      20.802  15.118   3.559  0.00  0.00     0.032 C 
BRANCH  29  30
HETATM   30  C   UNK N   1      21.097  15.096   2.061  0.00  0.00     0.030 C 
BRANCH  30  31
HETATM   31  C   UNK N   1      20.031  15.850   1.280  0.00  0.00     0.200 C 
BRANCH  31  32
HETATM   32  O   UNK N   1      20.617  16.646   0.299  0.00  0.00    -0.287 OA
BRANCH  32  33
HETATM   33  N   UNK N   1      19.914  17.802   0.344  0.00  0.00    -0.311 N 
HETATM   34  H   UNK N   1      20.085  18.581  -0.291  0.00  0.00     0.184 HD
HETATM   35  H   UNK N   1      19.179  17.899   1.046  0.00  0.00     0.184 HD
ENDBRANCH  32  33
ENDBRANCH  31  32
ENDBRANCH  30  31
ENDBRANCH  29  30
ENDBRANCH  28  29
ENDBRANCH  26  28
ENDBRANCH  25  26
ENDBRANCH   1  25
BRANCH   5  36
HETATM   36  O   UNK N   1      21.397  18.640   2.788  0.00  0.00    -0.390 OA
HETATM   37  H   UNK N   1      20.942  18.792   1.946  0.00  0.00     0.210 HD
ENDBRANCH   5  36
TORSDOF 13
ENDMDL
MODEL 9
REMARK VINA RESULT:      -5.8      8.721     11.017
REMARK  13 active torsions:
REMARK  status: ('A' for Active; 'I' for Inactive)
REMARK    1  A    between atoms: N_1  and  O_2 
REMARK    2  A    between atoms: O_2  and  C_29 
REMARK    3  A    between atoms: C_3  and  C_4 
REMARK    4  A    between atoms: C_3  and  C_28 
REMARK    5  A    between atoms: C_4  and  N_5 
REMARK    6  A    between atoms: N_5  and  C_7 
REMARK    7  A    between atoms: C_8  and  C_7 
REMARK    8  A    between atoms: C_10  and  N_11 
REMARK    9  A    between atoms: C_18  and  N_19 
REMARK   10  A    between atoms: C_23  and  C_31 
REMARK   11  A    between atoms: C_24  and  O_25 
REMARK   12  A    between atoms: C_26  and  O_27 
REMARK   13  A    between atoms: C_28  and  C_29 
ROOT
HETATM    1  C   UNK N   1      22.295  17.759   5.556  0.00  0.00     0.183 C 
HETATM    2  O   UNK N   1      23.645  17.451   5.300  0.00  0.00    -0.354 OA
HETATM    3  C   UNK N   1      24.125  18.704   4.846  0.00  0.00     0.263 C 
HETATM    4  C   UNK N   1      23.144  19.051   3.740  0.00  0.00     0.198 C 
HETATM    5  C   UNK N   1      21.820  18.636   4.379  0.00  0.00     0.182 C 
ENDROOT
BRANCH   3   6
HETATM    6  N   UNK N   1      25.556  18.643   4.510  0.00  0.00    -0.287 N 
HETATM    7  C   UNK N   1      26.132  17.590   3.912  0.00  0.00     0.143 A 
HETATM    8  N   UNK N   1      25.524  16.465   3.458  0.00  0.00    -0.336 N 
HETATM    9  C   UNK N   1      27.462  17.781   3.819  0.00  0.00     0.122 A 
HETATM   10  C   UNK N   1      26.304  15.501   2.880  0.00  0.00     0.183 A 
ATOM     11  HN  UNK N   1      24.515  16.342   3.545  1.00  0.00     0.168 HD
HETATM   12  N   UNK N   1      27.664  15.671   2.784  0.00  0.00    -0.337 N 
HETATM   13  C   UNK N   1      28.266  16.806   3.252  0.00  0.00     0.131 A 
ATOM     14  HN  UNK N   1      28.232  14.939   2.357  1.00  0.00     0.168 HD
HETATM   15  N   UNK N   1      27.794  18.969   4.356  0.00  0.00    -0.336 N 
HETATM   16  C   UNK N   1      26.602  19.484   4.776  0.00  0.00     0.111 A 
ATOM     17  HN  UNK N   1      28.720  19.388   4.432  1.00  0.00     0.168 HD
BRANCH  13  18
HETATM   18  N   UNK N   1      29.663  16.963   3.169  0.00  0.00    -0.383 N 
HETATM   19  H   UNK N   1      30.102  17.757   3.548  0.00  0.00     0.157 HD
HETATM   20  H   UNK N   1      30.206  16.271   2.726  0.00  0.00     0.157 HD
ENDBRANCH  13  18
BRANCH  16  21
HETATM   21  C   UNK N   1      26.501  20.760   5.502  0.00  0.00     0.038 C 
HETATM   22  C   UNK N   1      27.516  21.227   6.227  0.00  0.00     0.015 C 
ENDBRANCH  16  21
ENDBRANCH   3   6
BRANCH   4  23
HETATM   23  O   UNK N   1      23.147  20.395   3.366  0.00  0.00    -0.388 OA
HETATM   24  H   UNK N   1      22.973  21.219   3.846  0.00  0.00     0.210 HD
ENDBRANCH   4  23
BRANCH   1  25
HETATM   25  C   UNK N   1      21.423  16.550   5.887  0.00  0.00     0.306 C 
BRANCH  25  26
HETATM   26  N   UNK N   1      21.420  16.372   7.335  0.00  0.00     0.086 N 
HETATM   27  C   UNK N   1      20.149  16.812   7.895  0.00  0.00     0.310 C 
BRANCH  26  28
HETATM   28  C   UNK N   1      21.780  14.995   7.697  0.00  0.00     0.272 C 
BRANCH  28  29
HETATM   29  C   UNK N   1      20.661  14.226   8.402  0.00  0.00     0.032 C 
BRANCH  29  30
HETATM   30  C   UNK N   1      21.057  13.882   9.836  0.00  0.00     0.030 C 
BRANCH  30  31
HETATM   31  C   UNK N   1      22.487  13.370   9.903  0.00  0.00     0.200 C 
BRANCH  31  32
HETATM   32  O   UNK N   1      22.665  12.565  11.025  0.00  0.00    -0.287 OA
BRANCH  32  33
HETATM   33  N   UNK N   1      21.461  11.971  11.203  0.00  0.00    -0.311 N 
HETATM   34  H   UNK N   1      21.157  11.591  12.100  0.00  0.00     0.184 HD
HETATM   35  H   UNK N   1      20.830  11.900  10.404  0.00  0.00     0.184 HD
ENDBRANCH  32  33
ENDBRANCH  31  32
ENDBRANCH  30  31
ENDBRANCH  29  30
ENDBRANCH  28  29
ENDBRANCH  26  28
ENDBRANCH  25  26
ENDBRANCH   1  25
BRANCH   5  36
HETATM   36  O   UNK N   1      21.057  17.926   3.446  0.00  0.00    -0.390 OA
HETATM   37  H   UNK N   1      20.187  17.530   3.282  0.00  0.00     0.210 HD
ENDBRANCH   5  36
TORSDOF 13
ENDMDL
