REMARK  13 active torsions:
REMARK  status: ('A' for Active; 'I' for Inactive)
REMARK    1  A    between atoms: N_1  and  O_2 
REMARK    2  A    between atoms: O_2  and  C_29 
REMARK    3  A    between atoms: C_3  and  C_4 
REMARK    4  A    between atoms: C_3  and  C_28 
REMARK    5  A    between atoms: C_4  and  N_5 
REMARK    6  A    between atoms: N_5  and  C_7 
REMARK    7  A    between atoms: C_8  and  C_7 
REMARK    8  A    between atoms: C_10  and  N_11 
REMARK    9  A    between atoms: C_18  and  N_19 
REMARK   10  A    between atoms: C_23  and  C_31 
REMARK   11  A    between atoms: C_24  and  O_25 
REMARK   12  A    between atoms: C_26  and  O_27 
REMARK   13  A    between atoms: C_28  and  C_29 
ROOT
HETATM    1  C   UNK N   1      -0.686   0.044  -0.087  0.00  0.00     0.183 C 
HETATM    2  O   UNK N   1       0.576   0.480   0.361  0.00  0.00    -0.354 OA
HETATM    3  C   UNK N   1       1.431  -0.396  -0.352  0.00  0.00     0.263 C 
HETATM    4  C   UNK N   1       0.869  -1.762  -0.001  0.00  0.00     0.198 C 
HETATM    5  C   UNK N   1      -0.632  -1.497  -0.100  0.00  0.00     0.182 C 
ENDROOT
BRANCH   3   6
HETATM    6  N   UNK N   1       2.847  -0.130  -0.051  0.00  0.00    -0.287 N 
HETATM    7  C   UNK N   1       3.384   1.099  -0.046  0.00  0.00     0.143 A 
HETATM    8  N   UNK N   1       2.744   2.280  -0.235  0.00  0.00    -0.336 N 
HETATM    9  C   UNK N   1       4.712   1.022   0.169  0.00  0.00     0.122 A 
HETATM   10  C   UNK N   1       3.487   3.428  -0.197  0.00  0.00     0.183 A 
ATOM     11  HN  UNK N   1       1.738   2.311  -0.401  1.00  0.00     0.168 HD
HETATM   12  N   UNK N   1       4.844   3.372   0.011  0.00  0.00    -0.337 N 
HETATM   13  C   UNK N   1       5.479   2.175   0.193  0.00  0.00     0.131 A 
ATOM     14  HN  UNK N   1       5.385   4.237   0.029  1.00  0.00     0.168 HD
HETATM   15  N   UNK N   1       5.080  -0.264   0.310  0.00  0.00    -0.336 N 
HETATM   16  C   UNK N   1       3.913  -0.958   0.171  0.00  0.00     0.111 A 
ATOM     17  HN  UNK N   1       6.014  -0.635   0.481  1.00  0.00     0.168 HD
BRANCH  13  18
HETATM   18  N   UNK N   1       6.874   2.125   0.384  0.00  0.00    -0.383 N 
HETATM   19  H   UNK N   1       7.331   1.264   0.518  0.00  0.00     0.157 HD
HETATM   20  H   UNK N   1       7.396   2.960   0.384  0.00  0.00     0.157 HD
ENDBRANCH  13  18
BRANCH  16  21
HETATM   21  C   UNK N   1       3.858  -2.428   0.181  0.00  0.00     0.038 C 
HETATM   22  C   UNK N   1       4.965  -3.162   0.279  0.00  0.00     0.015 C 
ENDBRANCH  16  21
ENDBRANCH   3   6
BRANCH   4  23
HETATM   23  O   UNK N   1       1.277  -2.790  -0.852  0.00  0.00    -0.388 OA
HETATM   24  H   UNK N   1       0.800  -3.393  -1.443  0.00  0.00     0.210 HD
ENDBRANCH   4  23
BRANCH   1  25
HETATM   25  C   UNK N   1      -1.868   0.669   0.650  0.00  0.00     0.306 C 
BRANCH  25  26
HETATM   26  N   UNK N   1      -3.055   0.529  -0.187  0.00  0.00     0.086 N 
HETATM   27  C   UNK N   1      -3.872  -0.584   0.278  0.00  0.00     0.310 C 
BRANCH  26  28
HETATM   28  C   UNK N   1      -3.785   1.799  -0.282  0.00  0.00     0.272 C 
BRANCH  28  29
HETATM   29  C   UNK N   1      -4.736   2.057   0.889  0.00  0.00     0.032 C 
BRANCH  29  30
HETATM   30  C   UNK N   1      -6.187   2.087   0.416  0.00  0.00     0.030 C 
BRANCH  30  31
HETATM   31  C   UNK N   1      -6.583   0.766  -0.226  0.00  0.00     0.200 C 
BRANCH  31  32
HETATM   32  O   UNK N   1      -7.969   0.632  -0.251  0.00  0.00    -0.287 OA
BRANCH  32  33
HETATM   33  N   UNK N   1      -8.188  -0.643   0.148  0.00  0.00    -0.311 N 
HETATM   34  H   UNK N   1      -9.102  -0.981   0.449  0.00  0.00     0.184 HD
HETATM   35  H   UNK N   1      -7.403  -1.296   0.148  0.00  0.00     0.184 HD
ENDBRANCH  32  33
ENDBRANCH  31  32
ENDBRANCH  30  31
ENDBRANCH  29  30
ENDBRANCH  28  29
ENDBRANCH  26  28
ENDBRANCH  25  26
ENDBRANCH   1  25
BRANCH   5  36
HETATM   36  O   UNK N   1      -1.278  -2.072   1.000  0.00  0.00    -0.390 OA
HETATM   37  H   UNK N   1      -1.847  -1.884   1.762  0.00  0.00     0.210 HD
ENDBRANCH   5  36
TORSDOF 13
