MODEL 1
REMARK VINA RESULT:      -8.7      0.000      0.000
REMARK  5 active torsions:
REMARK  status: ('A' for Active; 'I' for Inactive)
REMARK    1  A    between atoms: C_1  and  S_31 
REMARK    2  A    between atoms: C_5  and  C_29 
REMARK    3  A    between atoms: C_18  and  C_7 
REMARK    4  A    between atoms: C_10  and  N_20 
REMARK    5  A    between atoms: N_21  and  C_22 
ROOT
HETATM    1  C   UNK N   1      22.203  14.437   7.859  0.00  0.00     0.031 C 
HETATM    2  C   UNK N   1      22.609  11.996   7.081  0.00  0.00     0.100 C 
HETATM    3  C   UNK N   1      21.098  11.927   6.780  0.00  0.00     0.149 C 
HETATM    4  C   UNK N   1      22.975  13.126   8.114  0.00  0.00     0.047 C 
HETATM    5  C   UNK N   1      20.725  14.165   7.633  0.00  0.00     0.125 C 
HETATM    6  N   UNK N   1      20.660  13.275   6.504  0.00  0.00    -0.365 N 
ENDROOT
BRANCH   6   7
HETATM    7  C   UNK N   1      20.866  13.824   5.196  0.00  0.00     0.106 A 
HETATM    8  N   UNK N   1      20.461  13.163   4.077  0.00  0.00    -0.339 N 
HETATM    9  C   UNK N   1      20.687  13.691   2.839  0.00  0.00     0.182 A 
ATOM     10  HN  UNK N   1      19.983  12.266   4.163  1.00  0.00     0.168 HD
HETATM   11  N   UNK N   1      21.337  14.883   2.706  0.00  0.00    -0.352 N 
HETATM   12  C   UNK N   1      21.803  15.544   3.801  0.00  0.00     0.046 A 
ATOM     13  HN  UNK N   1      21.473  15.284   1.778  1.00  0.00     0.166 HD
HETATM   14  C   UNK N   1      21.563  15.022   5.060  0.00  0.00     0.078 A 
BRANCH  12  15
HETATM   15  C   UNK N   1      22.491  16.841   3.690  0.00  0.00    -0.008 A 
HETATM   16  C   UNK N   1      23.766  17.022   4.257  0.00  0.00     0.014 A 
HETATM   17  C   UNK N   1      24.379  18.277   4.233  0.00  0.00     0.002 A 
HETATM   18  C   UNK N   1      23.693  19.372   3.704  0.00  0.00     0.023 A 
HETATM   19  C   UNK N   1      22.418  19.200   3.155  0.00  0.00     0.059 A 
HETATM   20  C   UNK N   1      21.827  17.935   3.132  0.00  0.00     0.037 A 
BRANCH  19  21
HETATM   21  S   UNK N   1      21.445  20.611   2.663  0.00  0.00     0.171 S 
HETATM   22  C   UNK N   1      20.592  20.702   1.065  0.00  0.00     0.167 C 
HETATM   23  O   UNK N   1      20.372  20.818   3.744  0.00  0.00    -0.223 OA
HETATM   24  O   UNK N   1      22.270  21.888   2.871  0.00  0.00    -0.223 OA
ENDBRANCH  19  21
ENDBRANCH  12  15
ENDBRANCH   6   7
BRANCH   2  25
HETATM   25  N   UNK N   1      23.300  12.260   5.828  0.00  0.00    -0.424 N 
HETATM   26  H   UNK N   1      24.268  12.402   5.541  0.00  0.00     0.150 HD
HETATM   27  H   UNK N   1      22.655  12.319   5.041  0.00  0.00     0.150 HD
ENDBRANCH   2  25
BRANCH   4  28
HETATM   28  C   UNK N   1      22.908  12.767   9.585  0.00  0.00    -0.010 A 
HETATM   29  C   UNK N   1      21.685  12.551  10.238  0.00  0.00     0.056 A 
HETATM   30  C   UNK N   1      21.663  12.109  11.567  0.00  0.00     0.155 A 
HETATM   31  C   UNK N   1      22.862  11.881  12.251  0.00  0.00     0.157 A 
HETATM   32  F   UNK N   1      20.478  11.877  12.181  0.00  0.00    -0.203 F 
HETATM   33  C   UNK N   1      24.081  12.108  11.617  0.00  0.00     0.088 A 
HETATM   34  F   UNK N   1      22.848  11.428  13.528  0.00  0.00    -0.203 F 
HETATM   35  C   UNK N   1      24.112  12.545  10.293  0.00  0.00     0.126 A 
HETATM   36  F   UNK N   1      25.315  12.720   9.690  0.00  0.00    -0.205 F 
ENDBRANCH   4  28
TORSDOF 5
ENDMDL
MODEL 2
REMARK VINA RESULT:      -8.6      5.287      8.062
REMARK  5 active torsions:
REMARK  status: ('A' for Active; 'I' for Inactive)
REMARK    1  A    between atoms: C_1  and  S_31 
REMARK    2  A    between atoms: C_5  and  C_29 
REMARK    3  A    between atoms: C_18  and  C_7 
REMARK    4  A    between atoms: C_10  and  N_20 
REMARK    5  A    between atoms: N_21  and  C_22 
ROOT
HETATM    1  C   UNK N   1      27.103  17.375   5.764  0.00  0.00     0.031 C 
HETATM    2  C   UNK N   1      27.592  19.885   6.197  0.00  0.00     0.100 C 
HETATM    3  C   UNK N   1      27.850  20.012   4.682  0.00  0.00     0.149 C 
HETATM    4  C   UNK N   1      27.736  18.408   6.719  0.00  0.00     0.047 C 
HETATM    5  C   UNK N   1      27.516  17.638   4.325  0.00  0.00     0.125 C 
HETATM    6  N   UNK N   1      27.080  18.979   4.034  0.00  0.00    -0.365 N 
ENDROOT
BRANCH   6   7
HETATM    7  C   UNK N   1      25.685  19.198   3.784  0.00  0.00     0.106 A 
HETATM    8  N   UNK N   1      25.234  20.364   3.245  0.00  0.00    -0.339 N 
HETATM    9  C   UNK N   1      23.900  20.563   3.037  0.00  0.00     0.182 A 
ATOM     10  HN  UNK N   1      25.899  21.096   2.994  1.00  0.00     0.168 HD
HETATM   11  N   UNK N   1      22.997  19.600   3.381  0.00  0.00    -0.352 N 
HETATM   12  C   UNK N   1      23.409  18.444   3.971  0.00  0.00     0.046 A 
ATOM     13  HN  UNK N   1      22.006  19.746   3.193  1.00  0.00     0.166 HD
HETATM   14  C   UNK N   1      24.762  18.229   4.171  0.00  0.00     0.078 A 
BRANCH  12  15
HETATM   15  C   UNK N   1      22.460  17.379   4.336  0.00  0.00    -0.008 A 
HETATM   16  C   UNK N   1      21.908  16.546   3.347  0.00  0.00     0.014 A 
HETATM   17  C   UNK N   1      20.939  15.597   3.681  0.00  0.00     0.002 A 
HETATM   18  C   UNK N   1      20.468  15.521   4.992  0.00  0.00     0.023 A 
HETATM   19  C   UNK N   1      21.002  16.359   5.977  0.00  0.00     0.059 A 
HETATM   20  C   UNK N   1      22.008  17.272   5.653  0.00  0.00     0.037 A 
BRANCH  19  21
HETATM   21  S   UNK N   1      20.276  16.422   7.604  0.00  0.00     0.171 S 
HETATM   22  C   UNK N   1      20.830  15.357   8.964  0.00  0.00     0.167 C 
HETATM   23  O   UNK N   1      20.409  17.871   8.101  0.00  0.00    -0.223 OA
HETATM   24  O   UNK N   1      18.749  16.332   7.478  0.00  0.00    -0.223 OA
ENDBRANCH  19  21
ENDBRANCH  12  15
ENDBRANCH   6   7
BRANCH   2  25
HETATM   25  N   UNK N   1      26.236  20.347   6.457  0.00  0.00    -0.424 N 
HETATM   26  H   UNK N   1      25.496  20.790   5.913  0.00  0.00     0.150 HD
HETATM   27  H   UNK N   1      25.958  20.189   7.424  0.00  0.00     0.150 HD
ENDBRANCH   2  25
BRANCH   4  28
HETATM   28  C   UNK N   1      29.123  17.950   7.126  0.00  0.00    -0.010 A 
HETATM   29  C   UNK N   1      29.995  17.333   6.217  0.00  0.00     0.056 A 
HETATM   30  C   UNK N   1      31.308  17.028   6.594  0.00  0.00     0.155 A 
HETATM   31  C   UNK N   1      31.758  17.335   7.883  0.00  0.00     0.157 A 
HETATM   32  F   UNK N   1      32.151  16.457   5.701  0.00  0.00    -0.203 F 
HETATM   33  C   UNK N   1      30.895  17.932   8.799  0.00  0.00     0.088 A 
HETATM   34  F   UNK N   1      33.035  17.066   8.246  0.00  0.00    -0.203 F 
HETATM   35  C   UNK N   1      29.587  18.243   8.430  0.00  0.00     0.126 A 
HETATM   36  F   UNK N   1      28.782  18.860   9.332  0.00  0.00    -0.205 F 
ENDBRANCH   4  28
TORSDOF 5
ENDMDL
MODEL 3
REMARK VINA RESULT:      -8.6      8.556     11.278
REMARK  5 active torsions:
REMARK  status: ('A' for Active; 'I' for Inactive)
REMARK    1  A    between atoms: C_1  and  S_31 
REMARK    2  A    between atoms: C_5  and  C_29 
REMARK    3  A    between atoms: C_18  and  C_7 
REMARK    4  A    between atoms: C_10  and  N_20 
REMARK    5  A    between atoms: N_21  and  C_22 
ROOT
HETATM    1  C   UNK N   1      26.815  16.517   3.976  0.00  0.00     0.031 C 
HETATM    2  C   UNK N   1      27.856  18.775   4.716  0.00  0.00     0.100 C 
HETATM    3  C   UNK N   1      27.685  18.284   6.168  0.00  0.00     0.149 C 
HETATM    4  C   UNK N   1      26.904  18.033   3.705  0.00  0.00     0.047 C 
HETATM    5  C   UNK N   1      26.598  16.239   5.454  0.00  0.00     0.125 C 
HETATM    6  N   UNK N   1      27.715  16.842   6.132  0.00  0.00    -0.365 N 
ENDROOT
BRANCH   6   7
HETATM    7  C   UNK N   1      28.980  16.168   6.085  0.00  0.00     0.106 A 
HETATM    8  N   UNK N   1      29.153  15.031   5.356  0.00  0.00    -0.339 N 
HETATM    9  C   UNK N   1      30.358  14.391   5.342  0.00  0.00     0.182 A 
ATOM     10  HN  UNK N   1      28.375  14.654   4.815  1.00  0.00     0.168 HD
HETATM   11  N   UNK N   1      31.404  14.875   6.072  0.00  0.00    -0.352 N 
HETATM   12  C   UNK N   1      31.250  15.979   6.854  0.00  0.00     0.046 A 
ATOM     13  HN  UNK N   1      32.309  14.407   6.031  1.00  0.00     0.166 HD
HETATM   14  C   UNK N   1      30.035  16.642   6.861  0.00  0.00     0.078 A 
BRANCH  12  15
HETATM   15  C   UNK N   1      32.366  16.535   7.639  0.00  0.00    -0.008 A 
HETATM   16  C   UNK N   1      32.916  17.787   7.307  0.00  0.00     0.014 A 
HETATM   17  C   UNK N   1      34.032  18.272   7.992  0.00  0.00     0.002 A 
HETATM   18  C   UNK N   1      34.646  17.481   8.964  0.00  0.00     0.023 A 
HETATM   19  C   UNK N   1      34.112  16.228   9.285  0.00  0.00     0.059 A 
HETATM   20  C   UNK N   1      32.965  15.765   8.637  0.00  0.00     0.037 A 
BRANCH  19  21
HETATM   21  S   UNK N   1      34.992  15.120  10.370  0.00  0.00     0.171 S 
HETATM   22  C   UNK N   1      35.804  13.610   9.777  0.00  0.00     0.167 C 
HETATM   23  O   UNK N   1      36.075  15.949  11.080  0.00  0.00    -0.223 OA
HETATM   24  O   UNK N   1      34.101  14.779  11.572  0.00  0.00    -0.223 OA
ENDBRANCH  19  21
ENDBRANCH  12  15
ENDBRANCH   6   7
BRANCH   2  25
HETATM   25  N   UNK N   1      29.237  18.537   4.325  0.00  0.00    -0.424 N 
HETATM   26  H   UNK N   1      29.716  17.939   3.652  0.00  0.00     0.150 HD
HETATM   27  H   UNK N   1      29.889  19.110   4.859  0.00  0.00     0.150 HD
ENDBRANCH   2  25
BRANCH   4  28
HETATM   28  C   UNK N   1      25.513  18.606   3.518  0.00  0.00    -0.010 A 
HETATM   29  C   UNK N   1      24.363  17.886   3.876  0.00  0.00     0.056 A 
HETATM   30  C   UNK N   1      23.101  18.488   3.797  0.00  0.00     0.155 A 
HETATM   31  C   UNK N   1      22.980  19.811   3.357  0.00  0.00     0.157 A 
HETATM   32  F   UNK N   1      21.999  17.796   4.172  0.00  0.00    -0.203 F 
HETATM   33  C   UNK N   1      24.114  20.528   2.983  0.00  0.00     0.088 A 
HETATM   34  F   UNK N   1      21.765  20.407   3.303  0.00  0.00    -0.203 F 
HETATM   35  C   UNK N   1      25.375  19.937   3.062  0.00  0.00     0.126 A 
HETATM   36  F   UNK N   1      26.464  20.674   2.727  0.00  0.00    -0.205 F 
ENDBRANCH   4  28
TORSDOF 5
ENDMDL
MODEL 4
REMARK VINA RESULT:      -8.5      1.534      2.178
REMARK  5 active torsions:
REMARK  status: ('A' for Active; 'I' for Inactive)
REMARK    1  A    between atoms: C_1  and  S_31 
REMARK    2  A    between atoms: C_5  and  C_29 
REMARK    3  A    between atoms: C_18  and  C_7 
REMARK    4  A    between atoms: C_10  and  N_20 
REMARK    5  A    between atoms: N_21  and  C_22 
ROOT
HETATM    1  C   UNK N   1      22.154  14.777   7.464  0.00  0.00     0.031 C 
HETATM    2  C   UNK N   1      22.250  12.340   6.584  0.00  0.00     0.100 C 
HETATM    3  C   UNK N   1      20.723  12.435   6.392  0.00  0.00     0.149 C 
HETATM    4  C   UNK N   1      22.802  13.386   7.622  0.00  0.00     0.047 C 
HETATM    5  C   UNK N   1      20.643  14.665   7.338  0.00  0.00     0.125 C 
HETATM    6  N   UNK N   1      20.409  13.829   6.190  0.00  0.00    -0.365 N 
ENDROOT
BRANCH   6   7
HETATM    7  C   UNK N   1      20.579  14.404   4.888  0.00  0.00     0.106 A 
HETATM    8  N   UNK N   1      20.414  13.664   3.757  0.00  0.00    -0.339 N 
HETATM    9  C   UNK N   1      20.604  14.224   2.527  0.00  0.00     0.182 A 
ATOM     10  HN  UNK N   1      20.145  12.683   3.830  1.00  0.00     0.168 HD
HETATM   11  N   UNK N   1      20.978  15.531   2.414  0.00  0.00    -0.352 N 
HETATM   12  C   UNK N   1      21.205  16.284   3.525  0.00  0.00     0.046 A 
ATOM     13  HN  UNK N   1      21.088  15.948   1.490  1.00  0.00     0.166 HD
HETATM   14  C   UNK N   1      20.999  15.728   4.776  0.00  0.00     0.078 A 
BRANCH  12  15
HETATM   15  C   UNK N   1      21.591  17.703   3.435  0.00  0.00    -0.008 A 
HETATM   16  C   UNK N   1      20.674  18.664   2.973  0.00  0.00     0.014 A 
HETATM   17  C   UNK N   1      21.068  19.992   2.800  0.00  0.00     0.002 A 
HETATM   18  C   UNK N   1      22.397  20.354   3.023  0.00  0.00     0.023 A 
HETATM   19  C   UNK N   1      23.318  19.398   3.466  0.00  0.00     0.059 A 
HETATM   20  C   UNK N   1      22.911  18.081   3.689  0.00  0.00     0.037 A 
BRANCH  19  21
HETATM   21  S   UNK N   1      25.055  19.788   3.560  0.00  0.00     0.171 S 
HETATM   22  C   UNK N   1      25.830  20.452   5.060  0.00  0.00     0.167 C 
HETATM   23  O   UNK N   1      25.825  18.506   3.201  0.00  0.00    -0.223 OA
HETATM   24  O   UNK N   1      25.440  20.663   2.360  0.00  0.00    -0.223 OA
ENDBRANCH  19  21
ENDBRANCH  12  15
ENDBRANCH   6   7
BRANCH   2  25
HETATM   25  N   UNK N   1      22.877  12.580   5.293  0.00  0.00    -0.424 N 
HETATM   26  H   UNK N   1      23.799  12.425   4.886  0.00  0.00     0.150 HD
HETATM   27  H   UNK N   1      22.234  13.012   4.631  0.00  0.00     0.150 HD
ENDBRANCH   2  25
BRANCH   4  28
HETATM   28  C   UNK N   1      22.799  12.980   9.082  0.00  0.00    -0.010 A 
HETATM   29  C   UNK N   1      21.608  12.712   9.774  0.00  0.00     0.056 A 
HETATM   30  C   UNK N   1      21.647  12.229  11.087  0.00  0.00     0.155 A 
HETATM   31  C   UNK N   1      22.877  12.011  11.719  0.00  0.00     0.157 A 
HETATM   32  F   UNK N   1      20.493  11.946  11.737  0.00  0.00    -0.203 F 
HETATM   33  C   UNK N   1      24.065  12.290  11.047  0.00  0.00     0.088 A 
HETATM   34  F   UNK N   1      22.922  11.519  12.980  0.00  0.00    -0.203 F 
HETATM   35  C   UNK N   1      24.034  12.768   9.738  0.00  0.00     0.126 A 
HETATM   36  F   UNK N   1      25.209  12.994   9.097  0.00  0.00    -0.205 F 
ENDBRANCH   4  28
TORSDOF 5
ENDMDL
MODEL 5
REMARK VINA RESULT:      -8.5     12.924     15.160
REMARK  5 active torsions:
REMARK  status: ('A' for Active; 'I' for Inactive)
REMARK    1  A    between atoms: C_1  and  S_31 
REMARK    2  A    between atoms: C_5  and  C_29 
REMARK    3  A    between atoms: C_18  and  C_7 
REMARK    4  A    between atoms: C_10  and  N_20 
REMARK    5  A    between atoms: N_21  and  C_22 
ROOT
HETATM    1  C   UNK N   1      36.840  11.092  14.473  0.00  0.00     0.031 C 
HETATM    2  C   UNK N   1      34.728  12.519  13.994  0.00  0.00     0.100 C 
HETATM    3  C   UNK N   1      35.687  13.652  13.577  0.00  0.00     0.149 C 
HETATM    4  C   UNK N   1      35.411  11.453  14.929  0.00  0.00     0.047 C 
HETATM    5  C   UNK N   1      37.644  12.342  14.155  0.00  0.00     0.125 C 
HETATM    6  N   UNK N   1      36.908  13.027  13.125  0.00  0.00    -0.365 N 
ENDROOT
BRANCH   6   7
HETATM    7  C   UNK N   1      36.978  12.515  11.788  0.00  0.00     0.106 A 
HETATM    8  N   UNK N   1      37.573  11.321  11.514  0.00  0.00    -0.339 N 
HETATM    9  C   UNK N   1      37.652  10.862  10.232  0.00  0.00     0.182 A 
ATOM     10  HN  UNK N   1      37.963  10.764  12.275  1.00  0.00     0.168 HD
HETATM   11  N   UNK N   1      37.148  11.601   9.202  0.00  0.00    -0.352 N 
HETATM   12  C   UNK N   1      36.596  12.824   9.434  0.00  0.00     0.046 A 
ATOM     13  HN  UNK N   1      37.184  11.235   8.251  1.00  0.00     0.166 HD
HETATM   14  C   UNK N   1      36.498  13.289  10.734  0.00  0.00     0.078 A 
BRANCH  12  15
HETATM   15  C   UNK N   1      36.027  13.637   8.346  0.00  0.00    -0.008 A 
HETATM   16  C   UNK N   1      36.343  13.355   7.004  0.00  0.00     0.014 A 
HETATM   17  C   UNK N   1      35.879  14.182   5.979  0.00  0.00     0.002 A 
HETATM   18  C   UNK N   1      35.153  15.331   6.293  0.00  0.00     0.023 A 
HETATM   19  C   UNK N   1      34.850  15.625   7.627  0.00  0.00     0.059 A 
HETATM   20  C   UNK N   1      35.270  14.770   8.648  0.00  0.00     0.037 A 
BRANCH  19  21
HETATM   21  S   UNK N   1      34.105  17.185   8.065  0.00  0.00     0.171 S 
HETATM   22  C   UNK N   1      32.315  17.392   8.268  0.00  0.00     0.167 C 
HETATM   23  O   UNK N   1      34.750  17.638   9.384  0.00  0.00    -0.223 OA
HETATM   24  O   UNK N   1      34.640  18.278   7.129  0.00  0.00    -0.223 OA
ENDBRANCH  19  21
ENDBRANCH  12  15
ENDBRANCH   6   7
BRANCH   2  25
HETATM   25  N   UNK N   1      34.267  11.858  12.782  0.00  0.00    -0.424 N 
HETATM   26  H   UNK N   1      33.794  10.982  12.559  0.00  0.00     0.150 HD
HETATM   27  H   UNK N   1      34.469  12.407  11.947  0.00  0.00     0.150 HD
ENDBRANCH   2  25
BRANCH   4  28
HETATM   28  C   UNK N   1      35.401  11.731  16.418  0.00  0.00    -0.010 A 
HETATM   29  C   UNK N   1      35.272  13.033  16.927  0.00  0.00     0.056 A 
HETATM   30  C   UNK N   1      35.150  13.243  18.306  0.00  0.00     0.155 A 
HETATM   31  C   UNK N   1      35.159  12.155  19.186  0.00  0.00     0.157 A 
HETATM   32  F   UNK N   1      34.998  14.500  18.785  0.00  0.00    -0.203 F 
HETATM   33  C   UNK N   1      35.304  10.861  18.692  0.00  0.00     0.088 A 
HETATM   34  F   UNK N   1      35.016  12.350  20.519  0.00  0.00    -0.203 F 
HETATM   35  C   UNK N   1      35.421  10.642  17.320  0.00  0.00     0.126 A 
HETATM   36  F   UNK N   1      35.522   9.367  16.867  0.00  0.00    -0.205 F 
ENDBRANCH   4  28
TORSDOF 5
ENDMDL
MODEL 6
REMARK VINA RESULT:      -8.5     12.540     15.808
REMARK  5 active torsions:
REMARK  status: ('A' for Active; 'I' for Inactive)
REMARK    1  A    between atoms: C_1  and  S_31 
REMARK    2  A    between atoms: C_5  and  C_29 
REMARK    3  A    between atoms: C_18  and  C_7 
REMARK    4  A    between atoms: C_10  and  N_20 
REMARK    5  A    between atoms: N_21  and  C_22 
ROOT
HETATM    1  C   UNK N   1      34.710  15.388   7.330  0.00  0.00     0.031 C 
HETATM    2  C   UNK N   1      33.596  16.357   9.462  0.00  0.00     0.100 C 
HETATM    3  C   UNK N   1      33.303  14.901   9.873  0.00  0.00     0.149 C 
HETATM    4  C   UNK N   1      33.840  16.519   7.915  0.00  0.00     0.047 C 
HETATM    5  C   UNK N   1      34.235  14.027   7.813  0.00  0.00     0.125 C 
HETATM    6  N   UNK N   1      34.310  14.075   9.249  0.00  0.00    -0.365 N 
ENDROOT
BRANCH   6   7
HETATM    7  C   UNK N   1      35.599  13.959   9.864  0.00  0.00     0.106 A 
HETATM    8  N   UNK N   1      36.723  14.426   9.253  0.00  0.00    -0.339 N 
HETATM    9  C   UNK N   1      37.945  14.284   9.844  0.00  0.00     0.182 A 
ATOM     10  HN  UNK N   1      36.651  14.887   8.346  1.00  0.00     0.168 HD
HETATM   11  N   UNK N   1      38.059  13.657  11.050  0.00  0.00    -0.352 N 
HETATM   12  C   UNK N   1      36.963  13.130  11.663  0.00  0.00     0.046 A 
ATOM     13  HN  UNK N   1      38.972  13.583  11.498  1.00  0.00     0.166 HD
HETATM   14  C   UNK N   1      35.719  13.284  11.078  0.00  0.00     0.078 A 
BRANCH  12  15
HETATM   15  C   UNK N   1      37.052  12.464  12.974  0.00  0.00    -0.008 A 
HETATM   16  C   UNK N   1      37.674  11.209  13.095  0.00  0.00     0.014 A 
HETATM   17  C   UNK N   1      37.676  10.536  14.319  0.00  0.00     0.002 A 
HETATM   18  C   UNK N   1      36.999  11.082  15.410  0.00  0.00     0.023 A 
HETATM   19  C   UNK N   1      36.365  12.324  15.290  0.00  0.00     0.059 A 
HETATM   20  C   UNK N   1      36.407  13.020  14.081  0.00  0.00     0.037 A 
BRANCH  19  21
HETATM   21  S   UNK N   1      35.327  12.942  16.602  0.00  0.00     0.171 S 
HETATM   22  C   UNK N   1      35.763  14.399  17.590  0.00  0.00     0.167 C 
HETATM   23  O   UNK N   1      33.947  13.226  15.988  0.00  0.00    -0.223 OA
HETATM   24  O   UNK N   1      34.958  11.784  17.539  0.00  0.00    -0.223 OA
ENDBRANCH  19  21
ENDBRANCH  12  15
ENDBRANCH   6   7
BRANCH   2  25
HETATM   25  N   UNK N   1      34.788  16.790  10.175  0.00  0.00    -0.424 N 
HETATM   26  H   UNK N   1      35.795  16.707  10.037  0.00  0.00     0.150 HD
HETATM   27  H   UNK N   1      34.560  17.302  11.026  0.00  0.00     0.150 HD
ENDBRANCH   2  25
BRANCH   4  28
HETATM   28  C   UNK N   1      32.620  16.734   7.042  0.00  0.00    -0.010 A 
HETATM   29  C   UNK N   1      31.318  16.537   7.527  0.00  0.00     0.056 A 
HETATM   30  C   UNK N   1      30.212  16.854   6.729  0.00  0.00     0.155 A 
HETATM   31  C   UNK N   1      30.399  17.370   5.442  0.00  0.00     0.157 A 
HETATM   32  F   UNK N   1      28.959  16.687   7.216  0.00  0.00    -0.203 F 
HETATM   33  C   UNK N   1      31.687  17.553   4.945  0.00  0.00     0.088 A 
HETATM   34  F   UNK N   1      29.333  17.704   4.675  0.00  0.00    -0.203 F 
HETATM   35  C   UNK N   1      32.794  17.243   5.734  0.00  0.00     0.126 A 
HETATM   36  F   UNK N   1      34.036  17.469   5.236  0.00  0.00    -0.205 F 
ENDBRANCH   4  28
TORSDOF 5
ENDMDL
MODEL 7
REMARK VINA RESULT:      -8.4     12.098     15.420
REMARK  5 active torsions:
REMARK  status: ('A' for Active; 'I' for Inactive)
REMARK    1  A    between atoms: C_1  and  S_31 
REMARK    2  A    between atoms: C_5  and  C_29 
REMARK    3  A    between atoms: C_18  and  C_7 
REMARK    4  A    between atoms: C_10  and  N_20 
REMARK    5  A    between atoms: N_21  and  C_22 
ROOT
HETATM    1  C   UNK N   1      34.293  15.438   6.990  0.00  0.00     0.031 C 
HETATM    2  C   UNK N   1      32.868  16.446   8.909  0.00  0.00     0.100 C 
HETATM    3  C   UNK N   1      32.635  14.998   9.386  0.00  0.00     0.149 C 
HETATM    4  C   UNK N   1      33.280  16.530   7.392  0.00  0.00     0.047 C 
HETATM    5  C   UNK N   1      33.864  14.077   7.511  0.00  0.00     0.125 C 
HETATM    6  N   UNK N   1      33.766  14.219   8.940  0.00  0.00    -0.365 N 
ENDROOT
BRANCH   6   7
HETATM    7  C   UNK N   1      34.979  14.245   9.703  0.00  0.00     0.106 A 
HETATM    8  N   UNK N   1      36.185  14.467   9.112  0.00  0.00    -0.339 N 
HETATM    9  C   UNK N   1      37.332  14.463   9.852  0.00  0.00     0.182 A 
ATOM     10  HN  UNK N   1      36.233  14.638   8.108  1.00  0.00     0.168 HD
HETATM   11  N   UNK N   1      37.286  14.221  11.194  0.00  0.00    -0.352 N 
HETATM   12  C   UNK N   1      36.103  13.942  11.807  0.00  0.00     0.046 A 
ATOM     13  HN  UNK N   1      38.145  14.251  11.743  1.00  0.00     0.166 HD
HETATM   14  C   UNK N   1      34.935  13.959  11.066  0.00  0.00     0.078 A 
BRANCH  12  15
HETATM   15  C   UNK N   1      36.020  13.695  13.256  0.00  0.00    -0.008 A 
HETATM   16  C   UNK N   1      36.651  14.563  14.165  0.00  0.00     0.014 A 
HETATM   17  C   UNK N   1      36.650  14.278  15.532  0.00  0.00     0.002 A 
HETATM   18  C   UNK N   1      36.079  13.091  15.991  0.00  0.00     0.023 A 
HETATM   19  C   UNK N   1      35.464  12.216  15.089  0.00  0.00     0.059 A 
HETATM   20  C   UNK N   1      35.420  12.526  13.729  0.00  0.00     0.037 A 
BRANCH  19  21
HETATM   21  S   UNK N   1      34.912  10.606  15.622  0.00  0.00     0.171 S 
HETATM   22  C   UNK N   1      34.721  10.168  17.372  0.00  0.00     0.167 C 
HETATM   23  O   UNK N   1      33.549  10.354  14.957  0.00  0.00    -0.223 OA
HETATM   24  O   UNK N   1      35.746   9.529  14.917  0.00  0.00    -0.223 OA
ENDBRANCH  19  21
ENDBRANCH  12  15
ENDBRANCH   6   7
BRANCH   2  25
HETATM   25  N   UNK N   1      33.934  17.015   9.720  0.00  0.00    -0.424 N 
HETATM   26  H   UNK N   1      34.879  17.359   9.551  0.00  0.00     0.150 HD
HETATM   27  H   UNK N   1      33.670  17.088  10.701  0.00  0.00     0.150 HD
ENDBRANCH   2  25
BRANCH   4  28
HETATM   28  C   UNK N   1      32.159  16.592   6.374  0.00  0.00    -0.010 A 
HETATM   29  C   UNK N   1      30.887  16.062   6.640  0.00  0.00     0.056 A 
HETATM   30  C   UNK N   1      29.844  16.238   5.723  0.00  0.00     0.155 A 
HETATM   31  C   UNK N   1      30.064  16.943   4.535  0.00  0.00     0.157 A 
HETATM   32  F   UNK N   1      28.612  15.747   6.001  0.00  0.00    -0.203 F 
HETATM   33  C   UNK N   1      31.327  17.458   4.253  0.00  0.00     0.088 A 
HETATM   34  F   UNK N   1      29.051  17.139   3.656  0.00  0.00    -0.203 F 
HETATM   35  C   UNK N   1      32.370  17.291   5.162  0.00  0.00     0.126 A 
HETATM   36  F   UNK N   1      33.580  17.838   4.878  0.00  0.00    -0.205 F 
ENDBRANCH   4  28
TORSDOF 5
ENDMDL
MODEL 8
REMARK VINA RESULT:      -8.4      5.666      8.680
REMARK  5 active torsions:
REMARK  status: ('A' for Active; 'I' for Inactive)
REMARK    1  A    between atoms: C_1  and  S_31 
REMARK    2  A    between atoms: C_5  and  C_29 
REMARK    3  A    between atoms: C_18  and  C_7 
REMARK    4  A    between atoms: C_10  and  N_20 
REMARK    5  A    between atoms: N_21  and  C_22 
ROOT
HETATM    1  C   UNK N   1      26.868  16.233   6.377  0.00  0.00     0.031 C 
HETATM    2  C   UNK N   1      26.864  18.438   5.011  0.00  0.00     0.100 C 
HETATM    3  C   UNK N   1      26.445  17.588   3.795  0.00  0.00     0.149 C 
HETATM    4  C   UNK N   1      27.564  17.589   6.137  0.00  0.00     0.047 C 
HETATM    5  C   UNK N   1      26.581  15.526   5.063  0.00  0.00     0.125 C 
HETATM    6  N   UNK N   1      25.753  16.429   4.308  0.00  0.00    -0.365 N 
ENDROOT
BRANCH   6   7
HETATM    7  C   UNK N   1      24.370  16.542   4.669  0.00  0.00     0.106 A 
HETATM    8  N   UNK N   1      23.518  17.348   3.977  0.00  0.00    -0.339 N 
HETATM    9  C   UNK N   1      22.211  17.461   4.351  0.00  0.00     0.182 A 
ATOM     10  HN  UNK N   1      23.860  17.872   3.172  1.00  0.00     0.168 HD
HETATM   11  N   UNK N   1      21.743  16.778   5.435  0.00  0.00    -0.352 N 
HETATM   12  C   UNK N   1      22.579  16.006   6.181  0.00  0.00     0.046 A 
ATOM     13  HN  UNK N   1      20.757  16.845   5.688  1.00  0.00     0.166 HD
HETATM   14  C   UNK N   1      23.903  15.874   5.799  0.00  0.00     0.078 A 
BRANCH  12  15
HETATM   15  C   UNK N   1      22.099  15.242   7.345  0.00  0.00    -0.008 A 
HETATM   16  C   UNK N   1      20.895  15.593   7.981  0.00  0.00     0.014 A 
HETATM   17  C   UNK N   1      20.486  14.928   9.140  0.00  0.00     0.002 A 
HETATM   18  C   UNK N   1      21.311  13.956   9.707  0.00  0.00     0.023 A 
HETATM   19  C   UNK N   1      22.519  13.615   9.087  0.00  0.00     0.059 A 
HETATM   20  C   UNK N   1      22.902  14.243   7.901  0.00  0.00     0.037 A 
BRANCH  19  21
HETATM   21  S   UNK N   1      23.678  12.530   9.898  0.00  0.00     0.171 S 
HETATM   22  C   UNK N   1      23.408  11.885  11.572  0.00  0.00     0.167 C 
HETATM   23  O   UNK N   1      23.869  11.309   8.984  0.00  0.00    -0.223 OA
HETATM   24  O   UNK N   1      25.084  13.140   9.811  0.00  0.00    -0.223 OA
ENDBRANCH  19  21
ENDBRANCH  12  15
ENDBRANCH   6   7
BRANCH   2  25
HETATM   25  N   UNK N   1      25.665  19.052   5.559  0.00  0.00    -0.424 N 
HETATM   26  H   UNK N   1      25.338  19.323   6.487  0.00  0.00     0.150 HD
HETATM   27  H   UNK N   1      24.979  19.265   4.836  0.00  0.00     0.150 HD
ENDBRANCH   2  25
BRANCH   4  28
HETATM   28  C   UNK N   1      29.061  17.386   6.022  0.00  0.00    -0.010 A 
HETATM   29  C   UNK N   1      29.731  17.506   4.795  0.00  0.00     0.056 A 
HETATM   30  C   UNK N   1      31.128  17.426   4.743  0.00  0.00     0.155 A 
HETATM   31  C   UNK N   1      31.864  17.224   5.915  0.00  0.00     0.157 A 
HETATM   32  F   UNK N   1      31.768  17.571   3.558  0.00  0.00    -0.203 F 
HETATM   33  C   UNK N   1      31.208  17.087   7.136  0.00  0.00     0.088 A 
HETATM   34  F   UNK N   1      33.218  17.172   5.875  0.00  0.00    -0.203 F 
HETATM   35  C   UNK N   1      29.817  17.169   7.197  0.00  0.00     0.126 A 
HETATM   36  F   UNK N   1      29.209  17.070   8.406  0.00  0.00    -0.205 F 
ENDBRANCH   4  28
TORSDOF 5
ENDMDL
MODEL 9
REMARK VINA RESULT:      -8.4     12.914     15.257
REMARK  5 active torsions:
REMARK  status: ('A' for Active; 'I' for Inactive)
REMARK    1  A    between atoms: C_1  and  S_31 
REMARK    2  A    between atoms: C_5  and  C_29 
REMARK    3  A    between atoms: C_18  and  C_7 
REMARK    4  A    between atoms: C_10  and  N_20 
REMARK    5  A    between atoms: N_21  and  C_22 
ROOT
HETATM    1  C   UNK N   1      35.135  12.619  14.683  0.00  0.00     0.031 C 
HETATM    2  C   UNK N   1      37.167  11.038  14.996  0.00  0.00     0.100 C 
HETATM    3  C   UNK N   1      36.359   9.979  14.220  0.00  0.00     0.149 C 
HETATM    4  C   UNK N   1      36.259  12.155  15.633  0.00  0.00     0.047 C 
HETATM    5  C   UNK N   1      34.426  11.431  14.054  0.00  0.00     0.125 C 
HETATM    6  N   UNK N   1      35.446  10.692  13.359  0.00  0.00    -0.365 N 
ENDROOT
BRANCH   6   7
HETATM    7  C   UNK N   1      35.921  11.204  12.107  0.00  0.00     0.106 A 
HETATM    8  N   UNK N   1      36.692  10.450  11.276  0.00  0.00    -0.339 N 
HETATM    9  C   UNK N   1      37.154  10.964  10.100  0.00  0.00     0.182 A 
ATOM     10  HN  UNK N   1      36.926   9.492  11.535  1.00  0.00     0.168 HD
HETATM   11  N   UNK N   1      36.861  12.249   9.746  0.00  0.00    -0.352 N 
HETATM   12  C   UNK N   1      36.138  13.048  10.578  0.00  0.00     0.046 A 
ATOM     13  HN  UNK N   1      37.185  12.614   8.851  1.00  0.00     0.166 HD
HETATM   14  C   UNK N   1      35.653  12.528  11.766  0.00  0.00     0.078 A 
BRANCH  12  15
HETATM   15  C   UNK N   1      35.790  14.432  10.216  0.00  0.00    -0.008 A 
HETATM   16  C   UNK N   1      35.675  15.422  11.209  0.00  0.00     0.014 A 
HETATM   17  C   UNK N   1      35.255  16.712  10.877  0.00  0.00     0.002 A 
HETATM   18  C   UNK N   1      34.883  17.001   9.564  0.00  0.00     0.023 A 
HETATM   19  C   UNK N   1      34.979  16.016   8.575  0.00  0.00     0.059 A 
HETATM   20  C   UNK N   1      35.448  14.741   8.898  0.00  0.00     0.037 A 
BRANCH  19  21
HETATM   21  S   UNK N   1      34.319  16.301   6.944  0.00  0.00     0.171 S 
HETATM   22  C   UNK N   1      32.646  15.791   6.463  0.00  0.00     0.167 C 
HETATM   23  O   UNK N   1      34.409  17.813   6.679  0.00  0.00    -0.223 OA
HETATM   24  O   UNK N   1      35.323  15.797   5.899  0.00  0.00    -0.223 OA
ENDBRANCH  19  21
ENDBRANCH  12  15
ENDBRANCH   6   7
BRANCH   2  25
HETATM   25  N   UNK N   1      38.096  11.660  14.064  0.00  0.00    -0.424 N 
HETATM   26  H   UNK N   1      38.691  12.489  14.065  0.00  0.00     0.150 HD
HETATM   27  H   UNK N   1      38.168  11.138  13.192  0.00  0.00     0.150 HD
ENDBRANCH   2  25
BRANCH   4  28
HETATM   28  C   UNK N   1      35.687  11.880  17.009  0.00  0.00    -0.010 A 
HETATM   29  C   UNK N   1      35.450  10.574  17.465  0.00  0.00     0.056 A 
HETATM   30  C   UNK N   1      35.030  10.351  18.782  0.00  0.00     0.155 A 
HETATM   31  C   UNK N   1      34.844  11.431  19.652  0.00  0.00     0.157 A 
HETATM   32  F   UNK N   1      34.830   9.085  19.220  0.00  0.00    -0.203 F 
HETATM   33  C   UNK N   1      35.060  12.732  19.205  0.00  0.00     0.088 A 
HETATM   34  F   UNK N   1      34.463  11.220  20.935  0.00  0.00    -0.203 F 
HETATM   35  C   UNK N   1      35.482  12.962  17.896  0.00  0.00     0.126 A 
HETATM   36  F   UNK N   1      35.722  14.239  17.501  0.00  0.00    -0.205 F 
ENDBRANCH   4  28
TORSDOF 5
ENDMDL
