MODEL 1
REMARK VINA RESULT:      -5.9      0.000      0.000
REMARK  2 active torsions:
REMARK  status: ('A' for Active; 'I' for Inactive)
REMARK    1  A    between atoms: C_2  and  S_10 
REMARK    2  A    between atoms: S_10  and  N_13 
ROOT
HETATM    1  C   UNK N   1      31.705  18.104   8.715  0.00  0.00     0.033 A 
HETATM    2  C   UNK N   1      32.459  17.674   7.613  0.00  0.00     0.079 A 
HETATM    3  C   UNK N   1      31.813  17.106   6.495  0.00  0.00     0.026 A 
HETATM    4  C   UNK N   1      30.413  16.986   6.481  0.00  0.00     0.009 A 
HETATM    5  C   UNK N   1      30.318  17.973   8.673  0.00  0.00    -0.050 A 
HETATM    6  C   UNK N   1      29.691  17.434   7.589  0.00  0.00    -0.052 A 
HETATM    7  C   UNK N   1      28.227  17.393   7.743  0.00  0.00     0.039 A 
HETATM    8  C   UNK N   1      28.008  18.012   9.140  0.00  0.00     0.009 A 
HETATM    9  C   UNK N   1      29.383  18.379   9.734  0.00  0.00     0.039 A 
ENDROOT
BRANCH   2  10
HETATM   10  S   UNK N   1      34.242  17.847   7.646  0.00  0.00     0.256 S 
HETATM   11  O   UNK N   1      34.975  19.021   8.313  0.00  0.00    -0.201 OA
HETATM   12  O   UNK N   1      35.172  16.626   7.667  0.00  0.00    -0.201 OA
BRANCH  10  13
HETATM   13  N   UNK N   1      33.908  17.374   9.315  0.00  0.00    -0.324 N 
HETATM   14  H   UNK N   1      33.505  17.167  10.229  0.00  0.00     0.169 HD
HETATM   15  H   UNK N   1      34.858  17.076   9.540  0.00  0.00     0.169 HD
ENDBRANCH  10  13
ENDBRANCH   2  10
TORSDOF 2
ENDMDL
MODEL 2
REMARK VINA RESULT:      -5.6      9.975     10.715
REMARK  2 active torsions:
REMARK  status: ('A' for Active; 'I' for Inactive)
REMARK    1  A    between atoms: C_2  and  S_10 
REMARK    2  A    between atoms: S_10  and  N_13 
ROOT
HETATM    1  C   UNK N   1      35.263  13.135  15.858  0.00  0.00     0.033 A 
HETATM    2  C   UNK N   1      35.337  12.144  14.868  0.00  0.00     0.079 A 
HETATM    3  C   UNK N   1      35.430  10.786  15.235  0.00  0.00     0.026 A 
HETATM    4  C   UNK N   1      35.434  10.426  16.593  0.00  0.00     0.009 A 
HETATM    5  C   UNK N   1      35.268  12.749  17.197  0.00  0.00    -0.050 A 
HETATM    6  C   UNK N   1      35.348  11.435  17.554  0.00  0.00    -0.052 A 
HETATM    7  C   UNK N   1      35.332  11.242  19.015  0.00  0.00     0.039 A 
HETATM    8  C   UNK N   1      35.224  12.684  19.554  0.00  0.00     0.009 A 
HETATM    9  C   UNK N   1      35.189  13.654  18.355  0.00  0.00     0.039 A 
ENDROOT
BRANCH   2  10
HETATM   10  S   UNK N   1      35.319  12.624  13.142  0.00  0.00     0.256 S 
HETATM   11  O   UNK N   1      34.816  13.985  12.638  0.00  0.00    -0.201 OA
HETATM   12  O   UNK N   1      36.363  12.100  12.146  0.00  0.00    -0.201 OA
BRANCH  10  13
HETATM   13  N   UNK N   1      36.672  13.581  13.754  0.00  0.00    -0.324 N 
HETATM   14  H   UNK N   1      37.297  14.296  14.126  0.00  0.00     0.169 HD
HETATM   15  H   UNK N   1      37.377  12.848  13.667  0.00  0.00     0.169 HD
ENDBRANCH  10  13
ENDBRANCH   2  10
TORSDOF 2
ENDMDL
MODEL 3
REMARK VINA RESULT:      -5.5     16.493     17.059
REMARK  2 active torsions:
REMARK  status: ('A' for Active; 'I' for Inactive)
REMARK    1  A    between atoms: C_2  and  S_10 
REMARK    2  A    between atoms: S_10  and  N_13 
ROOT
HETATM    1  C   UNK N   1      25.548  25.582  -6.433  0.00  0.00     0.033 A 
HETATM    2  C   UNK N   1      26.004  24.256  -6.404  0.00  0.00     0.079 A 
HETATM    3  C   UNK N   1      26.615  23.747  -5.238  0.00  0.00     0.026 A 
HETATM    4  C   UNK N   1      26.752  24.565  -4.105  0.00  0.00     0.009 A 
HETATM    5  C   UNK N   1      25.697  26.371  -5.294  0.00  0.00    -0.050 A 
HETATM    6  C   UNK N   1      26.277  25.877  -4.163  0.00  0.00    -0.052 A 
HETATM    7  C   UNK N   1      26.330  26.867  -3.074  0.00  0.00     0.039 A 
HETATM    8  C   UNK N   1      25.670  28.111  -3.704  0.00  0.00     0.009 A 
HETATM    9  C   UNK N   1      25.267  27.771  -5.154  0.00  0.00     0.039 A 
ENDROOT
BRANCH   2  10
HETATM   10  S   UNK N   1      25.810  23.227  -7.857  0.00  0.00     0.256 S 
HETATM   11  O   UNK N   1      26.574  21.913  -8.082  0.00  0.00    -0.201 OA
HETATM   12  O   UNK N   1      24.480  23.146  -8.619  0.00  0.00    -0.201 OA
BRANCH  10  13
HETATM   13  N   UNK N   1      24.946  22.279  -6.643  0.00  0.00    -0.324 N 
HETATM   14  H   UNK N   1      24.379  21.933  -5.868  0.00  0.00     0.169 HD
HETATM   15  H   UNK N   1      25.253  21.364  -6.975  0.00  0.00     0.169 HD
ENDBRANCH  10  13
ENDBRANCH   2  10
TORSDOF 2
ENDMDL
MODEL 4
REMARK VINA RESULT:      -5.3     12.177     12.914
REMARK  2 active torsions:
REMARK  status: ('A' for Active; 'I' for Inactive)
REMARK    1  A    between atoms: C_2  and  S_10 
REMARK    2  A    between atoms: S_10  and  N_13 
ROOT
HETATM    1  C   UNK N   1      42.325  22.571   2.374  0.00  0.00     0.033 A 
HETATM    2  C   UNK N   1      42.783  21.664   3.342  0.00  0.00     0.079 A 
HETATM    3  C   UNK N   1      42.229  20.369   3.412  0.00  0.00     0.026 A 
HETATM    4  C   UNK N   1      41.230  19.984   2.503  0.00  0.00     0.009 A 
HETATM    5  C   UNK N   1      41.334  22.161   1.485  0.00  0.00    -0.050 A 
HETATM    6  C   UNK N   1      40.805  20.905   1.545  0.00  0.00    -0.052 A 
HETATM    7  C   UNK N   1      39.778  20.673   0.514  0.00  0.00     0.039 A 
HETATM    8  C   UNK N   1      39.733  22.019  -0.240  0.00  0.00     0.009 A 
HETATM    9  C   UNK N   1      40.750  22.979   0.409  0.00  0.00     0.039 A 
ENDROOT
BRANCH   2  10
HETATM   10  S   UNK N   1      44.065  22.172   4.485  0.00  0.00     0.256 S 
HETATM   11  O   UNK N   1      45.467  22.627   4.051  0.00  0.00    -0.201 OA
HETATM   12  O   UNK N   1      43.735  22.848   5.823  0.00  0.00    -0.201 OA
BRANCH  10  13
HETATM   13  N   UNK N   1      43.573  23.725   3.804  0.00  0.00    -0.324 N 
HETATM   14  H   UNK N   1      43.225  24.497   3.234  0.00  0.00     0.169 HD
HETATM   15  H   UNK N   1      43.859  24.294   4.602  0.00  0.00     0.169 HD
ENDBRANCH  10  13
ENDBRANCH   2  10
TORSDOF 2
ENDMDL
MODEL 5
REMARK VINA RESULT:      -5.3      0.635      2.023
REMARK  2 active torsions:
REMARK  status: ('A' for Active; 'I' for Inactive)
REMARK    1  A    between atoms: C_2  and  S_10 
REMARK    2  A    between atoms: S_10  and  N_13 
ROOT
HETATM    1  C   UNK N   1      31.639  17.076   6.720  0.00  0.00     0.033 A 
HETATM    2  C   UNK N   1      32.324  17.772   7.728  0.00  0.00     0.079 A 
HETATM    3  C   UNK N   1      31.605  18.364   8.788  0.00  0.00     0.026 A 
HETATM    4  C   UNK N   1      30.207  18.243   8.841  0.00  0.00     0.009 A 
HETATM    5  C   UNK N   1      30.251  16.972   6.799  0.00  0.00    -0.050 A 
HETATM    6  C   UNK N   1      29.557  17.535   7.829  0.00  0.00    -0.052 A 
HETATM    7  C   UNK N   1      28.105  17.303   7.727  0.00  0.00     0.039 A 
HETATM    8  C   UNK N   1      27.976  16.476   6.431  0.00  0.00     0.009 A 
HETATM    9  C   UNK N   1      29.385  16.274   5.836  0.00  0.00     0.039 A 
ENDROOT
BRANCH   2  10
HETATM   10  S   UNK N   1      34.108  17.905   7.647  0.00  0.00     0.256 S 
HETATM   11  O   UNK N   1      34.913  19.029   8.316  0.00  0.00    -0.201 OA
HETATM   12  O   UNK N   1      35.008  16.665   7.547  0.00  0.00    -0.201 OA
BRANCH  10  13
HETATM   13  N   UNK N   1      33.876  17.359   9.311  0.00  0.00    -0.324 N 
HETATM   14  H   UNK N   1      33.569  17.189  10.269  0.00  0.00     0.169 HD
HETATM   15  H   UNK N   1      34.660  16.705   9.326  0.00  0.00     0.169 HD
ENDBRANCH  10  13
ENDBRANCH   2  10
TORSDOF 2
ENDMDL
MODEL 6
REMARK VINA RESULT:      -5.3     10.838     11.612
REMARK  2 active torsions:
REMARK  status: ('A' for Active; 'I' for Inactive)
REMARK    1  A    between atoms: C_2  and  S_10 
REMARK    2  A    between atoms: S_10  and  N_13 
ROOT
HETATM    1  C   UNK N   1      20.769  14.313   9.737  0.00  0.00     0.033 A 
HETATM    2  C   UNK N   1      20.799  15.206   8.655  0.00  0.00     0.079 A 
HETATM    3  C   UNK N   1      21.778  15.061   7.650  0.00  0.00     0.026 A 
HETATM    4  C   UNK N   1      22.711  14.014   7.725  0.00  0.00     0.009 A 
HETATM    5  C   UNK N   1      21.707  13.284   9.786  0.00  0.00    -0.050 A 
HETATM    6  C   UNK N   1      22.646  13.136   8.809  0.00  0.00    -0.052 A 
HETATM    7  C   UNK N   1      23.535  11.984   9.045  0.00  0.00     0.039 A 
HETATM    8  C   UNK N   1      22.997  11.399  10.368  0.00  0.00     0.009 A 
HETATM    9  C   UNK N   1      21.809  12.261  10.840  0.00  0.00     0.039 A 
ENDROOT
BRANCH   2  10
HETATM   10  S   UNK N   1      19.593  16.528   8.573  0.00  0.00     0.256 S 
HETATM   11  O   UNK N   1      19.930  18.008   8.808  0.00  0.00    -0.201 OA
HETATM   12  O   UNK N   1      18.376  16.455   7.641  0.00  0.00    -0.201 OA
BRANCH  10  13
HETATM   13  N   UNK N   1      20.483  16.776   7.067  0.00  0.00    -0.324 N 
HETATM   14  H   UNK N   1      20.837  17.075   6.158  0.00  0.00     0.169 HD
HETATM   15  H   UNK N   1      21.203  16.075   7.244  0.00  0.00     0.169 HD
ENDBRANCH  10  13
ENDBRANCH   2  10
TORSDOF 2
ENDMDL
MODEL 7
REMARK VINA RESULT:      -5.3     10.580     11.397
REMARK  2 active torsions:
REMARK  status: ('A' for Active; 'I' for Inactive)
REMARK    1  A    between atoms: C_2  and  S_10 
REMARK    2  A    between atoms: S_10  and  N_13 
ROOT
HETATM    1  C   UNK N   1      35.538  11.364  16.345  0.00  0.00     0.033 A 
HETATM    2  C   UNK N   1      35.534  12.627  15.735  0.00  0.00     0.079 A 
HETATM    3  C   UNK N   1      35.402  13.789  16.524  0.00  0.00     0.026 A 
HETATM    4  C   UNK N   1      35.290  13.680  17.920  0.00  0.00     0.009 A 
HETATM    5  C   UNK N   1      35.425  11.285  17.732  0.00  0.00    -0.050 A 
HETATM    6  C   UNK N   1      35.308  12.409  18.496  0.00  0.00    -0.052 A 
HETATM    7  C   UNK N   1      35.209  12.108  19.935  0.00  0.00     0.039 A 
HETATM    8  C   UNK N   1      35.285  10.567  19.972  0.00  0.00     0.009 A 
HETATM    9  C   UNK N   1      35.420  10.047  18.526  0.00  0.00     0.039 A 
ENDROOT
BRANCH   2  10
HETATM   10  S   UNK N   1      35.689  12.744  13.955  0.00  0.00     0.256 S 
HETATM   11  O   UNK N   1      35.040  13.851  13.111  0.00  0.00    -0.201 OA
HETATM   12  O   UNK N   1      36.943  12.253  13.218  0.00  0.00    -0.201 OA
BRANCH  10  13
HETATM   13  N   UNK N   1      36.752  14.053  14.482  0.00  0.00    -0.324 N 
HETATM   14  H   UNK N   1      37.522  14.695  14.670  0.00  0.00     0.169 HD
HETATM   15  H   UNK N   1      36.046  14.567  15.009  0.00  0.00     0.169 HD
ENDBRANCH  10  13
ENDBRANCH   2  10
TORSDOF 2
ENDMDL
MODEL 8
REMARK VINA RESULT:      -5.2     17.688     18.306
REMARK  2 active torsions:
REMARK  status: ('A' for Active; 'I' for Inactive)
REMARK    1  A    between atoms: C_2  and  S_10 
REMARK    2  A    between atoms: S_10  and  N_13 
ROOT
HETATM    1  C   UNK N   1      27.084  26.546  -7.369  0.00  0.00     0.033 A 
HETATM    2  C   UNK N   1      26.101  25.597  -7.055  0.00  0.00     0.079 A 
HETATM    3  C   UNK N   1      25.256  25.800  -5.944  0.00  0.00     0.026 A 
HETATM    4  C   UNK N   1      25.391  26.960  -5.163  0.00  0.00     0.009 A 
HETATM    5  C   UNK N   1      27.196  27.688  -6.578  0.00  0.00    -0.050 A 
HETATM    6  C   UNK N   1      26.372  27.891  -5.510  0.00  0.00    -0.052 A 
HETATM    7  C   UNK N   1      26.649  29.159  -4.813  0.00  0.00     0.039 A 
HETATM    8  C   UNK N   1      27.815  29.755  -5.629  0.00  0.00     0.009 A 
HETATM    9  C   UNK N   1      28.162  28.780  -6.773  0.00  0.00     0.039 A 
ENDROOT
BRANCH   2  10
HETATM   10  S   UNK N   1      25.938  24.130  -8.070  0.00  0.00     0.256 S 
HETATM   11  O   UNK N   1      26.884  22.923  -7.985  0.00  0.00    -0.201 OA
HETATM   12  O   UNK N   1      24.571  23.635  -8.563  0.00  0.00    -0.201 OA
BRANCH  10  13
HETATM   13  N   UNK N   1      25.370  23.535  -6.507  0.00  0.00    -0.324 N 
HETATM   14  H   UNK N   1      25.209  23.318  -5.523  0.00  0.00     0.169 HD
HETATM   15  H   UNK N   1      24.611  22.960  -6.874  0.00  0.00     0.169 HD
ENDBRANCH  10  13
ENDBRANCH   2  10
TORSDOF 2
ENDMDL
MODEL 9
REMARK VINA RESULT:      -5.2     13.264     14.288
REMARK  2 active torsions:
REMARK  status: ('A' for Active; 'I' for Inactive)
REMARK    1  A    between atoms: C_2  and  S_10 
REMARK    2  A    between atoms: S_10  and  N_13 
ROOT
HETATM    1  C   UNK N   1      29.552  22.489  -5.206  0.00  0.00     0.033 A 
HETATM    2  C   UNK N   1      30.525  22.215  -4.232  0.00  0.00     0.079 A 
HETATM    3  C   UNK N   1      31.298  21.039  -4.320  0.00  0.00     0.026 A 
HETATM    4  C   UNK N   1      31.105  20.152  -5.391  0.00  0.00     0.009 A 
HETATM    5  C   UNK N   1      29.383  21.590  -6.257  0.00  0.00    -0.050 A 
HETATM    6  C   UNK N   1      30.138  20.459  -6.349  0.00  0.00    -0.052 A 
HETATM    7  C   UNK N   1      29.806  19.651  -7.536  0.00  0.00     0.039 A 
HETATM    8  C   UNK N   1      28.686  20.471  -8.211  0.00  0.00     0.009 A 
HETATM    9  C   UNK N   1      28.419  21.730  -7.361  0.00  0.00     0.039 A 
ENDROOT
BRANCH   2  10
HETATM   10  S   UNK N   1      30.762  23.366  -2.880  0.00  0.00     0.256 S 
HETATM   11  O   UNK N   1      30.621  24.889  -3.019  0.00  0.00    -0.201 OA
HETATM   12  O   UNK N   1      30.443  22.985  -1.428  0.00  0.00    -0.201 OA
BRANCH  10  13
HETATM   13  N   UNK N   1      29.005  23.393  -3.052  0.00  0.00    -0.324 N 
HETATM   14  H   UNK N   1      28.009  23.612  -3.056  0.00  0.00     0.169 HD
HETATM   15  H   UNK N   1      28.920  22.471  -3.482  0.00  0.00     0.169 HD
ENDBRANCH  10  13
ENDBRANCH   2  10
TORSDOF 2
ENDMDL
