MODEL 1
REMARK VINA RESULT:      -7.3      0.000      0.000
REMARK  0 active torsions:
REMARK  status: ('A' for Active; 'I' for Inactive)
ROOT
HETATM    1  C   UNK N   1      28.103  19.543   4.932  0.00  0.00     0.052 C 
HETATM    2  C   UNK N   1      27.022  20.156   5.840  0.00  0.00     0.116 C 
HETATM    3  N   UNK N   1      25.661  19.686   5.511  0.00  0.00    -0.421 N 
HETATM    4  C   UNK N   1      25.631  18.406   4.791  0.00  0.00     0.116 C 
HETATM    5  C   UNK N   1      26.701  17.467   5.322  0.00  0.00     0.052 C 
HETATM    6  C   UNK N   1      28.121  18.005   5.053  0.00  0.00     0.056 C 
HETATM    7  N   UNK N   1      28.575  17.453   3.767  0.00  0.00    -0.345 N 
HETATM    8  C   UNK N   1      29.794  16.869   3.555  0.00  0.00     0.269 C 
HETATM    9  O   UNK N   1      30.073  16.431   2.451  0.00  0.00    -0.266 OA
HETATM   10  C   UNK N   1      30.768  16.827   4.654  0.00  0.00     0.111 A 
HETATM   11  N   UNK N   1      32.032  16.328   4.670  0.00  0.00    -0.346 N 
HETATM   12  C   UNK N   1      32.732  15.670   3.576  0.00  0.00     0.156 C 
HETATM   13  C   UNK N   1      32.470  16.464   5.944  0.00  0.00     0.047 A 
HETATM   14  C   UNK N   1      33.658  15.999   6.512  0.00  0.00     0.054 A 
HETATM   15  C   UNK N   1      33.833  16.180   7.903  0.00  0.00     0.036 A 
HETATM   16 Cl   UNK N   1      35.235  15.521   8.714  0.00  0.00    -0.084 Cl
HETATM   17  C   UNK N   1      32.842  16.823   8.675  0.00  0.00     0.025 A 
HETATM   18  C   UNK N   1      31.656  17.261   8.079  0.00  0.00     0.016 A 
HETATM   19  C   UNK N   1      31.503  17.060   6.714  0.00  0.00     0.001 A 
HETATM   20  C   UNK N   1      30.416  17.271   5.898  0.00  0.00     0.007 A 
HETATM   21  C   UNK N   1      29.002  17.530   6.257  0.00  0.00     0.157 C 
HETATM   22  C   UNK N   1      28.830  18.244   7.535  0.00  0.00     0.071 C 
HETATM   23  N   UNK N   1      28.679  18.767   8.556  0.00  0.00    -0.196 NA
HETATM   24  H   UNK N   1      24.819  20.205   5.760  0.00  0.00     0.153 HD
HETATM   25  H   UNK N   1      27.957  17.507   3.004  0.00  0.00     0.163 HD
ENDROOT
TORSDOF 0
ENDMDL
MODEL 2
REMARK VINA RESULT:      -7.1      6.621      9.267
REMARK  0 active torsions:
REMARK  status: ('A' for Active; 'I' for Inactive)
ROOT
HETATM    1  C   UNK N   1      23.528  15.889   3.623  0.00  0.00     0.052 C 
HETATM    2  C   UNK N   1      24.765  15.263   2.955  0.00  0.00     0.116 C 
HETATM    3  N   UNK N   1      25.821  16.252   2.658  0.00  0.00    -0.421 N 
HETATM    4  C   UNK N   1      25.742  17.470   3.477  0.00  0.00     0.116 C 
HETATM    5  C   UNK N   1      25.330  17.134   4.900  0.00  0.00     0.052 C 
HETATM    6  C   UNK N   1      23.902  16.558   4.963  0.00  0.00     0.056 C 
HETATM    7  N   UNK N   1      22.974  17.679   5.185  0.00  0.00    -0.345 N 
HETATM    8  C   UNK N   1      21.978  17.694   6.123  0.00  0.00     0.269 C 
HETATM    9  O   UNK N   1      21.266  18.677   6.236  0.00  0.00    -0.266 OA
HETATM   10  C   UNK N   1      21.751  16.497   6.944  0.00  0.00     0.111 A 
HETATM   11  N   UNK N   1      20.818  16.273   7.907  0.00  0.00    -0.346 N 
HETATM   12  C   UNK N   1      19.809  17.206   8.388  0.00  0.00     0.156 C 
HETATM   13  C   UNK N   1      21.088  15.046   8.409  0.00  0.00     0.047 A 
HETATM   14  C   UNK N   1      20.498  14.400   9.498  0.00  0.00     0.054 A 
HETATM   15  C   UNK N   1      21.037  13.153   9.891  0.00  0.00     0.036 A 
HETATM   16 Cl   UNK N   1      20.436  12.336  11.315  0.00  0.00    -0.084 Cl
HETATM   17  C   UNK N   1      22.122  12.586   9.189  0.00  0.00     0.025 A 
HETATM   18  C   UNK N   1      22.703  13.266   8.115  0.00  0.00     0.016 A 
HETATM   19  C   UNK N   1      22.163  14.495   7.757  0.00  0.00     0.001 A 
HETATM   20  C   UNK N   1      22.594  15.426   6.842  0.00  0.00     0.007 A 
HETATM   21  C   UNK N   1      23.897  15.530   6.143  0.00  0.00     0.157 C 
HETATM   22  C   UNK N   1      24.552  14.231   5.903  0.00  0.00     0.071 C 
HETATM   23  N   UNK N   1      25.097  13.223   5.744  0.00  0.00    -0.196 NA
HETATM   24  H   UNK N   1      26.538  16.103   1.949  0.00  0.00     0.153 HD
HETATM   25  H   UNK N   1      23.078  18.476   4.618  0.00  0.00     0.163 HD
ENDROOT
TORSDOF 0
ENDMDL
MODEL 3
REMARK VINA RESULT:      -7.1      3.445      5.593
REMARK  0 active torsions:
REMARK  status: ('A' for Active; 'I' for Inactive)
ROOT
HETATM    1  C   UNK N   1      31.211  17.123   6.331  0.00  0.00     0.052 C 
HETATM    2  C   UNK N   1      30.393  16.630   5.125  0.00  0.00     0.116 C 
HETATM    3  N   UNK N   1      30.777  17.288   3.860  0.00  0.00    -0.421 N 
HETATM    4  C   UNK N   1      32.132  17.858   3.874  0.00  0.00     0.116 C 
HETATM    5  C   UNK N   1      33.087  16.951   4.634  0.00  0.00     0.052 C 
HETATM    6  C   UNK N   1      32.716  16.851   6.127  0.00  0.00     0.056 C 
HETATM    7  N   UNK N   1      33.468  17.892   6.847  0.00  0.00    -0.345 N 
HETATM    8  C   UNK N   1      34.180  17.686   7.996  0.00  0.00     0.269 C 
HETATM    9  O   UNK N   1      34.779  18.614   8.514  0.00  0.00    -0.266 OA
HETATM   10  C   UNK N   1      34.166  16.354   8.618  0.00  0.00     0.111 A 
HETATM   11  N   UNK N   1      34.770  15.926   9.758  0.00  0.00    -0.346 N 
HETATM   12  C   UNK N   1      35.623  16.702  10.647  0.00  0.00     0.156 C 
HETATM   13  C   UNK N   1      34.510  14.600   9.841  0.00  0.00     0.047 A 
HETATM   14  C   UNK N   1      35.003  13.672  10.761  0.00  0.00     0.054 A 
HETATM   15  C   UNK N   1      34.660  12.313  10.566  0.00  0.00     0.036 A 
HETATM   16 Cl   UNK N   1      35.332  11.073  11.599  0.00  0.00    -0.084 Cl
HETATM   17  C   UNK N   1      33.837  11.926   9.488  0.00  0.00     0.025 A 
HETATM   18  C   UNK N   1      33.376  12.878   8.573  0.00  0.00     0.016 A 
HETATM   19  C   UNK N   1      33.737  14.203   8.779  0.00  0.00     0.001 A 
HETATM   20  C   UNK N   1      33.536  15.314   7.994  0.00  0.00     0.007 A 
HETATM   21  C   UNK N   1      33.109  15.405   6.577  0.00  0.00     0.157 C 
HETATM   22  C   UNK N   1      32.224  14.306   6.149  0.00  0.00     0.071 C 
HETATM   23  N   UNK N   1      31.563  13.429   5.787  0.00  0.00    -0.196 NA
HETATM   24  H   UNK N   1      30.158  17.344   3.052  0.00  0.00     0.153 HD
HETATM   25  H   UNK N   1      33.457  18.802   6.475  0.00  0.00     0.163 HD
ENDROOT
TORSDOF 0
ENDMDL
MODEL 4
REMARK VINA RESULT:      -7.1     10.120     12.865
REMARK  0 active torsions:
REMARK  status: ('A' for Active; 'I' for Inactive)
ROOT
HETATM    1  C   UNK N   1      35.119  12.997  12.124  0.00  0.00     0.052 C 
HETATM    2  C   UNK N   1      35.043  11.951  10.998  0.00  0.00     0.116 C 
HETATM    3  N   UNK N   1      36.159  12.058  10.037  0.00  0.00    -0.421 N 
HETATM    4  C   UNK N   1      37.346  12.736  10.577  0.00  0.00     0.116 C 
HETATM    5  C   UNK N   1      37.568  12.351  12.030  0.00  0.00     0.052 C 
HETATM    6  C   UNK N   1      36.422  12.844  12.935  0.00  0.00     0.056 C 
HETATM    7  N   UNK N   1      36.795  14.171  13.451  0.00  0.00    -0.345 N 
HETATM    8  C   UNK N   1      36.709  14.551  14.762  0.00  0.00     0.269 C 
HETATM    9  O   UNK N   1      37.054  15.674  15.092  0.00  0.00    -0.266 OA
HETATM   10  C   UNK N   1      36.152  13.612  15.744  0.00  0.00     0.111 A 
HETATM   11  N   UNK N   1      35.949  13.775  17.078  0.00  0.00    -0.346 N 
HETATM   12  C   UNK N   1      36.271  14.947  17.880  0.00  0.00     0.156 C 
HETATM   13  C   UNK N   1      35.489  12.586  17.534  0.00  0.00     0.047 A 
HETATM   14  C   UNK N   1      35.241  12.194  18.851  0.00  0.00     0.054 A 
HETATM   15  C   UNK N   1      34.863  10.850  19.073  0.00  0.00     0.036 A 
HETATM   16 Cl   UNK N   1      34.651  10.246  20.700  0.00  0.00    -0.084 Cl
HETATM   17  C   UNK N   1      34.729   9.952  17.993  0.00  0.00     0.025 A 
HETATM   18  C   UNK N   1      35.002  10.371  16.687  0.00  0.00     0.016 A 
HETATM   19  C   UNK N   1      35.385  11.693  16.497  0.00  0.00     0.001 A 
HETATM   20  C   UNK N   1      35.825  12.339  15.366  0.00  0.00     0.007 A 
HETATM   21  C   UNK N   1      36.274  11.777  14.071  0.00  0.00     0.157 C 
HETATM   22  C   UNK N   1      35.621  10.504  13.713  0.00  0.00     0.071 C 
HETATM   23  N   UNK N   1      35.148   9.485  13.439  0.00  0.00    -0.196 NA
HETATM   24  H   UNK N   1      36.109  11.697   9.085  0.00  0.00     0.153 HD
HETATM   25  H   UNK N   1      37.131  14.833  12.805  0.00  0.00     0.163 HD
ENDROOT
TORSDOF 0
ENDMDL
MODEL 5
REMARK VINA RESULT:      -7.1      3.311      6.693
REMARK  0 active torsions:
REMARK  status: ('A' for Active; 'I' for Inactive)
ROOT
HETATM    1  C   UNK N   1      33.649  17.071   7.575  0.00  0.00     0.052 C 
HETATM    2  C   UNK N   1      34.733  16.009   7.321  0.00  0.00     0.116 C 
HETATM    3  N   UNK N   1      35.188  15.344   8.558  0.00  0.00    -0.421 N 
HETATM    4  C   UNK N   1      34.223  15.417   9.663  0.00  0.00     0.116 C 
HETATM    5  C   UNK N   1      32.802  15.269   9.144  0.00  0.00     0.052 C 
HETATM    6  C   UNK N   1      32.401  16.442   8.228  0.00  0.00     0.056 C 
HETATM    7  N   UNK N   1      31.760  17.468   9.067  0.00  0.00    -0.345 N 
HETATM    8  C   UNK N   1      30.578  18.089   8.774  0.00  0.00     0.269 C 
HETATM    9  O   UNK N   1      30.123  18.922   9.541  0.00  0.00    -0.266 OA
HETATM   10  C   UNK N   1      29.901  17.778   7.507  0.00  0.00     0.111 A 
HETATM   11  N   UNK N   1      28.745  18.282   6.998  0.00  0.00    -0.346 N 
HETATM   12  C   UNK N   1      27.863  19.260   7.618  0.00  0.00     0.156 C 
HETATM   13  C   UNK N   1      28.521  17.607   5.846  0.00  0.00     0.047 A 
HETATM   14  C   UNK N   1      27.407  17.664   5.006  0.00  0.00     0.054 A 
HETATM   15  C   UNK N   1      27.369  16.771   3.909  0.00  0.00     0.036 A 
HETATM   16 Cl   UNK N   1      25.959  16.693   2.879  0.00  0.00    -0.084 Cl
HETATM   17  C   UNK N   1      28.431  15.873   3.675  0.00  0.00     0.025 A 
HETATM   18  C   UNK N   1      29.524  15.828   4.546  0.00  0.00     0.016 A 
HETATM   19  C   UNK N   1      29.531  16.705   5.623  0.00  0.00     0.001 A 
HETATM   20  C   UNK N   1      30.396  16.802   6.688  0.00  0.00     0.007 A 
HETATM   21  C   UNK N   1      31.426  15.846   7.158  0.00  0.00     0.157 C 
HETATM   22  C   UNK N   1      32.027  15.039   6.081  0.00  0.00     0.071 C 
HETATM   23  N   UNK N   1      32.479  14.369   5.252  0.00  0.00    -0.196 NA
HETATM   24  H   UNK N   1      36.092  14.878   8.638  0.00  0.00     0.153 HD
HETATM   25  H   UNK N   1      32.216  17.726   9.900  0.00  0.00     0.163 HD
ENDROOT
TORSDOF 0
ENDMDL
MODEL 6
REMARK VINA RESULT:      -7.0      5.554      9.079
REMARK  0 active torsions:
REMARK  status: ('A' for Active; 'I' for Inactive)
ROOT
HETATM    1  C   UNK N   1      37.361  13.562  11.247  0.00  0.00     0.052 C 
HETATM    2  C   UNK N   1      37.499  12.204  11.959  0.00  0.00     0.116 C 
HETATM    3  N   UNK N   1      37.336  12.305  13.423  0.00  0.00    -0.421 N 
HETATM    4  C   UNK N   1      36.593  13.495  13.860  0.00  0.00     0.116 C 
HETATM    5  C   UNK N   1      35.454  13.797  12.900  0.00  0.00     0.052 C 
HETATM    6  C   UNK N   1      35.971  14.182  11.499  0.00  0.00     0.056 C 
HETATM    7  N   UNK N   1      36.112  15.646  11.458  0.00  0.00    -0.345 N 
HETATM    8  C   UNK N   1      35.644  16.448  10.454  0.00  0.00     0.269 C 
HETATM    9  O   UNK N   1      35.803  17.655  10.518  0.00  0.00    -0.266 OA
HETATM   10  C   UNK N   1      35.001  15.829   9.286  0.00  0.00     0.111 A 
HETATM   11  N   UNK N   1      34.489  16.414   8.171  0.00  0.00    -0.346 N 
HETATM   12  C   UNK N   1      34.428  17.837   7.873  0.00  0.00     0.156 C 
HETATM   13  C   UNK N   1      33.943  15.411   7.443  0.00  0.00     0.047 A 
HETATM   14  C   UNK N   1      33.188  15.497   6.271  0.00  0.00     0.054 A 
HETATM   15  C   UNK N   1      32.638  14.299   5.759  0.00  0.00     0.036 A 
HETATM   16 Cl   UNK N   1      31.582  14.333   4.366  0.00  0.00    -0.084 Cl
HETATM   17  C   UNK N   1      32.864  13.067   6.409  0.00  0.00     0.025 A 
HETATM   18  C   UNK N   1      33.610  13.019   7.591  0.00  0.00     0.016 A 
HETATM   19  C   UNK N   1      34.128  14.210   8.080  0.00  0.00     0.001 A 
HETATM   20  C   UNK N   1      34.782  14.480   9.260  0.00  0.00     0.007 A 
HETATM   21  C   UNK N   1      34.907  13.651  10.481  0.00  0.00     0.157 C 
HETATM   22  C   UNK N   1      34.894  12.200  10.223  0.00  0.00     0.071 C 
HETATM   23  N   UNK N   1      34.843  11.059  10.039  0.00  0.00    -0.196 NA
HETATM   24  H   UNK N   1      37.708  11.611  14.072  0.00  0.00     0.153 HD
HETATM   25  H   UNK N   1      36.578  16.080  12.209  0.00  0.00     0.163 HD
ENDROOT
TORSDOF 0
ENDMDL
MODEL 7
REMARK VINA RESULT:      -7.0     12.008     13.913
REMARK  0 active torsions:
REMARK  status: ('A' for Active; 'I' for Inactive)
ROOT
HETATM    1  C   UNK N   1      26.509  25.849  -3.946  0.00  0.00     0.052 C 
HETATM    2  C   UNK N   1      25.322  26.618  -4.552  0.00  0.00     0.116 C 
HETATM    3  N   UNK N   1      25.577  28.067  -4.671  0.00  0.00    -0.421 N 
HETATM    4  C   UNK N   1      27.003  28.421  -4.696  0.00  0.00     0.116 C 
HETATM    5  C   UNK N   1      27.796  27.395  -5.488  0.00  0.00     0.052 C 
HETATM    6  C   UNK N   1      27.774  26.009  -4.815  0.00  0.00     0.056 C 
HETATM    7  N   UNK N   1      28.947  25.919  -3.931  0.00  0.00    -0.345 N 
HETATM    8  C   UNK N   1      29.816  24.864  -3.891  0.00  0.00     0.269 C 
HETATM    9  O   UNK N   1      30.767  24.889  -3.128  0.00  0.00    -0.266 OA
HETATM   10  C   UNK N   1      29.554  23.690  -4.735  0.00  0.00     0.111 A 
HETATM   11  N   UNK N   1      30.253  22.529  -4.843  0.00  0.00    -0.346 N 
HETATM   12  C   UNK N   1      31.482  22.174  -4.146  0.00  0.00     0.156 C 
HETATM   13  C   UNK N   1      29.639  21.813  -5.814  0.00  0.00     0.047 A 
HETATM   14  C   UNK N   1      30.036  20.603  -6.387  0.00  0.00     0.054 A 
HETATM   15  C   UNK N   1      29.270  20.110  -7.469  0.00  0.00     0.036 A 
HETATM   16 Cl   UNK N   1      29.766  18.666  -8.321  0.00  0.00    -0.084 Cl
HETATM   17  C   UNK N   1      28.140  20.816  -7.932  0.00  0.00     0.025 A 
HETATM   18  C   UNK N   1      27.781  22.035  -7.348  0.00  0.00     0.016 A 
HETATM   19  C   UNK N   1      28.556  22.504  -6.296  0.00  0.00     0.001 A 
HETATM   20  C   UNK N   1      28.515  23.703  -5.624  0.00  0.00     0.007 A 
HETATM   21  C   UNK N   1      27.814  24.960  -5.977  0.00  0.00     0.157 C 
HETATM   22  C   UNK N   1      26.569  24.756  -6.738  0.00  0.00     0.071 C 
HETATM   23  N   UNK N   1      25.611  24.614  -7.372  0.00  0.00    -0.196 NA
HETATM   24  H   UNK N   1      24.830  28.759  -4.730  0.00  0.00     0.153 HD
HETATM   25  H   UNK N   1      29.120  26.675  -3.325  0.00  0.00     0.163 HD
ENDROOT
TORSDOF 0
ENDMDL
MODEL 8
REMARK VINA RESULT:      -6.8      3.069      5.959
REMARK  0 active torsions:
REMARK  status: ('A' for Active; 'I' for Inactive)
ROOT
HETATM    1  C   UNK N   1      32.847  15.071   8.449  0.00  0.00     0.052 C 
HETATM    2  C   UNK N   1      32.828  15.206   9.982  0.00  0.00     0.116 C 
HETATM    3  N   UNK N   1      34.056  15.822  10.520  0.00  0.00    -0.421 N 
HETATM    4  C   UNK N   1      34.795  16.632   9.541  0.00  0.00     0.116 C 
HETATM    5  C   UNK N   1      33.835  17.397   8.645  0.00  0.00     0.052 C 
HETATM    6  C   UNK N   1      32.987  16.451   7.773  0.00  0.00     0.056 C 
HETATM    7  N   UNK N   1      33.693  16.263   6.496  0.00  0.00    -0.345 N 
HETATM    8  C   UNK N   1      33.113  16.364   5.261  0.00  0.00     0.269 C 
HETATM    9  O   UNK N   1      33.788  16.200   4.258  0.00  0.00    -0.266 OA
HETATM   10  C   UNK N   1      31.669  16.620   5.167  0.00  0.00     0.111 A 
HETATM   11  N   UNK N   1      30.881  16.735   4.066  0.00  0.00    -0.346 N 
HETATM   12  C   UNK N   1      31.299  16.657   2.673  0.00  0.00     0.156 C 
HETATM   13  C   UNK N   1      29.646  17.049   4.522  0.00  0.00     0.047 A 
HETATM   14  C   UNK N   1      28.507  17.390   3.790  0.00  0.00     0.054 A 
HETATM   15  C   UNK N   1      27.358  17.783   4.514  0.00  0.00     0.036 A 
HETATM   16 Cl   UNK N   1      25.929  18.340   3.675  0.00  0.00    -0.084 Cl
HETATM   17  C   UNK N   1      27.370  17.810   5.925  0.00  0.00     0.025 A 
HETATM   18  C   UNK N   1      28.533  17.481   6.628  0.00  0.00     0.016 A 
HETATM   19  C   UNK N   1      29.652  17.111   5.893  0.00  0.00     0.001 A 
HETATM   20  C   UNK N   1      30.941  16.858   6.300  0.00  0.00     0.007 A 
HETATM   21  C   UNK N   1      31.598  17.151   7.595  0.00  0.00     0.157 C 
HETATM   22  C   UNK N   1      30.681  17.124   8.749  0.00  0.00     0.071 C 
HETATM   23  N   UNK N   1      29.967  17.146   9.659  0.00  0.00    -0.196 NA
HETATM   24  H   UNK N   1      34.365  15.696  11.484  0.00  0.00     0.153 HD
HETATM   25  H   UNK N   1      34.652  16.048   6.533  0.00  0.00     0.163 HD
ENDROOT
TORSDOF 0
ENDMDL
MODEL 9
REMARK VINA RESULT:      -6.8      3.482      5.292
REMARK  0 active torsions:
REMARK  status: ('A' for Active; 'I' for Inactive)
ROOT
HETATM    1  C   UNK N   1      33.437  16.262   5.028  0.00  0.00     0.052 C 
HETATM    2  C   UNK N   1      33.205  17.719   4.589  0.00  0.00     0.116 C 
HETATM    3  N   UNK N   1      31.863  17.940   4.016  0.00  0.00    -0.421 N 
HETATM    4  C   UNK N   1      30.867  16.940   4.428  0.00  0.00     0.116 C 
HETATM    5  C   UNK N   1      31.069  16.552   5.884  0.00  0.00     0.052 C 
HETATM    6  C   UNK N   1      32.418  15.840   6.106  0.00  0.00     0.056 C 
HETATM    7  N   UNK N   1      32.189  14.392   5.973  0.00  0.00    -0.345 N 
HETATM    8  C   UNK N   1      32.636  13.447   6.855  0.00  0.00     0.269 C 
HETATM    9  O   UNK N   1      32.386  12.269   6.661  0.00  0.00    -0.266 OA
HETATM   10  C   UNK N   1      33.460  13.867   7.997  0.00  0.00     0.111 A 
HETATM   11  N   UNK N   1      34.029  13.115   8.976  0.00  0.00    -0.346 N 
HETATM   12  C   UNK N   1      33.932  11.672   9.145  0.00  0.00     0.156 C 
HETATM   13  C   UNK N   1      34.613  13.991   9.827  0.00  0.00     0.047 A 
HETATM   14  C   UNK N   1      35.227  13.735  11.055  0.00  0.00     0.054 A 
HETATM   15  C   UNK N   1      35.669  14.847  11.809  0.00  0.00     0.036 A 
HETATM   16 Cl   UNK N   1      36.338  14.623  13.409  0.00  0.00    -0.084 Cl
HETATM   17  C   UNK N   1      35.504  16.159  11.320  0.00  0.00     0.025 A 
HETATM   18  C   UNK N   1      34.868  16.383  10.095  0.00  0.00     0.016 A 
HETATM   19  C   UNK N   1      34.431  15.275   9.379  0.00  0.00     0.001 A 
HETATM   20  C   UNK N   1      33.683  15.196   8.229  0.00  0.00     0.007 A 
HETATM   21  C   UNK N   1      32.893  16.245   7.542  0.00  0.00     0.157 C 
HETATM   22  C   UNK N   1      33.434  17.606   7.709  0.00  0.00     0.071 C 
HETATM   23  N   UNK N   1      33.823  18.684   7.866  0.00  0.00    -0.196 NA
HETATM   24  H   UNK N   1      31.646  18.715   3.390  0.00  0.00     0.153 HD
HETATM   25  H   UNK N   1      31.677  14.082   5.193  0.00  0.00     0.163 HD
ENDROOT
TORSDOF 0
ENDMDL
