REMARK  0 active torsions:
REMARK  status: ('A' for Active; 'I' for Inactive)
ROOT
HETATM    1  C   UNK N   1       2.018  -0.129   1.231  0.00  0.00     0.052 C 
HETATM    2  C   UNK N   1       3.014   1.043   1.173  0.00  0.00     0.116 C 
HETATM    3  N   UNK N   1       4.143   0.793   0.255  0.00  0.00    -0.421 N 
HETATM    4  C   UNK N   1       3.862  -0.219  -0.773  0.00  0.00     0.116 C 
HETATM    5  C   UNK N   1       2.431  -0.095  -1.270  0.00  0.00     0.052 C 
HETATM    6  C   UNK N   1       1.409  -0.407  -0.159  0.00  0.00     0.056 C 
HETATM    7  N   UNK N   1       1.086  -1.841  -0.235  0.00  0.00    -0.345 N 
HETATM    8  C   UNK N   1      -0.180  -2.358  -0.220  0.00  0.00     0.269 C 
HETATM    9  O   UNK N   1      -0.344  -3.564  -0.298  0.00  0.00    -0.266 OA
HETATM   10  C   UNK N   1      -1.322  -1.448  -0.056  0.00  0.00     0.111 A 
HETATM   11  N   UNK N   1      -2.650  -1.731   0.012  0.00  0.00    -0.346 N 
HETATM   12  C   UNK N   1      -3.277  -3.041  -0.092  0.00  0.00     0.156 C 
HETATM   13  C   UNK N   1      -3.282  -0.536   0.084  0.00  0.00     0.047 A 
HETATM   14  C   UNK N   1      -4.653  -0.272   0.052  0.00  0.00     0.054 A 
HETATM   15  C   UNK N   1      -5.058   1.083   0.035  0.00  0.00     0.036 A 
HETATM   16 Cl   UNK N   1      -6.748   1.501  -0.126  0.00  0.00    -0.084 Cl
HETATM   17  C   UNK N   1      -4.102   2.120   0.066  0.00  0.00     0.025 A 
HETATM   18  C   UNK N   1      -2.736   1.822   0.079  0.00  0.00     0.016 A 
HETATM   19  C   UNK N   1      -2.364   0.484   0.082  0.00  0.00     0.001 A 
HETATM   20  C   UNK N   1      -1.122  -0.096  -0.027  0.00  0.00     0.007 A 
HETATM   21  C   UNK N   1       0.168   0.505  -0.440  0.00  0.00     0.157 C 
HETATM   22  C   UNK N   1       0.297   1.934  -0.102  0.00  0.00     0.071 C 
HETATM   23  N   UNK N   1       0.396   3.065   0.120  0.00  0.00    -0.196 NA
HETATM   24  H   UNK N   1       5.037   1.278   0.329  0.00  0.00     0.153 HD
HETATM   25  H   UNK N   1       1.836  -2.474  -0.302  0.00  0.00     0.163 HD
ENDROOT
TORSDOF 0
