REMARK  2 active torsions:
REMARK  status: ('A' for Active; 'I' for Inactive)
REMARK    1  A    between atoms: C_9  and  N_16 
REMARK    2  A    between atoms: C_13  and  N_19 
ROOT
HETATM    1  C   UNK N   1       1.222   1.120  -0.000  0.00  0.00     0.050 A 
HETATM    2  C   UNK N   1       1.365  -0.281  -0.000  0.00  0.00     0.034 A 
HETATM    3  S   UNK N   1      -0.014  -1.213  -0.000  0.00  0.00    -0.086 SA
HETATM    4  C   UNK N   1      -1.394  -0.280   0.000  0.00  0.00     0.034 A 
HETATM    5  C   UNK N   1      -1.247   1.121   0.000  0.00  0.00     0.050 A 
HETATM    6  N   UNK N   1      -0.014   1.728   0.000  0.00  0.00    -0.354 N 
ATOM      7  HN  UNK N   1      -0.014   2.748   0.000  1.00  0.00     0.166 HD
HETATM    8  C   UNK N   1      -2.646  -0.877   0.000  0.00  0.00     0.050 A 
HETATM    9  C   UNK N   1      -3.804  -0.093   0.000  0.00  0.00     0.030 A 
HETATM   10  C   UNK N   1      -3.674   1.310   0.000  0.00  0.00     0.031 A 
HETATM   11  C   UNK N   1      -2.405   1.911   0.000  0.00  0.00     0.033 A 
HETATM   12  C   UNK N   1       2.618  -0.880  -0.000  0.00  0.00     0.050 A 
HETATM   13  C   UNK N   1       3.776  -0.096  -0.000  0.00  0.00     0.030 A 
HETATM   14  C   UNK N   1       3.648   1.307  -0.000  0.00  0.00     0.031 A 
HETATM   15  C   UNK N   1       2.379   1.909  -0.000  0.00  0.00     0.033 A 
ENDROOT
BRANCH   9  16
HETATM   16  N   UNK N   1      -5.087  -0.718   0.000  0.00  0.00    -0.390 N 
HETATM   17  C   UNK N   1      -6.295   0.067   0.000  0.00  0.00     0.149 C 
HETATM   18  C   UNK N   1      -5.205  -2.156   0.000  0.00  0.00     0.149 C 
ENDBRANCH   9  16
BRANCH  13  19
HETATM   19  N   UNK N   1       5.059  -0.722  -0.000  0.00  0.00    -0.390 N 
HETATM   20  C   UNK N   1       6.267   0.062  -0.000  0.00  0.00     0.149 C 
HETATM   21  C   UNK N   1       5.176  -2.160  -0.000  0.00  0.00     0.149 C 
ENDBRANCH  13  19
TORSDOF 2
