MODEL 1
REMARK VINA RESULT:      -6.0      0.000      0.000
REMARK  2 active torsions:
REMARK  status: ('A' for Active; 'I' for Inactive)
REMARK    1  A    between atoms: C_9  and  N_16 
REMARK    2  A    between atoms: C_13  and  N_19 
ROOT
HETATM    1  C   UNK N   1      35.123  15.955   9.795  0.00  0.00     0.050 A 
HETATM    2  C   UNK N   1      35.407  14.627   9.422  0.00  0.00     0.034 A 
HETATM    3  S   UNK N   1      35.080  14.163   7.857  0.00  0.00    -0.086 SA
HETATM    4  C   UNK N   1      34.443  15.413   6.959  0.00  0.00     0.034 A 
HETATM    5  C   UNK N   1      34.261  16.658   7.591  0.00  0.00     0.050 A 
HETATM    6  N   UNK N   1      34.590  16.865   8.909  0.00  0.00    -0.354 N 
ATOM      7  HN  UNK N   1      34.420  17.802   9.274  1.00  0.00     0.166 HD
HETATM    8  C   UNK N   1      34.105  15.220   5.627  0.00  0.00     0.050 A 
HETATM    9  C   UNK N   1      33.570  16.270   4.874  0.00  0.00     0.030 A 
HETATM   10  C   UNK N   1      33.382  17.522   5.492  0.00  0.00     0.031 A 
HETATM   11  C   UNK N   1      33.725  17.713   6.840  0.00  0.00     0.033 A 
HETATM   12  C   UNK N   1      35.944  13.720  10.326  0.00  0.00     0.050 A 
HETATM   13  C   UNK N   1      36.218  14.112  11.641  0.00  0.00     0.030 A 
HETATM   14  C   UNK N   1      35.939  15.437  12.028  0.00  0.00     0.031 A 
HETATM   15  C   UNK N   1      35.396  16.351  11.111  0.00  0.00     0.033 A 
ENDROOT
BRANCH   9  16
HETATM   16  N   UNK N   1      33.226  16.060   3.504  0.00  0.00    -0.390 N 
HETATM   17  C   UNK N   1      32.287  16.923   2.835  0.00  0.00     0.149 C 
HETATM   18  C   UNK N   1      33.813  14.975   2.756  0.00  0.00     0.149 C 
ENDBRANCH   9  16
BRANCH  13  19
HETATM   19  N   UNK N   1      36.770  13.172  12.562  0.00  0.00    -0.390 N 
HETATM   20  C   UNK N   1      36.551  13.305  13.979  0.00  0.00     0.149 C 
HETATM   21  C   UNK N   1      37.563  12.061  12.094  0.00  0.00     0.149 C 
ENDBRANCH  13  19
TORSDOF 2
ENDMDL
MODEL 2
REMARK VINA RESULT:      -6.0      0.095      7.401
REMARK  2 active torsions:
REMARK  status: ('A' for Active; 'I' for Inactive)
REMARK    1  A    between atoms: C_9  and  N_16 
REMARK    2  A    between atoms: C_13  and  N_19 
ROOT
HETATM    1  C   UNK N   1      34.320  16.609   7.646  0.00  0.00     0.050 A 
HETATM    2  C   UNK N   1      34.493  15.362   7.015  0.00  0.00     0.034 A 
HETATM    3  S   UNK N   1      35.118  14.106   7.912  0.00  0.00    -0.086 SA
HETATM    4  C   UNK N   1      35.446  14.566   9.479  0.00  0.00     0.034 A 
HETATM    5  C   UNK N   1      35.173  15.897   9.851  0.00  0.00     0.050 A 
HETATM    6  N   UNK N   1      34.650  16.811   8.968  0.00  0.00    -0.354 N 
ATOM      7  HN  UNK N   1      34.488  17.749   9.334  1.00  0.00     0.166 HD
HETATM    8  C   UNK N   1      35.974  13.655  10.382  0.00  0.00     0.050 A 
HETATM    9  C   UNK N   1      36.249  14.042  11.698  0.00  0.00     0.030 A 
HETATM   10  C   UNK N   1      35.981  15.370  12.085  0.00  0.00     0.031 A 
HETATM   11  C   UNK N   1      35.447  16.289  11.168  0.00  0.00     0.033 A 
HETATM   12  C   UNK N   1      34.155  15.173   5.681  0.00  0.00     0.050 A 
HETATM   13  C   UNK N   1      33.630  16.228   4.929  0.00  0.00     0.030 A 
HETATM   14  C   UNK N   1      33.451  17.482   5.547  0.00  0.00     0.031 A 
HETATM   15  C   UNK N   1      33.794  17.669   6.896  0.00  0.00     0.033 A 
ENDROOT
BRANCH   9  16
HETATM   16  N   UNK N   1      36.792  13.096  12.619  0.00  0.00    -0.390 N 
HETATM   17  C   UNK N   1      36.569  13.228  14.036  0.00  0.00     0.149 C 
HETATM   18  C   UNK N   1      37.580  11.982  12.151  0.00  0.00     0.149 C 
ENDBRANCH   9  16
BRANCH  13  19
HETATM   19  N   UNK N   1      33.286  16.023   3.559  0.00  0.00    -0.390 N 
HETATM   20  C   UNK N   1      33.822  14.911   2.818  0.00  0.00     0.149 C 
HETATM   21  C   UNK N   1      32.390  16.929   2.882  0.00  0.00     0.149 C 
ENDBRANCH  13  19
TORSDOF 2
ENDMDL
MODEL 3
REMARK VINA RESULT:      -5.8      2.046      4.023
REMARK  2 active torsions:
REMARK  status: ('A' for Active; 'I' for Inactive)
REMARK    1  A    between atoms: C_9  and  N_16 
REMARK    2  A    between atoms: C_13  and  N_19 
ROOT
HETATM    1  C   UNK N   1      36.319  14.127  13.144  0.00  0.00     0.050 A 
HETATM    2  C   UNK N   1      36.457  12.919  12.434  0.00  0.00     0.034 A 
HETATM    3  S   UNK N   1      36.134  12.924  10.801  0.00  0.00    -0.086 SA
HETATM    4  C   UNK N   1      35.681  14.434  10.262  0.00  0.00     0.034 A 
HETATM    5  C   UNK N   1      35.624  15.483  11.201  0.00  0.00     0.050 A 
HETATM    6  N   UNK N   1      35.929  15.296  12.528  0.00  0.00    -0.354 N 
ATOM      7  HN  UNK N   1      35.857  16.119  13.127  1.00  0.00     0.166 HD
HETATM    8  C   UNK N   1      35.370  14.639   8.926  0.00  0.00     0.050 A 
HETATM    9  C   UNK N   1      34.990  15.907   8.475  0.00  0.00     0.030 A 
HETATM   10  C   UNK N   1      34.928  16.967   9.401  0.00  0.00     0.031 A 
HETATM   11  C   UNK N   1      35.243  16.756  10.753  0.00  0.00     0.033 A 
HETATM   12  C   UNK N   1      36.852  11.748  13.069  0.00  0.00     0.050 A 
HETATM   13  C   UNK N   1      37.123  11.745  14.440  0.00  0.00     0.030 A 
HETATM   14  C   UNK N   1      36.989  12.947  15.163  0.00  0.00     0.031 A 
HETATM   15  C   UNK N   1      36.589  14.129  14.518  0.00  0.00     0.033 A 
ENDROOT
BRANCH   9  16
HETATM   16  N   UNK N   1      34.672  16.107   7.098  0.00  0.00    -0.390 N 
HETATM   17  C   UNK N   1      35.098  15.166   6.094  0.00  0.00     0.149 C 
HETATM   18  C   UNK N   1      33.914  17.260   6.678  0.00  0.00     0.149 C 
ENDBRANCH   9  16
BRANCH  13  19
HETATM   19  N   UNK N   1      37.527  10.536  15.083  0.00  0.00    -0.390 N 
HETATM   20  C   UNK N   1      38.650   9.778  14.596  0.00  0.00     0.149 C 
HETATM   21  C   UNK N   1      36.818  10.045  16.239  0.00  0.00     0.149 C 
ENDBRANCH  13  19
TORSDOF 2
ENDMDL
MODEL 4
REMARK VINA RESULT:      -5.6      2.855      7.132
REMARK  2 active torsions:
REMARK  status: ('A' for Active; 'I' for Inactive)
REMARK    1  A    between atoms: C_9  and  N_16 
REMARK    2  A    between atoms: C_13  and  N_19 
ROOT
HETATM    1  C   UNK N   1      32.088  16.869   8.467  0.00  0.00     0.050 A 
HETATM    2  C   UNK N   1      32.075  15.912   7.435  0.00  0.00     0.034 A 
HETATM    3  S   UNK N   1      33.348  14.844   7.335  0.00  0.00    -0.086 SA
HETATM    4  C   UNK N   1      34.474  15.107   8.535  0.00  0.00     0.034 A 
HETATM    5  C   UNK N   1      34.235  16.149   9.452  0.00  0.00     0.050 A 
HETATM    6  N   UNK N   1      33.115  16.942   9.383  0.00  0.00    -0.354 N 
ATOM      7  HN  UNK N   1      33.034  17.670  10.093  1.00  0.00     0.166 HD
HETATM    8  C   UNK N   1      35.610  14.315   8.618  0.00  0.00     0.050 A 
HETATM    9  C   UNK N   1      36.555  14.536   9.625  0.00  0.00     0.030 A 
HETATM   10  C   UNK N   1      36.330  15.575  10.550  0.00  0.00     0.031 A 
HETATM   11  C   UNK N   1      35.179  16.374  10.463  0.00  0.00     0.033 A 
HETATM   12  C   UNK N   1      31.033  15.850   6.519  0.00  0.00     0.050 A 
HETATM   13  C   UNK N   1      29.964  16.748   6.603  0.00  0.00     0.030 A 
HETATM   14  C   UNK N   1      29.964  17.711   7.631  0.00  0.00     0.031 A 
HETATM   15  C   UNK N   1      31.020  17.770   8.556  0.00  0.00     0.033 A 
ENDROOT
BRANCH   9  16
HETATM   16  N   UNK N   1      37.720  13.715   9.701  0.00  0.00    -0.390 N 
HETATM   17  C   UNK N   1      38.556  13.506   8.547  0.00  0.00     0.149 C 
HETATM   18  C   UNK N   1      38.089  13.074  10.940  0.00  0.00     0.149 C 
ENDBRANCH   9  16
BRANCH  13  19
HETATM   19  N   UNK N   1      28.898  16.676   5.656  0.00  0.00    -0.390 N 
HETATM   20  C   UNK N   1      28.041  15.521   5.591  0.00  0.00     0.149 C 
HETATM   21  C   UNK N   1      28.655  17.763   4.739  0.00  0.00     0.149 C 
ENDBRANCH  13  19
TORSDOF 2
ENDMDL
MODEL 5
REMARK VINA RESULT:      -5.6      2.143      8.282
REMARK  2 active torsions:
REMARK  status: ('A' for Active; 'I' for Inactive)
REMARK    1  A    between atoms: C_9  and  N_16 
REMARK    2  A    between atoms: C_13  and  N_19 
ROOT
HETATM    1  C   UNK N   1      35.501  15.473  11.308  0.00  0.00     0.050 A 
HETATM    2  C   UNK N   1      35.093  14.386  10.510  0.00  0.00     0.034 A 
HETATM    3  S   UNK N   1      35.214  12.853  11.146  0.00  0.00    -0.086 SA
HETATM    4  C   UNK N   1      35.829  12.870  12.694  0.00  0.00     0.034 A 
HETATM    5  C   UNK N   1      36.160  14.116  13.262  0.00  0.00     0.050 A 
HETATM    6  N   UNK N   1      35.992  15.298  12.583  0.00  0.00    -0.354 N 
ATOM      7  HN  UNK N   1      36.262  16.146  13.081  1.00  0.00     0.166 HD
HETATM    8  C   UNK N   1      36.005  11.685  13.393  0.00  0.00     0.050 A 
HETATM    9  C   UNK N   1      36.522  11.700  14.693  0.00  0.00     0.030 A 
HETATM   10  C   UNK N   1      36.858  12.938  15.275  0.00  0.00     0.031 A 
HETATM   11  C   UNK N   1      36.678  14.136  14.565  0.00  0.00     0.033 A 
HETATM   12  C   UNK N   1      34.600  14.577   9.226  0.00  0.00     0.050 A 
HETATM   13  C   UNK N   1      34.498  15.866   8.692  0.00  0.00     0.030 A 
HETATM   14  C   UNK N   1      34.903  16.962   9.479  0.00  0.00     0.031 A 
HETATM   15  C   UNK N   1      35.401  16.765  10.778  0.00  0.00     0.033 A 
ENDROOT
BRANCH   9  16
HETATM   16  N   UNK N   1      36.699  10.475  15.403  0.00  0.00    -0.390 N 
HETATM   17  C   UNK N   1      37.110   9.274  14.720  0.00  0.00     0.149 C 
HETATM   18  C   UNK N   1      36.469  10.409  16.825  0.00  0.00     0.149 C 
ENDBRANCH   9  16
BRANCH  13  19
HETATM   19  N   UNK N   1      33.990  16.051   7.371  0.00  0.00    -0.390 N 
HETATM   20  C   UNK N   1      33.567  14.928   6.575  0.00  0.00     0.149 C 
HETATM   21  C   UNK N   1      33.889  17.372   6.800  0.00  0.00     0.149 C 
ENDBRANCH  13  19
TORSDOF 2
ENDMDL
MODEL 6
REMARK VINA RESULT:      -5.6     18.023     19.825
REMARK  2 active torsions:
REMARK  status: ('A' for Active; 'I' for Inactive)
REMARK    1  A    between atoms: C_9  and  N_16 
REMARK    2  A    between atoms: C_13  and  N_19 
ROOT
HETATM    1  C   UNK N   1      26.291  23.632  -7.056  0.00  0.00     0.050 A 
HETATM    2  C   UNK N   1      27.675  23.591  -6.795  0.00  0.00     0.034 A 
HETATM    3  S   UNK N   1      28.347  24.833  -5.914  0.00  0.00    -0.086 SA
HETATM    4  C   UNK N   1      27.209  25.967  -5.471  0.00  0.00     0.034 A 
HETATM    5  C   UNK N   1      25.875  25.758  -5.871  0.00  0.00     0.050 A 
HETATM    6  N   UNK N   1      25.493  24.661  -6.606  0.00  0.00    -0.354 N 
ATOM      7  HN  UNK N   1      24.504  24.601  -6.845  1.00  0.00     0.166 HD
HETATM    8  C   UNK N   1      27.578  27.080  -4.730  0.00  0.00     0.050 A 
HETATM    9  C   UNK N   1      26.622  28.031  -4.358  0.00  0.00     0.030 A 
HETATM   10  C   UNK N   1      25.283  27.837  -4.751  0.00  0.00     0.031 A 
HETATM   11  C   UNK N   1      24.913  26.709  -5.501  0.00  0.00     0.033 A 
HETATM   12  C   UNK N   1      28.467  22.547  -7.255  0.00  0.00     0.050 A 
HETATM   13  C   UNK N   1      27.901  21.504  -7.995  0.00  0.00     0.030 A 
HETATM   14  C   UNK N   1      26.518  21.532  -8.264  0.00  0.00     0.031 A 
HETATM   15  C   UNK N   1      25.721  22.590  -7.797  0.00  0.00     0.033 A 
ENDROOT
BRANCH   9  16
HETATM   16  N   UNK N   1      27.012  29.172  -3.595  0.00  0.00    -0.390 N 
HETATM   17  C   UNK N   1      26.458  30.473  -3.870  0.00  0.00     0.149 C 
HETATM   18  C   UNK N   1      27.975  29.049  -2.528  0.00  0.00     0.149 C 
ENDBRANCH   9  16
BRANCH  13  19
HETATM   19  N   UNK N   1      28.724  20.436  -8.464  0.00  0.00    -0.390 N 
HETATM   20  C   UNK N   1      29.224  19.433  -7.560  0.00  0.00     0.149 C 
HETATM   21  C   UNK N   1      29.077  20.337  -9.859  0.00  0.00     0.149 C 
ENDBRANCH  13  19
TORSDOF 2
ENDMDL
MODEL 7
REMARK VINA RESULT:      -5.6      3.873      7.378
REMARK  2 active torsions:
REMARK  status: ('A' for Active; 'I' for Inactive)
REMARK    1  A    between atoms: C_9  and  N_16 
REMARK    2  A    between atoms: C_13  and  N_19 
ROOT
HETATM    1  C   UNK N   1      30.891  17.542   8.318  0.00  0.00     0.050 A 
HETATM    2  C   UNK N   1      30.716  17.158   6.974  0.00  0.00     0.034 A 
HETATM    3  S   UNK N   1      31.907  16.244   6.255  0.00  0.00    -0.086 SA
HETATM    4  C   UNK N   1      33.163  15.926   7.302  0.00  0.00     0.034 A 
HETATM    5  C   UNK N   1      33.081  16.440   8.611  0.00  0.00     0.050 A 
HETATM    6  N   UNK N   1      32.008  17.185   9.040  0.00  0.00    -0.354 N 
ATOM      7  HN  UNK N   1      32.043  17.511  10.006  1.00  0.00     0.166 HD
HETATM    8  C   UNK N   1      34.253  15.176   6.885  0.00  0.00     0.050 A 
HETATM    9  C   UNK N   1      35.307  14.910   7.765  0.00  0.00     0.030 A 
HETATM   10  C   UNK N   1      35.240  15.417   9.078  0.00  0.00     0.031 A 
HETATM   11  C   UNK N   1      34.135  16.175   9.497  0.00  0.00     0.033 A 
HETATM   12  C   UNK N   1      29.584  17.526   6.259  0.00  0.00     0.050 A 
HETATM   13  C   UNK N   1      28.584  18.294   6.864  0.00  0.00     0.030 A 
HETATM   14  C   UNK N   1      28.746  18.685   8.207  0.00  0.00     0.031 A 
HETATM   15  C   UNK N   1      29.892  18.311   8.928  0.00  0.00     0.033 A 
ENDROOT
BRANCH   9  16
HETATM   16  N   UNK N   1      36.423  14.137   7.325  0.00  0.00    -0.390 N 
HETATM   17  C   UNK N   1      36.762  14.052   5.928  0.00  0.00     0.149 C 
HETATM   18  C   UNK N   1      37.241  13.420   8.273  0.00  0.00     0.149 C 
ENDBRANCH   9  16
BRANCH  13  19
HETATM   19  N   UNK N   1      27.425  18.667   6.119  0.00  0.00    -0.390 N 
HETATM   20  C   UNK N   1      26.677  17.689   5.371  0.00  0.00     0.149 C 
HETATM   21  C   UNK N   1      26.973  20.037   6.098  0.00  0.00     0.149 C 
ENDBRANCH  13  19
TORSDOF 2
ENDMDL
MODEL 8
REMARK VINA RESULT:      -5.6      5.214      7.596
REMARK  2 active torsions:
REMARK  status: ('A' for Active; 'I' for Inactive)
REMARK    1  A    between atoms: C_9  and  N_16 
REMARK    2  A    between atoms: C_13  and  N_19 
ROOT
HETATM    1  C   UNK N   1      30.760  17.385   4.844  0.00  0.00     0.050 A 
HETATM    2  C   UNK N   1      30.623  17.112   6.218  0.00  0.00     0.034 A 
HETATM    3  S   UNK N   1      29.092  16.862   6.823  0.00  0.00    -0.086 SA
HETATM    4  C   UNK N   1      27.929  16.984   5.637  0.00  0.00     0.034 A 
HETATM    5  C   UNK N   1      28.349  17.270   4.323  0.00  0.00     0.050 A 
HETATM    6  N   UNK N   1      29.673  17.449   4.000  0.00  0.00    -0.354 N 
ATOM      7  HN  UNK N   1      29.874  17.652   3.021  1.00  0.00     0.166 HD
HETATM    8  C   UNK N   1      26.589  16.807   5.947  0.00  0.00     0.050 A 
HETATM    9  C   UNK N   1      25.613  16.909   4.950  0.00  0.00     0.030 A 
HETATM   10  C   UNK N   1      26.016  17.195   3.631  0.00  0.00     0.031 A 
HETATM   11  C   UNK N   1      27.374  17.374   3.321  0.00  0.00     0.033 A 
HETATM   12  C   UNK N   1      31.728  17.050   7.057  0.00  0.00     0.050 A 
HETATM   13  C   UNK N   1      33.014  17.260   6.548  0.00  0.00     0.030 A 
HETATM   14  C   UNK N   1      33.166  17.535   5.175  0.00  0.00     0.031 A 
HETATM   15  C   UNK N   1      32.045  17.596   4.330  0.00  0.00     0.033 A 
ENDROOT
BRANCH   9  16
HETATM   16  N   UNK N   1      24.236  16.725   5.280  0.00  0.00    -0.390 N 
HETATM   17  C   UNK N   1      23.224  17.610   4.763  0.00  0.00     0.149 C 
HETATM   18  C   UNK N   1      23.825  15.644   6.143  0.00  0.00     0.149 C 
ENDBRANCH   9  16
BRANCH  13  19
HETATM   19  N   UNK N   1      34.143  17.195   7.419  0.00  0.00    -0.390 N 
HETATM   20  C   UNK N   1      34.866  15.964   7.605  0.00  0.00     0.149 C 
HETATM   21  C   UNK N   1      34.588  18.365   8.136  0.00  0.00     0.149 C 
ENDBRANCH  13  19
TORSDOF 2
ENDMDL
MODEL 9
REMARK VINA RESULT:      -5.6      5.214      7.789
REMARK  2 active torsions:
REMARK  status: ('A' for Active; 'I' for Inactive)
REMARK    1  A    between atoms: C_9  and  N_16 
REMARK    2  A    between atoms: C_13  and  N_19 
ROOT
HETATM    1  C   UNK N   1      35.652  12.941  16.231  0.00  0.00     0.050 A 
HETATM    2  C   UNK N   1      36.108  11.609  16.203  0.00  0.00     0.034 A 
HETATM    3  S   UNK N   1      36.713  11.015  14.770  0.00  0.00    -0.086 SA
HETATM    4  C   UNK N   1      36.672  12.156  13.558  0.00  0.00     0.034 A 
HETATM    5  C   UNK N   1      36.157  13.431  13.864  0.00  0.00     0.050 A 
HETATM    6  N   UNK N   1      35.694  13.752  15.118  0.00  0.00    -0.354 N 
ATOM      7  HN  UNK N   1      35.341  14.701  15.239  1.00  0.00     0.166 HD
HETATM    8  C   UNK N   1      37.134  11.848  12.287  0.00  0.00     0.050 A 
HETATM    9  C   UNK N   1      37.100  12.807  11.270  0.00  0.00     0.030 A 
HETATM   10  C   UNK N   1      36.587  14.087  11.560  0.00  0.00     0.031 A 
HETATM   11  C   UNK N   1      36.120  14.395  12.848  0.00  0.00     0.033 A 
HETATM   12  C   UNK N   1      36.059  10.804  17.333  0.00  0.00     0.050 A 
HETATM   13  C   UNK N   1      35.551  11.304  18.536  0.00  0.00     0.030 A 
HETATM   14  C   UNK N   1      35.091  12.635  18.579  0.00  0.00     0.031 A 
HETATM   15  C   UNK N   1      35.142  13.446  17.434  0.00  0.00     0.033 A 
ENDROOT
BRANCH   9  16
HETATM   16  N   UNK N   1      37.579  12.479   9.966  0.00  0.00    -0.390 N 
HETATM   17  C   UNK N   1      38.987  12.507   9.663  0.00  0.00     0.149 C 
HETATM   18  C   UNK N   1      36.660  12.111   8.916  0.00  0.00     0.149 C 
ENDBRANCH   9  16
BRANCH  13  19
HETATM   19  N   UNK N   1      35.505  10.467  19.692  0.00  0.00    -0.390 N 
HETATM   20  C   UNK N   1      34.385   9.594  19.932  0.00  0.00     0.149 C 
HETATM   21  C   UNK N   1      36.584  10.477  20.650  0.00  0.00     0.149 C 
ENDBRANCH  13  19
TORSDOF 2
ENDMDL
