MODEL 1
REMARK VINA RESULT:      -5.9      0.000      0.000
REMARK  1 active torsions:
REMARK  status: ('A' for Active; 'I' for Inactive)
REMARK    1  A    between atoms: N_1  and  C_2 
ROOT
HETATM    1  C   UNK N   1      32.634  16.324   4.000  0.00  0.00     0.028 A 
HETATM    2  C   UNK N   1      33.648  16.977   4.701  0.00  0.00     0.067 A 
HETATM    3  C   UNK N   1      33.433  17.405   6.010  0.00  0.00     0.092 A 
HETATM    4  C   UNK N   1      34.265  18.457   7.914  0.00  0.00     0.288 A 
HETATM    5  C   UNK N   1      33.059  18.270   8.595  0.00  0.00     0.090 A 
HETATM    6  C   UNK N   1      32.005  17.625   7.952  0.00  0.00    -0.043 A 
HETATM    7  C   UNK N   1      32.184  17.179   6.632  0.00  0.00     0.004 A 
HETATM    8  C   UNK N   1      31.167  16.522   5.922  0.00  0.00     0.017 A 
HETATM    9  C   UNK N   1      31.395  16.096   4.608  0.00  0.00     0.030 A 
HETATM   10  C   UNK N   1      30.718  17.427   8.684  0.00  0.00     0.049 C 
HETATM   11  O   UNK N   1      34.409  18.025   6.665  0.00  0.00    -0.275 OA
HETATM   12  O   UNK N   1      35.192  19.020   8.467  0.00  0.00    -0.260 OA
ENDROOT
BRANCH   1  13
HETATM   13  N   UNK N   1      32.863  15.896   2.678  0.00  0.00    -0.399 N 
HETATM   14  H   UNK N   1      33.156  16.541   1.994  0.00  0.00     0.156 HD
HETATM   15  H   UNK N   1      32.729  14.950   2.437  0.00  0.00     0.156 HD
ENDBRANCH   1  13
TORSDOF 1
ENDMDL
MODEL 2
REMARK VINA RESULT:      -5.7     10.477     11.502
REMARK  1 active torsions:
REMARK  status: ('A' for Active; 'I' for Inactive)
REMARK    1  A    between atoms: N_1  and  C_2 
ROOT
HETATM    1  C   UNK N   1      34.225  19.933  -4.452  0.00  0.00     0.028 A 
HETATM    2  C   UNK N   1      33.712  20.644  -3.367  0.00  0.00     0.067 A 
HETATM    3  C   UNK N   1      32.456  21.244  -3.451  0.00  0.00     0.092 A 
HETATM    4  C   UNK N   1      30.792  22.511  -2.428  0.00  0.00     0.288 A 
HETATM    5  C   UNK N   1      29.983  22.445  -3.567  0.00  0.00     0.090 A 
HETATM    6  C   UNK N   1      30.437  21.750  -4.686  0.00  0.00    -0.043 A 
HETATM    7  C   UNK N   1      31.697  21.132  -4.639  0.00  0.00     0.004 A 
HETATM    8  C   UNK N   1      32.218  20.416  -5.728  0.00  0.00     0.017 A 
HETATM    9  C   UNK N   1      33.481  19.818  -5.631  0.00  0.00     0.030 A 
HETATM   10  C   UNK N   1      29.570  21.682  -5.900  0.00  0.00     0.049 C 
HETATM   11  O   UNK N   1      31.981  21.918  -2.409  0.00  0.00    -0.275 OA
HETATM   12  O   UNK N   1      30.405  23.116  -1.446  0.00  0.00    -0.260 OA
ENDROOT
BRANCH   1  13
HETATM   13  N   UNK N   1      35.494  19.331  -4.356  0.00  0.00    -0.399 N 
HETATM   14  H   UNK N   1      35.584  18.425  -3.981  0.00  0.00     0.156 HD
HETATM   15  H   UNK N   1      36.294  19.817  -4.663  0.00  0.00     0.156 HD
ENDBRANCH   1  13
TORSDOF 1
ENDMDL
MODEL 3
REMARK VINA RESULT:      -5.6      2.722      3.931
REMARK  1 active torsions:
REMARK  status: ('A' for Active; 'I' for Inactive)
REMARK    1  A    between atoms: N_1  and  C_2 
ROOT
HETATM    1  C   UNK N   1      28.982  17.903   8.451  0.00  0.00     0.028 A 
HETATM    2  C   UNK N   1      30.230  18.306   8.926  0.00  0.00     0.067 A 
HETATM    3  C   UNK N   1      31.383  18.030   8.191  0.00  0.00     0.092 A 
HETATM    4  C   UNK N   1      33.699  18.188   8.003  0.00  0.00     0.288 A 
HETATM    5  C   UNK N   1      33.687  17.511   6.780  0.00  0.00     0.090 A 
HETATM    6  C   UNK N   1      32.473  17.080   6.250  0.00  0.00    -0.043 A 
HETATM    7  C   UNK N   1      31.290  17.340   6.961  0.00  0.00     0.004 A 
HETATM    8  C   UNK N   1      30.031  16.936   6.488  0.00  0.00     0.017 A 
HETATM    9  C   UNK N   1      28.881  17.219   7.235  0.00  0.00     0.030 A 
HETATM   10  C   UNK N   1      32.465  16.357   4.943  0.00  0.00     0.049 C 
HETATM   11  O   UNK N   1      32.565  18.421   8.657  0.00  0.00    -0.275 OA
HETATM   12  O   UNK N   1      34.755  18.568   8.474  0.00  0.00    -0.260 OA
ENDROOT
BRANCH   1  13
HETATM   13  N   UNK N   1      27.825  18.186   9.201  0.00  0.00    -0.399 N 
HETATM   14  H   UNK N   1      27.056  17.571   9.174  0.00  0.00     0.156 HD
HETATM   15  H   UNK N   1      27.783  19.000   9.754  0.00  0.00     0.156 HD
ENDBRANCH   1  13
TORSDOF 1
ENDMDL
MODEL 4
REMARK VINA RESULT:      -5.6     11.195     12.464
REMARK  1 active torsions:
REMARK  status: ('A' for Active; 'I' for Inactive)
REMARK    1  A    between atoms: N_1  and  C_2 
ROOT
HETATM    1  C   UNK N   1      35.195  12.520  18.897  0.00  0.00     0.028 A 
HETATM    2  C   UNK N   1      34.999  13.214  17.703  0.00  0.00     0.067 A 
HETATM    3  C   UNK N   1      35.008  12.532  16.486  0.00  0.00     0.092 A 
HETATM    4  C   UNK N   1      34.818  12.615  14.167  0.00  0.00     0.288 A 
HETATM    5  C   UNK N   1      35.017  11.235  14.059  0.00  0.00     0.090 A 
HETATM    6  C   UNK N   1      35.218  10.483  15.215  0.00  0.00    -0.043 A 
HETATM    7  C   UNK N   1      35.216  11.134  16.460  0.00  0.00     0.004 A 
HETATM    8  C   UNK N   1      35.412  10.441  17.665  0.00  0.00     0.017 A 
HETATM    9  C   UNK N   1      35.401  11.136  18.880  0.00  0.00     0.030 A 
HETATM   10  C   UNK N   1      35.430   9.009  15.096  0.00  0.00     0.049 C 
HETATM   11  O   UNK N   1      34.820  13.207  15.357  0.00  0.00    -0.275 OA
HETATM   12  O   UNK N   1      34.641  13.280  13.163  0.00  0.00    -0.260 OA
ENDROOT
BRANCH   1  13
HETATM   13  N   UNK N   1      35.184  13.218  20.120  0.00  0.00    -0.399 N 
HETATM   14  H   UNK N   1      35.791  13.981  20.258  0.00  0.00     0.156 HD
HETATM   15  H   UNK N   1      34.568  12.944  20.838  0.00  0.00     0.156 HD
ENDBRANCH   1  13
TORSDOF 1
ENDMDL
MODEL 5
REMARK VINA RESULT:      -5.4     11.009     11.995
REMARK  1 active torsions:
REMARK  status: ('A' for Active; 'I' for Inactive)
REMARK    1  A    between atoms: N_1  and  C_2 
ROOT
HETATM    1  C   UNK N   1      34.468  11.251  14.344  0.00  0.00     0.028 A 
HETATM    2  C   UNK N   1      34.572  12.480  14.995  0.00  0.00     0.067 A 
HETATM    3  C   UNK N   1      34.846  12.529  16.362  0.00  0.00     0.092 A 
HETATM    4  C   UNK N   1      35.200  13.820  18.267  0.00  0.00     0.288 A 
HETATM    5  C   UNK N   1      35.383  12.681  19.056  0.00  0.00     0.090 A 
HETATM    6  C   UNK N   1      35.292  11.421  18.467  0.00  0.00    -0.043 A 
HETATM    7  C   UNK N   1      35.018  11.331  17.093  0.00  0.00     0.004 A 
HETATM    8  C   UNK N   1      34.912  10.097  16.432  0.00  0.00     0.017 A 
HETATM    9  C   UNK N   1      34.637  10.060  15.059  0.00  0.00     0.030 A 
HETATM   10  C   UNK N   1      35.489  10.206  19.314  0.00  0.00     0.049 C 
HETATM   11  O   UNK N   1      34.942  13.708  16.968  0.00  0.00    -0.275 OA
HETATM   12  O   UNK N   1      35.278  14.925  18.773  0.00  0.00    -0.260 OA
ENDROOT
BRANCH   1  13
HETATM   13  N   UNK N   1      34.192  11.213  12.964  0.00  0.00    -0.399 N 
HETATM   14  H   UNK N   1      33.312  10.905  12.645  0.00  0.00     0.156 HD
HETATM   15  H   UNK N   1      34.878  11.494  12.316  0.00  0.00     0.156 HD
ENDBRANCH   1  13
TORSDOF 1
ENDMDL
MODEL 6
REMARK VINA RESULT:      -5.2     10.865     11.977
REMARK  1 active torsions:
REMARK  status: ('A' for Active; 'I' for Inactive)
REMARK    1  A    between atoms: N_1  and  C_2 
ROOT
HETATM    1  C   UNK N   1      36.488  13.543  14.336  0.00  0.00     0.028 A 
HETATM    2  C   UNK N   1      36.096  14.089  15.558  0.00  0.00     0.067 A 
HETATM    3  C   UNK N   1      35.819  13.257  16.642  0.00  0.00     0.092 A 
HETATM    4  C   UNK N   1      35.170  13.053  18.869  0.00  0.00     0.288 A 
HETATM    5  C   UNK N   1      35.262  11.659  18.811  0.00  0.00     0.090 A 
HETATM    6  C   UNK N   1      35.649  11.049  17.619  0.00  0.00    -0.043 A 
HETATM    7  C   UNK N   1      35.936  11.854  16.505  0.00  0.00     0.004 A 
HETATM    8  C   UNK N   1      36.331  11.311  15.273  0.00  0.00     0.017 A 
HETATM    9  C   UNK N   1      36.606  12.156  14.191  0.00  0.00     0.030 A 
HETATM   10  C   UNK N   1      35.746   9.560  17.562  0.00  0.00     0.049 C 
HETATM   11  O   UNK N   1      35.447  13.793  17.800  0.00  0.00    -0.275 OA
HETATM   12  O   UNK N   1      34.833  13.595  19.906  0.00  0.00    -0.260 OA
ENDROOT
BRANCH   1  13
HETATM   13  N   UNK N   1      36.765  14.393  13.248  0.00  0.00    -0.399 N 
HETATM   14  H   UNK N   1      37.625  14.323  12.774  0.00  0.00     0.156 HD
HETATM   15  H   UNK N   1      36.098  15.058  12.960  0.00  0.00     0.156 HD
ENDBRANCH   1  13
TORSDOF 1
ENDMDL
MODEL 7
REMARK VINA RESULT:      -5.2     15.113     16.173
REMARK  1 active torsions:
REMARK  status: ('A' for Active; 'I' for Inactive)
REMARK    1  A    between atoms: N_1  and  C_2 
ROOT
HETATM    1  C   UNK N   1      26.498  29.493  -4.075  0.00  0.00     0.028 A 
HETATM    2  C   UNK N   1      26.208  28.325  -3.369  0.00  0.00     0.067 A 
HETATM    3  C   UNK N   1      26.659  27.092  -3.837  0.00  0.00     0.092 A 
HETATM    4  C   UNK N   1      26.777  24.784  -3.548  0.00  0.00     0.288 A 
HETATM    5  C   UNK N   1      27.526  24.633  -4.719  0.00  0.00     0.090 A 
HETATM    6  C   UNK N   1      27.849  25.761  -5.471  0.00  0.00    -0.043 A 
HETATM    7  C   UNK N   1      27.413  27.021  -5.032  0.00  0.00     0.004 A 
HETATM    8  C   UNK N   1      27.701  28.199  -5.738  0.00  0.00     0.017 A 
HETATM    9  C   UNK N   1      27.243  29.432  -5.258  0.00  0.00     0.030 A 
HETATM   10  C   UNK N   1      28.650  25.595  -6.722  0.00  0.00     0.049 C 
HETATM   11  O   UNK N   1      26.376  25.988  -3.153  0.00  0.00    -0.275 OA
HETATM   12  O   UNK N   1      26.489  23.805  -2.884  0.00  0.00    -0.260 OA
ENDROOT
BRANCH   1  13
HETATM   13  N   UNK N   1      26.037  30.733  -3.593  0.00  0.00    -0.399 N 
HETATM   14  H   UNK N   1      25.073  30.931  -3.582  0.00  0.00     0.156 HD
HETATM   15  H   UNK N   1      26.680  31.403  -3.265  0.00  0.00     0.156 HD
ENDBRANCH   1  13
TORSDOF 1
ENDMDL
MODEL 8
REMARK VINA RESULT:      -5.2     11.978     13.334
REMARK  1 active torsions:
REMARK  status: ('A' for Active; 'I' for Inactive)
REMARK    1  A    between atoms: N_1  and  C_2 
ROOT
HETATM    1  C   UNK N   1      26.657  24.136  -5.635  0.00  0.00     0.028 A 
HETATM    2  C   UNK N   1      27.222  24.218  -4.363  0.00  0.00     0.067 A 
HETATM    3  C   UNK N   1      28.390  23.516  -4.067  0.00  0.00     0.092 A 
HETATM    4  C   UNK N   1      30.026  22.959  -2.507  0.00  0.00     0.288 A 
HETATM    5  C   UNK N   1      30.693  22.151  -3.433  0.00  0.00     0.090 A 
HETATM    6  C   UNK N   1      30.181  22.026  -4.723  0.00  0.00    -0.043 A 
HETATM    7  C   UNK N   1      29.006  22.718  -5.059  0.00  0.00     0.004 A 
HETATM    8  C   UNK N   1      28.433  22.640  -6.338  0.00  0.00     0.017 A 
HETATM    9  C   UNK N   1      27.260  23.349  -6.623  0.00  0.00     0.030 A 
HETATM   10  C   UNK N   1      30.896  21.161  -5.709  0.00  0.00     0.049 C 
HETATM   11  O   UNK N   1      28.916  23.603  -2.850  0.00  0.00    -0.275 OA
HETATM   12  O   UNK N   1      30.466  23.074  -1.378  0.00  0.00    -0.260 OA
ENDROOT
BRANCH   1  13
HETATM   13  N   UNK N   1      25.477  24.849  -5.923  0.00  0.00    -0.399 N 
HETATM   14  H   UNK N   1      24.945  25.239  -5.191  0.00  0.00     0.156 HD
HETATM   15  H   UNK N   1      25.183  24.959  -6.856  0.00  0.00     0.156 HD
ENDBRANCH   1  13
TORSDOF 1
ENDMDL
MODEL 9
REMARK VINA RESULT:      -5.2     17.046     18.074
REMARK  1 active torsions:
REMARK  status: ('A' for Active; 'I' for Inactive)
REMARK    1  A    between atoms: N_1  and  C_2 
ROOT
HETATM    1  C   UNK N   1      26.207  28.399  -4.590  0.00  0.00     0.028 A 
HETATM    2  C   UNK N   1      25.599  27.218  -5.017  0.00  0.00     0.067 A 
HETATM    3  C   UNK N   1      25.951  26.651  -6.241  0.00  0.00     0.092 A 
HETATM    4  C   UNK N   1      25.656  24.936  -7.789  0.00  0.00     0.288 A 
HETATM    5  C   UNK N   1      26.612  25.489  -8.646  0.00  0.00     0.090 A 
HETATM    6  C   UNK N   1      27.257  26.669  -8.279  0.00  0.00    -0.043 A 
HETATM    7  C   UNK N   1      26.928  27.271  -7.054  0.00  0.00     0.004 A 
HETATM    8  C   UNK N   1      27.537  28.458  -6.618  0.00  0.00     0.017 A 
HETATM    9  C   UNK N   1      27.174  29.019  -5.387  0.00  0.00     0.030 A 
HETATM   10  C   UNK N   1      28.277  27.256  -9.198  0.00  0.00     0.049 C 
HETATM   11  O   UNK N   1      25.363  25.525  -6.634  0.00  0.00    -0.275 OA
HETATM   12  O   UNK N   1      25.088  23.906  -8.101  0.00  0.00    -0.260 OA
ENDROOT
BRANCH   1  13
HETATM   13  N   UNK N   1      25.843  28.964  -3.352  0.00  0.00    -0.399 N 
HETATM   14  H   UNK N   1      25.925  28.435  -2.526  0.00  0.00     0.156 HD
HETATM   15  H   UNK N   1      25.505  29.888  -3.313  0.00  0.00     0.156 HD
ENDBRANCH   1  13
TORSDOF 1
ENDMDL
