REMARK  1 active torsions:
REMARK  status: ('A' for Active; 'I' for Inactive)
REMARK    1  A    between atoms: N_1  and  C_2 
ROOT
HETATM    1  C   UNK N   1      -2.025  -0.921  -0.000  0.00  0.00     0.028 A 
HETATM    2  C   UNK N   1      -0.821  -1.625   0.000  0.00  0.00     0.067 A 
HETATM    3  C   UNK N   1       0.393  -0.939   0.000  0.00  0.00     0.092 A 
HETATM    4  C   UNK N   1       2.720  -1.028   0.000  0.00  0.00     0.288 A 
HETATM    5  C   UNK N   1       2.815   0.367   0.000  0.00  0.00     0.090 A 
HETATM    6  C   UNK N   1       1.649   1.130   0.000  0.00  0.00    -0.043 A 
HETATM    7  C   UNK N   1       0.407   0.475   0.000  0.00  0.00     0.004 A 
HETATM    8  C   UNK N   1      -0.808   1.178  -0.000  0.00  0.00     0.017 A 
HETATM    9  C   UNK N   1      -2.021   0.478  -0.000  0.00  0.00     0.030 A 
HETATM   10  C   UNK N   1       1.755   2.620  -0.000  0.00  0.00     0.049 C 
HETATM   11  O   UNK N   1       1.532  -1.624   0.000  0.00  0.00    -0.275 OA
HETATM   12  O   UNK N   1       3.733  -1.703  -0.000  0.00  0.00    -0.260 OA
ENDROOT
BRANCH   1  13
HETATM   13  N   UNK N   1      -3.245  -1.624  -0.000  0.00  0.00    -0.399 N 
HETATM   14  H   UNK N   1      -4.098  -1.132  -0.000  0.00  0.00     0.156 HD
HETATM   15  H   UNK N   1      -3.246  -2.609  -0.000  0.00  0.00     0.156 HD
ENDBRANCH   1  13
TORSDOF 1
