MODEL 1
REMARK VINA RESULT:      -7.6      0.000      0.000
REMARK  3 active torsions:
REMARK  status: ('A' for Active; 'I' for Inactive)
REMARK    1  A    between atoms: C_3  and  C_4 
REMARK    2  A    between atoms: N_11  and  C_12 
REMARK    3  A    between atoms: C_17  and  C_18 
ROOT
HETATM    1  C   UNK N   1      35.124  15.752   9.765  0.00  0.00     0.073 C 
HETATM    2  O   UNK N   1      34.601  16.311  10.884  0.00  0.00    -0.363 OA
HETATM    3  C   UNK N   1      36.032  14.725   9.839  0.00  0.00     0.141 C 
HETATM    4  C   UNK N   1      36.641  14.112   8.682  0.00  0.00     0.107 C 
HETATM    5  N   UNK N   1      37.166  13.576   7.802  0.00  0.00    -0.191 NA
HETATM    6  C   UNK N   1      36.382  14.145  11.127  0.00  0.00     0.269 C 
HETATM    7  O   UNK N   1      37.153  13.192  11.197  0.00  0.00    -0.266 OA
HETATM    8  N   UNK N   1      35.723  14.599  12.204  0.00  0.00    -0.322 N 
HETATM    9  H   UNK N   1      34.756  15.927  11.724  0.00  0.00     0.217 HD
HETATM   10  H   UNK N   1      35.215  15.435  12.088  0.00  0.00     0.169 HD
ENDROOT
BRANCH   1  11
HETATM   11  C   UNK N   1      34.629  16.291   8.472  0.00  0.00     0.044 A 
HETATM   12  C   UNK N   1      33.472  17.241   8.656  0.00  0.00     0.012 A 
HETATM   13  C   UNK N   1      33.205  15.798   8.299  0.00  0.00     0.012 A 
ENDBRANCH   1  11
BRANCH   8  14
HETATM   14  C   UNK N   1      35.682  14.020  13.453  0.00  0.00     0.035 A 
HETATM   15  C   UNK N   1      34.841  12.928  13.636  0.00  0.00     0.030 A 
HETATM   16  C   UNK N   1      34.803  12.306  14.868  0.00  0.00     0.014 A 
HETATM   17  C   UNK N   1      35.623  12.786  15.898  0.00  0.00    -0.026 A 
HETATM   18  C   UNK N   1      36.488  13.856  15.678  0.00  0.00     0.014 A 
HETATM   19  C   UNK N   1      36.524  14.465  14.460  0.00  0.00     0.030 A 
BRANCH  17  20
HETATM   20  C   UNK N   1      35.560  12.236  17.229  0.00  0.00    -0.026 A 
HETATM   21  C   UNK N   1      35.280  13.046  18.330  0.00  0.00     0.012 A 
HETATM   22  C   UNK N   1      35.262  12.486  19.604  0.00  0.00     0.001 A 
HETATM   23  C   UNK N   1      35.533  11.124  19.773  0.00  0.00     0.000 A 
HETATM   24  C   UNK N   1      35.819  10.318  18.671  0.00  0.00     0.001 A 
HETATM   25  C   UNK N   1      35.832  10.874  17.406  0.00  0.00     0.012 A 
ENDBRANCH  17  20
ENDBRANCH   8  14
TORSDOF 3
ENDMDL
MODEL 2
REMARK VINA RESULT:      -7.5      0.221      1.447
REMARK  3 active torsions:
REMARK  status: ('A' for Active; 'I' for Inactive)
REMARK    1  A    between atoms: C_3  and  C_4 
REMARK    2  A    between atoms: N_11  and  C_12 
REMARK    3  A    between atoms: C_17  and  C_18 
ROOT
HETATM    1  C   UNK N   1      35.194  15.556   9.752  0.00  0.00     0.073 C 
HETATM    2  O   UNK N   1      34.588  16.091  10.841  0.00  0.00    -0.363 OA
HETATM    3  C   UNK N   1      36.172  14.601   9.879  0.00  0.00     0.141 C 
HETATM    4  C   UNK N   1      36.868  14.017   8.756  0.00  0.00     0.107 C 
HETATM    5  N   UNK N   1      37.463  13.508   7.906  0.00  0.00    -0.191 NA
HETATM    6  C   UNK N   1      36.515  14.069  11.189  0.00  0.00     0.269 C 
HETATM    7  O   UNK N   1      37.351  13.178  11.304  0.00  0.00    -0.266 OA
HETATM    8  N   UNK N   1      35.784  14.490  12.232  0.00  0.00    -0.322 N 
HETATM    9  H   UNK N   1      34.740  15.734  11.694  0.00  0.00     0.217 HD
HETATM   10  H   UNK N   1      35.220  15.283  12.083  0.00  0.00     0.169 HD
ENDROOT
BRANCH   1  11
HETATM   11  C   UNK N   1      34.709  16.036   8.433  0.00  0.00     0.044 A 
HETATM   12  C   UNK N   1      33.408  16.791   8.544  0.00  0.00     0.012 A 
HETATM   13  C   UNK N   1      33.394  15.332   8.156  0.00  0.00     0.012 A 
ENDBRANCH   1  11
BRANCH   8  14
HETATM   14  C   UNK N   1      35.739  13.928  13.490  0.00  0.00     0.035 A 
HETATM   15  C   UNK N   1      36.534  14.492  14.481  0.00  0.00     0.030 A 
HETATM   16  C   UNK N   1      36.487  13.972  15.760  0.00  0.00     0.014 A 
HETATM   17  C   UNK N   1      35.629  12.896  16.025  0.00  0.00    -0.026 A 
HETATM   18  C   UNK N   1      34.811  12.375  15.023  0.00  0.00     0.014 A 
HETATM   19  C   UNK N   1      34.860  12.893  13.765  0.00  0.00     0.030 A 
BRANCH  17  20
HETATM   20  C   UNK N   1      35.603  12.255  17.315  0.00  0.00    -0.026 A 
HETATM   21  C   UNK N   1      35.845  10.885  17.443  0.00  0.00     0.012 A 
HETATM   22  C   UNK N   1      35.776  10.294  18.700  0.00  0.00     0.001 A 
HETATM   23  C   UNK N   1      35.458  11.068  19.821  0.00  0.00     0.000 A 
HETATM   24  C   UNK N   1      35.211  12.434  19.690  0.00  0.00     0.001 A 
HETATM   25  C   UNK N   1      35.283  13.022  18.441  0.00  0.00     0.012 A 
ENDBRANCH  17  20
ENDBRANCH   8  14
TORSDOF 3
ENDMDL
MODEL 3
REMARK VINA RESULT:      -7.3      8.126     12.056
REMARK  3 active torsions:
REMARK  status: ('A' for Active; 'I' for Inactive)
REMARK    1  A    between atoms: C_3  and  C_4 
REMARK    2  A    between atoms: N_11  and  C_12 
REMARK    3  A    between atoms: C_17  and  C_18 
ROOT
HETATM    1  C   UNK N   1      24.282  18.283   4.655  0.00  0.00     0.073 C 
HETATM    2  O   UNK N   1      24.498  17.493   5.736  0.00  0.00    -0.363 OA
HETATM    3  C   UNK N   1      25.219  19.196   4.240  0.00  0.00     0.141 C 
HETATM    4  C   UNK N   1      25.030  20.080   3.114  0.00  0.00     0.107 C 
HETATM    5  N   UNK N   1      24.947  20.815   2.225  0.00  0.00    -0.191 NA
HETATM    6  C   UNK N   1      26.515  19.269   4.899  0.00  0.00     0.269 C 
HETATM    7  O   UNK N   1      27.377  20.046   4.500  0.00  0.00    -0.266 OA
HETATM    8  N   UNK N   1      26.770  18.362   5.854  0.00  0.00    -0.322 N 
HETATM    9  H   UNK N   1      25.339  17.470   6.147  0.00  0.00     0.217 HD
HETATM   10  H   UNK N   1      25.998  17.856   6.197  0.00  0.00     0.169 HD
ENDROOT
BRANCH   1  11
HETATM   11  C   UNK N   1      22.999  18.071   3.937  0.00  0.00     0.044 A 
HETATM   12  C   UNK N   1      22.048  17.195   4.714  0.00  0.00     0.012 A 
HETATM   13  C   UNK N   1      22.900  16.590   3.624  0.00  0.00     0.012 A 
ENDBRANCH   1  11
BRANCH   8  14
HETATM   14  C   UNK N   1      27.998  18.064   6.404  0.00  0.00     0.035 A 
HETATM   15  C   UNK N   1      28.276  18.556   7.675  0.00  0.00     0.030 A 
HETATM   16  C   UNK N   1      29.485  18.248   8.266  0.00  0.00     0.014 A 
HETATM   17  C   UNK N   1      30.394  17.437   7.572  0.00  0.00    -0.026 A 
HETATM   18  C   UNK N   1      30.074  16.922   6.317  0.00  0.00     0.014 A 
HETATM   19  C   UNK N   1      28.880  17.228   5.740  0.00  0.00     0.030 A 
BRANCH  17  20
HETATM   20  C   UNK N   1      31.706  17.156   8.100  0.00  0.00    -0.026 A 
HETATM   21  C   UNK N   1      32.733  18.097   8.012  0.00  0.00     0.012 A 
HETATM   22  C   UNK N   1      33.996  17.777   8.500  0.00  0.00     0.001 A 
HETATM   23  C   UNK N   1      34.230  16.518   9.064  0.00  0.00     0.000 A 
HETATM   24  C   UNK N   1      33.204  15.577   9.143  0.00  0.00     0.001 A 
HETATM   25  C   UNK N   1      31.949  15.897   8.662  0.00  0.00     0.012 A 
ENDBRANCH  17  20
ENDBRANCH   8  14
TORSDOF 3
ENDMDL
MODEL 4
REMARK VINA RESULT:      -7.1      2.719      9.250
REMARK  3 active torsions:
REMARK  status: ('A' for Active; 'I' for Inactive)
REMARK    1  A    between atoms: C_3  and  C_4 
REMARK    2  A    between atoms: N_11  and  C_12 
REMARK    3  A    between atoms: C_17  and  C_18 
ROOT
HETATM    1  C   UNK N   1      35.109  12.224  13.014  0.00  0.00     0.073 C 
HETATM    2  O   UNK N   1      34.515  11.664  11.932  0.00  0.00    -0.363 OA
HETATM    3  C   UNK N   1      35.619  13.498  12.968  0.00  0.00     0.141 C 
HETATM    4  C   UNK N   1      36.285  14.133  14.080  0.00  0.00     0.107 C 
HETATM    5  N   UNK N   1      36.827  14.702  14.929  0.00  0.00    -0.191 NA
HETATM    6  C   UNK N   1      35.445  14.316  11.777  0.00  0.00     0.269 C 
HETATM    7  O   UNK N   1      35.851  15.474  11.747  0.00  0.00    -0.266 OA
HETATM    8  N   UNK N   1      34.705  13.802  10.783  0.00  0.00    -0.322 N 
HETATM    9  H   UNK N   1      34.332  12.178  11.171  0.00  0.00     0.217 HD
HETATM   10  H   UNK N   1      34.516  12.837  10.829  0.00  0.00     0.169 HD
ENDROOT
BRANCH   1  11
HETATM   11  C   UNK N   1      35.138  11.395  14.247  0.00  0.00     0.044 A 
HETATM   12  C   UNK N   1      34.390  10.096  14.078  0.00  0.00     0.012 A 
HETATM   13  C   UNK N   1      33.708  11.271  14.736  0.00  0.00     0.012 A 
ENDBRANCH   1  11
BRANCH   8  14
HETATM   14  C   UNK N   1      34.181  14.484   9.705  0.00  0.00     0.035 A 
HETATM   15  C   UNK N   1      32.857  14.900   9.782  0.00  0.00     0.030 A 
HETATM   16  C   UNK N   1      32.313  15.612   8.731  0.00  0.00     0.014 A 
HETATM   17  C   UNK N   1      33.116  15.907   7.622  0.00  0.00    -0.026 A 
HETATM   18  C   UNK N   1      34.453  15.514   7.587  0.00  0.00     0.014 A 
HETATM   19  C   UNK N   1      34.985  14.814   8.626  0.00  0.00     0.030 A 
BRANCH  17  20
HETATM   20  C   UNK N   1      32.580  16.568   6.458  0.00  0.00    -0.026 A 
HETATM   21  C   UNK N   1      31.202  16.718   6.287  0.00  0.00     0.012 A 
HETATM   22  C   UNK N   1      30.720  17.330   5.135  0.00  0.00     0.001 A 
HETATM   23  C   UNK N   1      31.612  17.780   4.156  0.00  0.00     0.000 A 
HETATM   24  C   UNK N   1      32.987  17.623   4.326  0.00  0.00     0.001 A 
HETATM   25  C   UNK N   1      33.466  17.018   5.473  0.00  0.00     0.012 A 
ENDBRANCH  17  20
ENDBRANCH   8  14
TORSDOF 3
ENDMDL
MODEL 5
REMARK VINA RESULT:      -6.8     13.036     17.563
REMARK  3 active torsions:
REMARK  status: ('A' for Active; 'I' for Inactive)
REMARK    1  A    between atoms: C_3  and  C_4 
REMARK    2  A    between atoms: N_11  and  C_12 
REMARK    3  A    between atoms: C_17  and  C_18 
ROOT
HETATM    1  C   UNK N   1      22.619  12.689  10.611  0.00  0.00     0.073 C 
HETATM    2  O   UNK N   1      23.547  13.401   9.925  0.00  0.00    -0.363 OA
HETATM    3  C   UNK N   1      21.281  12.980  10.512  0.00  0.00     0.141 C 
HETATM    4  C   UNK N   1      20.253  12.274  11.240  0.00  0.00     0.107 C 
HETATM    5  N   UNK N   1      19.380  11.751  11.789  0.00  0.00    -0.191 NA
HETATM    6  C   UNK N   1      20.818  14.006   9.589  0.00  0.00     0.269 C 
HETATM    7  O   UNK N   1      19.620  14.235   9.456  0.00  0.00    -0.266 OA
HETATM    8  N   UNK N   1      21.738  14.578   8.797  0.00  0.00    -0.322 N 
HETATM    9  H   UNK N   1      23.285  14.026   9.279  0.00  0.00     0.217 HD
HETATM   10  H   UNK N   1      22.681  14.431   9.040  0.00  0.00     0.169 HD
ENDROOT
BRANCH   1  11
HETATM   11  C   UNK N   1      23.134  11.564  11.433  0.00  0.00     0.044 A 
HETATM   12  C   UNK N   1      23.307  11.948  12.881  0.00  0.00     0.012 A 
HETATM   13  C   UNK N   1      24.498  11.978  11.953  0.00  0.00     0.012 A 
ENDBRANCH   1  11
BRANCH   8  14
HETATM   14  C   UNK N   1      21.502  15.348   7.679  0.00  0.00     0.035 A 
HETATM   15  C   UNK N   1      21.704  14.764   6.433  0.00  0.00     0.030 A 
HETATM   16  C   UNK N   1      21.446  15.500   5.294  0.00  0.00     0.014 A 
HETATM   17  C   UNK N   1      20.974  16.813   5.426  0.00  0.00    -0.026 A 
HETATM   18  C   UNK N   1      20.740  17.362   6.686  0.00  0.00     0.014 A 
HETATM   19  C   UNK N   1      20.995  16.631   7.805  0.00  0.00     0.030 A 
BRANCH  17  20
HETATM   20  C   UNK N   1      20.772  17.660   4.276  0.00  0.00    -0.026 A 
HETATM   21  C   UNK N   1      21.139  19.007   4.301  0.00  0.00     0.012 A 
HETATM   22  C   UNK N   1      20.896  19.801   3.185  0.00  0.00     0.001 A 
HETATM   23  C   UNK N   1      20.282  19.251   2.055  0.00  0.00     0.000 A 
HETATM   24  C   UNK N   1      19.911  17.907   2.035  0.00  0.00     0.001 A 
HETATM   25  C   UNK N   1      20.156  17.117   3.143  0.00  0.00     0.012 A 
ENDBRANCH  17  20
ENDBRANCH   8  14
TORSDOF 3
ENDMDL
MODEL 6
REMARK VINA RESULT:      -6.8      9.518     14.724
REMARK  3 active torsions:
REMARK  status: ('A' for Active; 'I' for Inactive)
REMARK    1  A    between atoms: C_3  and  C_4 
REMARK    2  A    between atoms: N_11  and  C_12 
REMARK    3  A    between atoms: C_17  and  C_18 
ROOT
HETATM    1  C   UNK N   1      31.156  17.091   4.598  0.00  0.00     0.073 C 
HETATM    2  O   UNK N   1      30.646  17.538   3.424  0.00  0.00    -0.363 OA
HETATM    3  C   UNK N   1      30.486  17.272   5.782  0.00  0.00     0.141 C 
HETATM    4  C   UNK N   1      30.995  16.841   7.063  0.00  0.00     0.107 C 
HETATM    5  N   UNK N   1      31.339  16.522   8.119  0.00  0.00    -0.191 NA
HETATM    6  C   UNK N   1      29.158  17.869   5.791  0.00  0.00     0.269 C 
HETATM    7  O   UNK N   1      28.531  17.986   6.839  0.00  0.00    -0.266 OA
HETATM    8  N   UNK N   1      28.603  18.147   4.602  0.00  0.00    -0.322 N 
HETATM    9  H   UNK N   1      29.772  17.872   3.382  0.00  0.00     0.217 HD
HETATM   10  H   UNK N   1      29.205  18.137   3.822  0.00  0.00     0.169 HD
ENDROOT
BRANCH   1  11
HETATM   11  C   UNK N   1      32.451  16.367   4.514  0.00  0.00     0.044 A 
HETATM   12  C   UNK N   1      32.922  16.204   3.090  0.00  0.00     0.012 A 
HETATM   13  C   UNK N   1      32.191  15.071   3.770  0.00  0.00     0.012 A 
ENDBRANCH   1  11
BRANCH   8  14
HETATM   14  C   UNK N   1      27.280  18.444   4.357  0.00  0.00     0.035 A 
HETATM   15  C   UNK N   1      26.385  17.385   4.256  0.00  0.00     0.030 A 
HETATM   16  C   UNK N   1      25.047  17.653   4.042  0.00  0.00     0.014 A 
HETATM   17  C   UNK N   1      24.627  18.986   3.945  0.00  0.00    -0.026 A 
HETATM   18  C   UNK N   1      25.538  20.031   4.092  0.00  0.00     0.014 A 
HETATM   19  C   UNK N   1      26.855  19.762   4.304  0.00  0.00     0.030 A 
BRANCH  17  20
HETATM   20  C   UNK N   1      23.261  19.324   3.634  0.00  0.00    -0.026 A 
HETATM   21  C   UNK N   1      22.204  18.517   4.062  0.00  0.00     0.012 A 
HETATM   22  C   UNK N   1      20.901  18.856   3.712  0.00  0.00     0.001 A 
HETATM   23  C   UNK N   1      20.659  19.992   2.931  0.00  0.00     0.000 A 
HETATM   24  C   UNK N   1      21.716  20.792   2.500  0.00  0.00     0.001 A 
HETATM   25  C   UNK N   1      23.010  20.457   2.851  0.00  0.00     0.012 A 
ENDBRANCH  17  20
ENDBRANCH   8  14
TORSDOF 3
ENDMDL
MODEL 7
REMARK VINA RESULT:      -6.7      1.442      2.551
REMARK  3 active torsions:
REMARK  status: ('A' for Active; 'I' for Inactive)
REMARK    1  A    between atoms: C_3  and  C_4 
REMARK    2  A    between atoms: N_11  and  C_12 
REMARK    3  A    between atoms: C_17  and  C_18 
ROOT
HETATM    1  C   UNK N   1      36.356  13.356   9.035  0.00  0.00     0.073 C 
HETATM    2  O   UNK N   1      36.802  12.281   9.732  0.00  0.00    -0.363 OA
HETATM    3  C   UNK N   1      35.431  14.218   9.569  0.00  0.00     0.141 C 
HETATM    4  C   UNK N   1      34.901  15.360   8.863  0.00  0.00     0.107 C 
HETATM    5  N   UNK N   1      34.437  16.291   8.358  0.00  0.00    -0.191 NA
HETATM    6  C   UNK N   1      34.977  14.050  10.942  0.00  0.00     0.269 C 
HETATM    7  O   UNK N   1      34.190  14.847  11.444  0.00  0.00    -0.266 OA
HETATM    8  N   UNK N   1      35.560  13.083  11.667  0.00  0.00    -0.322 N 
HETATM    9  H   UNK N   1      36.579  12.175  10.635  0.00  0.00     0.217 HD
HETATM   10  H   UNK N   1      36.087  12.417  11.169  0.00  0.00     0.169 HD
ENDROOT
BRANCH   1  11
HETATM   11  C   UNK N   1      36.954  13.557   7.690  0.00  0.00     0.044 A 
HETATM   12  C   UNK N   1      36.125  12.931   6.597  0.00  0.00     0.012 A 
HETATM   13  C   UNK N   1      37.316  12.186   7.152  0.00  0.00     0.012 A 
ENDBRANCH   1  11
BRANCH   8  14
HETATM   14  C   UNK N   1      35.498  12.925  13.035  0.00  0.00     0.035 A 
HETATM   15  C   UNK N   1      34.628  11.965  13.538  0.00  0.00     0.030 A 
HETATM   16  C   UNK N   1      34.568  11.761  14.903  0.00  0.00     0.014 A 
HETATM   17  C   UNK N   1      35.396  12.519  15.741  0.00  0.00    -0.026 A 
HETATM   18  C   UNK N   1      36.290  13.446  15.208  0.00  0.00     0.014 A 
HETATM   19  C   UNK N   1      36.347  13.642  13.862  0.00  0.00     0.030 A 
BRANCH  17  20
HETATM   20  C   UNK N   1      35.313  12.414  17.176  0.00  0.00    -0.026 A 
HETATM   21  C   UNK N   1      35.199  13.553  17.976  0.00  0.00     0.012 A 
HETATM   22  C   UNK N   1      35.158  13.415  19.360  0.00  0.00     0.001 A 
HETATM   23  C   UNK N   1      35.238  12.144  19.938  0.00  0.00     0.000 A 
HETATM   24  C   UNK N   1      35.358  11.008  19.138  0.00  0.00     0.001 A 
HETATM   25  C   UNK N   1      35.395  11.146  17.763  0.00  0.00     0.012 A 
ENDBRANCH  17  20
ENDBRANCH   8  14
TORSDOF 3
ENDMDL
MODEL 8
REMARK VINA RESULT:      -6.7      3.753      8.970
REMARK  3 active torsions:
REMARK  status: ('A' for Active; 'I' for Inactive)
REMARK    1  A    between atoms: C_3  and  C_4 
REMARK    2  A    between atoms: N_11  and  C_12 
REMARK    3  A    between atoms: C_17  and  C_18 
ROOT
HETATM    1  C   UNK N   1      37.496  13.716  10.278  0.00  0.00     0.073 C 
HETATM    2  O   UNK N   1      37.386  14.340   9.079  0.00  0.00    -0.363 OA
HETATM    3  C   UNK N   1      36.573  13.917  11.273  0.00  0.00     0.141 C 
HETATM    4  C   UNK N   1      36.655  13.302  12.577  0.00  0.00     0.107 C 
HETATM    5  N   UNK N   1      36.658  12.843  13.638  0.00  0.00    -0.191 NA
HETATM    6  C   UNK N   1      35.394  14.736  11.028  0.00  0.00     0.269 C 
HETATM    7  O   UNK N   1      34.538  14.878  11.896  0.00  0.00    -0.266 OA
HETATM    8  N   UNK N   1      35.220  15.202   9.782  0.00  0.00    -0.322 N 
HETATM    9  H   UNK N   1      36.614  14.825   8.864  0.00  0.00     0.217 HD
HETATM   10  H   UNK N   1      35.998  15.149   9.180  0.00  0.00     0.169 HD
ENDROOT
BRANCH   1  11
HETATM   11  C   UNK N   1      38.644  12.785  10.427  0.00  0.00     0.044 A 
HETATM   12  C   UNK N   1      39.275  12.440   9.102  0.00  0.00     0.012 A 
HETATM   13  C   UNK N   1      38.270  11.497   9.719  0.00  0.00     0.012 A 
ENDBRANCH   1  11
BRANCH   8  14
HETATM   14  C   UNK N   1      34.068  15.747   9.257  0.00  0.00     0.035 A 
HETATM   15  C   UNK N   1      34.032  17.122   9.060  0.00  0.00     0.030 A 
HETATM   16  C   UNK N   1      32.903  17.693   8.505  0.00  0.00     0.014 A 
HETATM   17  C   UNK N   1      31.830  16.867   8.146  0.00  0.00    -0.026 A 
HETATM   18  C   UNK N   1      31.908  15.486   8.316  0.00  0.00     0.014 A 
HETATM   19  C   UNK N   1      33.023  14.928   8.861  0.00  0.00     0.030 A 
BRANCH  17  20
HETATM   20  C   UNK N   1      30.593  17.414   7.647  0.00  0.00    -0.026 A 
HETATM   21  C   UNK N   1      30.187  17.191   6.330  0.00  0.00     0.012 A 
HETATM   22  C   UNK N   1      29.004  17.764   5.874  0.00  0.00     0.001 A 
HETATM   23  C   UNK N   1      28.239  18.565   6.729  0.00  0.00     0.000 A 
HETATM   24  C   UNK N   1      28.651  18.792   8.041  0.00  0.00     0.001 A 
HETATM   25  C   UNK N   1      29.823  18.219   8.496  0.00  0.00     0.012 A 
ENDBRANCH  17  20
ENDBRANCH   8  14
TORSDOF 3
ENDMDL
MODEL 9
REMARK VINA RESULT:      -6.3     19.766     21.075
REMARK  3 active torsions:
REMARK  status: ('A' for Active; 'I' for Inactive)
REMARK    1  A    between atoms: C_3  and  C_4 
REMARK    2  A    between atoms: N_11  and  C_12 
REMARK    3  A    between atoms: C_17  and  C_18 
ROOT
HETATM    1  C   UNK N   1      52.247  28.280  12.766  0.00  0.00     0.073 C 
HETATM    2  O   UNK N   1      51.965  27.563  11.650  0.00  0.00    -0.363 OA
HETATM    3  C   UNK N   1      52.460  27.665  13.974  0.00  0.00     0.141 C 
HETATM    4  C   UNK N   1      52.736  28.380  15.197  0.00  0.00     0.107 C 
HETATM    5  N   UNK N   1      52.963  28.887  16.212  0.00  0.00    -0.191 NA
HETATM    6  C   UNK N   1      52.482  26.212  14.065  0.00  0.00     0.269 C 
HETATM    7  O   UNK N   1      52.724  25.655  15.131  0.00  0.00    -0.266 OA
HETATM    8  N   UNK N   1      52.371  25.524  12.918  0.00  0.00    -0.322 N 
HETATM    9  H   UNK N   1      52.030  26.628  11.656  0.00  0.00     0.217 HD
HETATM   10  H   UNK N   1      52.064  26.029  12.130  0.00  0.00     0.169 HD
ENDROOT
BRANCH   1  11
HETATM   11  C   UNK N   1      52.348  29.752  12.588  0.00  0.00     0.044 A 
HETATM   12  C   UNK N   1      52.416  30.148  11.134  0.00  0.00     0.012 A 
HETATM   13  C   UNK N   1      53.689  30.034  11.938  0.00  0.00     0.012 A 
ENDBRANCH   1  11
BRANCH   8  14
HETATM   14  C   UNK N   1      52.642  24.186  12.728  0.00  0.00     0.035 A 
HETATM   15  C   UNK N   1      51.596  23.284  12.883  0.00  0.00     0.030 A 
HETATM   16  C   UNK N   1      51.829  21.940  12.667  0.00  0.00     0.014 A 
HETATM   17  C   UNK N   1      53.112  21.525  12.286  0.00  0.00    -0.026 A 
HETATM   18  C   UNK N   1      54.133  22.454  12.097  0.00  0.00     0.014 A 
HETATM   19  C   UNK N   1      53.898  23.778  12.309  0.00  0.00     0.030 A 
BRANCH  17  20
HETATM   20  C   UNK N   1      53.437  20.129  12.134  0.00  0.00    -0.026 A 
HETATM   21  C   UNK N   1      53.346  19.499  10.891  0.00  0.00     0.012 A 
HETATM   22  C   UNK N   1      53.634  18.142  10.790  0.00  0.00     0.001 A 
HETATM   23  C   UNK N   1      54.001  17.418  11.930  0.00  0.00     0.000 A 
HETATM   24  C   UNK N   1      54.085  18.047  13.171  0.00  0.00     0.001 A 
HETATM   25  C   UNK N   1      53.803  19.397  13.270  0.00  0.00     0.012 A 
ENDBRANCH  17  20
ENDBRANCH   8  14
TORSDOF 3
ENDMDL
