MODEL 1
REMARK VINA RESULT:      -7.5      0.000      0.000
REMARK  7 active torsions:
REMARK  status: ('A' for Active; 'I' for Inactive)
REMARK    1  A    between atoms: C_2  and  O_3 
REMARK    2  A    between atoms: C_4  and  O_5 
REMARK    3  A    between atoms: C_9  and  C_10 
REMARK       I    between atoms: C_10  and  N_12 
REMARK    4  A    between atoms: N_12  and  O_13 
REMARK    5  A    between atoms: N_17  and  S_18 
REMARK    6  A    between atoms: S_18  and  C_21 
REMARK    7  A    between atoms: C_24  and  O_25 
ROOT
HETATM    1  C   UNK N   1      24.950  19.251   3.682  0.00  0.00     0.047 A 
HETATM    2  C   UNK N   1      24.134  20.164   3.020  0.00  0.00     0.099 A 
HETATM    3  C   UNK N   1      22.743  19.990   3.014  0.00  0.00     0.101 A 
HETATM    4  C   UNK N   1      22.183  18.881   3.680  0.00  0.00     0.049 A 
HETATM    5  C   UNK N   1      22.996  17.964   4.370  0.00  0.00    -0.021 A 
HETATM    6  C   UNK N   1      22.373  16.775   5.125  0.00  0.00     0.202 C 
HETATM    7  C   UNK N   1      24.397  18.161   4.355  0.00  0.00    -0.046 A 
HETATM    8  C   UNK N   1      25.322  17.196   5.014  0.00  0.00     0.055 C 
HETATM    9  C   UNK N   1      24.622  15.871   5.203  0.00  0.00     0.113 C 
HETATM   10  N   UNK N   1      23.391  16.081   5.959  0.00  0.00    -0.188 NA
ENDROOT
BRANCH  10  11
HETATM   11  S   UNK N   1      22.869  14.480   6.562  0.00  0.00     0.244 S 
HETATM   12  O   UNK N   1      23.092  13.440   5.449  0.00  0.00    -0.206 OA
HETATM   13  O   UNK N   1      24.352  14.320   6.941  0.00  0.00    -0.206 OA
BRANCH  11  14
HETATM   14  C   UNK N   1      22.628  13.728   8.181  0.00  0.00     0.074 A 
HETATM   15  C   UNK N   1      21.449  13.918   8.909  0.00  0.00     0.027 A 
HETATM   16  C   UNK N   1      21.302  13.328  10.172  0.00  0.00     0.038 A 
HETATM   17  C   UNK N   1      22.327  12.540  10.711  0.00  0.00     0.068 A 
HETATM   18  C   UNK N   1      23.500  12.335   9.968  0.00  0.00     0.038 A 
HETATM   19  C   UNK N   1      23.646  12.921   8.712  0.00  0.00     0.027 A 
BRANCH  17  20
HETATM   20  O   UNK N   1      22.166  11.995  11.941  0.00  0.00    -0.356 OA
HETATM   21  C   UNK N   1      23.183  11.915  12.868  0.00  0.00     0.210 C 
ENDBRANCH  17  20
ENDBRANCH  11  14
ENDBRANCH  10  11
BRANCH   6  22
HETATM   22  C   UNK N   1      21.237  17.274   6.003  0.00  0.00     0.264 C 
HETATM   23  O   UNK N   1      20.134  16.752   5.951  0.00  0.00    -0.269 OA
HETATM   24  N   UNK N   1      21.453  18.309   6.851  0.00  0.00    -0.236 N 
HETATM   25  H   UNK N   1      22.343  18.727   6.890  0.00  0.00     0.197 HD
BRANCH  24  26
HETATM   26  O   UNK N   1      20.471  18.774   7.636  0.00  0.00    -0.287 OA
HETATM   27  H   UNK N   1      19.761  18.233   8.017  0.00  0.00     0.244 HD
ENDBRANCH  24  26
ENDBRANCH   6  22
BRANCH   3  28
HETATM   28  O   UNK N   1      21.967  20.899   2.378  0.00  0.00    -0.353 OA
HETATM   29  C   UNK N   1      20.893  20.557   1.588  0.00  0.00     0.210 C 
ENDBRANCH   3  28
BRANCH   2  30
HETATM   30  O   UNK N   1      24.689  21.213   2.390  0.00  0.00    -0.358 OA
HETATM   31  H   UNK N   1      25.558  21.167   2.044  0.00  0.00     0.217 HD
ENDBRANCH   2  30
TORSDOF 7
ENDMDL
MODEL 2
REMARK VINA RESULT:      -7.4      5.747      9.744
REMARK  7 active torsions:
REMARK  status: ('A' for Active; 'I' for Inactive)
REMARK    1  A    between atoms: C_2  and  O_3 
REMARK    2  A    between atoms: C_4  and  O_5 
REMARK    3  A    between atoms: C_9  and  C_10 
REMARK       I    between atoms: C_10  and  N_12 
REMARK    4  A    between atoms: N_12  and  O_13 
REMARK    5  A    between atoms: N_17  and  S_18 
REMARK    6  A    between atoms: S_18  and  C_21 
REMARK    7  A    between atoms: C_24  and  O_25 
ROOT
HETATM    1  C   UNK N   1      31.387  17.376   8.589  0.00  0.00     0.047 A 
HETATM    2  C   UNK N   1      32.450  16.475   8.597  0.00  0.00     0.099 A 
HETATM    3  C   UNK N   1      32.581  15.533   7.569  0.00  0.00     0.101 A 
HETATM    4  C   UNK N   1      31.627  15.505   6.532  0.00  0.00     0.049 A 
HETATM    5  C   UNK N   1      30.562  16.423   6.501  0.00  0.00    -0.021 A 
HETATM    6  C   UNK N   1      29.543  16.409   5.346  0.00  0.00     0.202 C 
HETATM    7  C   UNK N   1      30.450  17.360   7.555  0.00  0.00    -0.046 A 
HETATM    8  C   UNK N   1      29.314  18.323   7.620  0.00  0.00     0.055 C 
HETATM    9  C   UNK N   1      28.174  17.820   6.765  0.00  0.00     0.113 C 
HETATM   10  N   UNK N   1      28.654  17.599   5.405  0.00  0.00    -0.188 NA
ENDROOT
BRANCH  10  11
HETATM   11  S   UNK N   1      27.210  17.482   4.355  0.00  0.00     0.244 S 
HETATM   12  O   UNK N   1      26.860  15.995   4.167  0.00  0.00    -0.206 OA
HETATM   13  O   UNK N   1      26.444  17.442   5.689  0.00  0.00    -0.206 OA
BRANCH  11  14
HETATM   14  C   UNK N   1      25.859  18.580   3.894  0.00  0.00     0.074 A 
HETATM   15  C   UNK N   1      24.525  18.251   4.158  0.00  0.00     0.027 A 
HETATM   16  C   UNK N   1      23.499  19.124   3.772  0.00  0.00     0.038 A 
HETATM   17  C   UNK N   1      23.797  20.331   3.126  0.00  0.00     0.068 A 
HETATM   18  C   UNK N   1      25.138  20.666   2.881  0.00  0.00     0.038 A 
HETATM   19  C   UNK N   1      26.159  19.798   3.266  0.00  0.00     0.027 A 
BRANCH  17  20
HETATM   20  O   UNK N   1      22.785  21.148   2.749  0.00  0.00    -0.356 OA
HETATM   21  C   UNK N   1      21.496  20.705   2.546  0.00  0.00     0.210 C 
ENDBRANCH  17  20
ENDBRANCH  11  14
ENDBRANCH  10  11
BRANCH   6  22
HETATM   22  C   UNK N   1      30.286  16.381   4.019  0.00  0.00     0.264 C 
HETATM   23  O   UNK N   1      30.166  15.434   3.259  0.00  0.00    -0.269 OA
HETATM   24  N   UNK N   1      31.087  17.421   3.681  0.00  0.00    -0.236 N 
HETATM   25  H   UNK N   1      31.180  18.182   4.297  0.00  0.00     0.197 HD
BRANCH  24  26
HETATM   26  O   UNK N   1      31.757  17.425   2.520  0.00  0.00    -0.287 OA
HETATM   27  H   UNK N   1      31.689  16.739   1.837  0.00  0.00     0.244 HD
ENDBRANCH  24  26
ENDBRANCH   6  22
BRANCH   3  28
HETATM   28  O   UNK N   1      33.630  14.677   7.587  0.00  0.00    -0.353 OA
HETATM   29  C   UNK N   1      34.758  14.846   6.817  0.00  0.00     0.210 C 
ENDBRANCH   3  28
BRANCH   2  30
HETATM   30  O   UNK N   1      33.347  16.518   9.596  0.00  0.00    -0.358 OA
HETATM   31  H   UNK N   1      34.146  16.032   9.552  0.00  0.00     0.217 HD
ENDBRANCH   2  30
TORSDOF 7
ENDMDL
MODEL 3
REMARK VINA RESULT:      -7.2      2.474      3.346
REMARK  7 active torsions:
REMARK  status: ('A' for Active; 'I' for Inactive)
REMARK    1  A    between atoms: C_2  and  O_3 
REMARK    2  A    between atoms: C_4  and  O_5 
REMARK    3  A    between atoms: C_9  and  C_10 
REMARK       I    between atoms: C_10  and  N_12 
REMARK    4  A    between atoms: N_12  and  O_13 
REMARK    5  A    between atoms: N_17  and  S_18 
REMARK    6  A    between atoms: S_18  and  C_21 
REMARK    7  A    between atoms: C_24  and  O_25 
ROOT
HETATM    1  C   UNK N   1      20.351  16.203   1.284  0.00  0.00     0.047 A 
HETATM    2  C   UNK N   1      20.294  17.595   1.287  0.00  0.00     0.099 A 
HETATM    3  C   UNK N   1      20.338  18.298   2.498  0.00  0.00     0.101 A 
HETATM    4  C   UNK N   1      20.435  17.583   3.709  0.00  0.00     0.049 A 
HETATM    5  C   UNK N   1      20.515  16.179   3.717  0.00  0.00    -0.021 A 
HETATM    6  C   UNK N   1      20.657  15.407   5.042  0.00  0.00     0.202 C 
HETATM    7  C   UNK N   1      20.463  15.494   2.480  0.00  0.00    -0.046 A 
HETATM    8  C   UNK N   1      20.482  14.005   2.417  0.00  0.00     0.055 C 
HETATM    9  C   UNK N   1      20.073  13.435   3.756  0.00  0.00     0.113 C 
HETATM   10  N   UNK N   1      20.950  13.970   4.793  0.00  0.00    -0.188 NA
ENDROOT
BRANCH  10  11
HETATM   11  S   UNK N   1      20.752  12.926   6.232  0.00  0.00     0.244 S 
HETATM   12  O   UNK N   1      19.927  11.689   5.831  0.00  0.00    -0.206 OA
HETATM   13  O   UNK N   1      21.999  12.211   5.685  0.00  0.00    -0.206 OA
BRANCH  11  14
HETATM   14  C   UNK N   1      21.616  12.710   7.798  0.00  0.00     0.074 A 
HETATM   15  C   UNK N   1      21.255  13.432   8.940  0.00  0.00     0.027 A 
HETATM   16  C   UNK N   1      21.959  13.248  10.137  0.00  0.00     0.038 A 
HETATM   17  C   UNK N   1      23.022  12.337  10.204  0.00  0.00     0.068 A 
HETATM   18  C   UNK N   1      23.367  11.599   9.061  0.00  0.00     0.038 A 
HETATM   19  C   UNK N   1      22.666  11.783   7.870  0.00  0.00     0.027 A 
BRANCH  17  20
HETATM   20  O   UNK N   1      23.696  12.190  11.370  0.00  0.00    -0.356 OA
HETATM   21  C   UNK N   1      23.079  11.877  12.562  0.00  0.00     0.210 C 
ENDBRANCH  17  20
ENDBRANCH  11  14
ENDBRANCH  10  11
BRANCH   6  22
HETATM   22  C   UNK N   1      21.771  16.027   5.871  0.00  0.00     0.264 C 
HETATM   23  O   UNK N   1      21.521  16.604   6.917  0.00  0.00    -0.269 OA
HETATM   24  N   UNK N   1      23.053  15.937   5.439  0.00  0.00    -0.236 N 
HETATM   25  H   UNK N   1      23.249  15.471   4.595  0.00  0.00     0.197 HD
BRANCH  24  26
HETATM   26  O   UNK N   1      24.057  16.475   6.145  0.00  0.00    -0.287 OA
HETATM   27  H   UNK N   1      23.956  17.176   6.810  0.00  0.00     0.244 HD
ENDBRANCH  24  26
ENDBRANCH   6  22
BRANCH   3  28
HETATM   28  O   UNK N   1      20.298  19.651   2.478  0.00  0.00    -0.353 OA
HETATM   29  C   UNK N   1      21.403  20.444   2.687  0.00  0.00     0.210 C 
ENDBRANCH   3  28
BRANCH   2  30
HETATM   30  O   UNK N   1      20.200  18.256   0.122  0.00  0.00    -0.358 OA
HETATM   31  H   UNK N   1      19.536  18.044  -0.504  0.00  0.00     0.217 HD
ENDBRANCH   2  30
TORSDOF 7
ENDMDL
MODEL 4
REMARK VINA RESULT:      -7.2     14.396     17.002
REMARK  7 active torsions:
REMARK  status: ('A' for Active; 'I' for Inactive)
REMARK    1  A    between atoms: C_2  and  O_3 
REMARK    2  A    between atoms: C_4  and  O_5 
REMARK    3  A    between atoms: C_9  and  C_10 
REMARK       I    between atoms: C_10  and  N_12 
REMARK    4  A    between atoms: N_12  and  O_13 
REMARK    5  A    between atoms: N_17  and  S_18 
REMARK    6  A    between atoms: S_18  and  C_21 
REMARK    7  A    between atoms: C_24  and  O_25 
ROOT
HETATM    1  C   UNK N   1      28.308  20.526  -8.007  0.00  0.00     0.047 A 
HETATM    2  C   UNK N   1      29.354  19.949  -7.290  0.00  0.00     0.099 A 
HETATM    3  C   UNK N   1      30.016  20.683  -6.298  0.00  0.00     0.101 A 
HETATM    4  C   UNK N   1      29.617  22.009  -6.037  0.00  0.00     0.049 A 
HETATM    5  C   UNK N   1      28.548  22.595  -6.739  0.00  0.00    -0.021 A 
HETATM    6  C   UNK N   1      28.093  24.033  -6.423  0.00  0.00     0.202 C 
HETATM    7  C   UNK N   1      27.901  21.833  -7.740  0.00  0.00    -0.046 A 
HETATM    8  C   UNK N   1      26.801  22.410  -8.564  0.00  0.00     0.055 C 
HETATM    9  C   UNK N   1      26.866  23.919  -8.511  0.00  0.00     0.113 C 
HETATM   10  N   UNK N   1      26.819  24.354  -7.119  0.00  0.00    -0.188 NA
ENDROOT
BRANCH  10  11
HETATM   11  S   UNK N   1      26.414  26.096  -7.131  0.00  0.00     0.244 S 
HETATM   12  O   UNK N   1      25.433  26.364  -8.286  0.00  0.00    -0.206 OA
HETATM   13  O   UNK N   1      25.212  25.657  -6.277  0.00  0.00    -0.206 OA
BRANCH  11  14
HETATM   14  C   UNK N   1      26.463  27.440  -5.932  0.00  0.00     0.074 A 
HETATM   15  C   UNK N   1      25.689  27.411  -4.767  0.00  0.00     0.027 A 
HETATM   16  C   UNK N   1      25.742  28.481  -3.864  0.00  0.00     0.038 A 
HETATM   17  C   UNK N   1      26.572  29.582  -4.114  0.00  0.00     0.068 A 
HETATM   18  C   UNK N   1      27.363  29.597  -5.274  0.00  0.00     0.038 A 
HETATM   19  C   UNK N   1      27.310  28.532  -6.172  0.00  0.00     0.027 A 
BRANCH  17  20
HETATM   20  O   UNK N   1      26.592  30.610  -3.232  0.00  0.00    -0.356 OA
HETATM   21  C   UNK N   1      27.567  30.757  -2.270  0.00  0.00     0.210 C 
ENDBRANCH  17  20
ENDBRANCH  11  14
ENDBRANCH  10  11
BRANCH   6  22
HETATM   22  C   UNK N   1      27.917  24.188  -4.921  0.00  0.00     0.264 C 
HETATM   23  O   UNK N   1      28.804  24.673  -4.237  0.00  0.00    -0.269 OA
HETATM   24  N   UNK N   1      26.762  23.780  -4.339  0.00  0.00    -0.236 N 
HETATM   25  H   UNK N   1      26.050  23.390  -4.894  0.00  0.00     0.197 HD
BRANCH  24  26
HETATM   26  O   UNK N   1      26.577  23.901  -3.017  0.00  0.00    -0.287 OA
HETATM   27  H   UNK N   1      27.223  24.276  -2.397  0.00  0.00     0.244 HD
ENDBRANCH  24  26
ENDBRANCH   6  22
BRANCH   3  28
HETATM   28  O   UNK N   1      31.020  20.098  -5.602  0.00  0.00    -0.353 OA
HETATM   29  C   UNK N   1      31.347  20.443  -4.311  0.00  0.00     0.210 C 
ENDBRANCH   3  28
BRANCH   2  30
HETATM   30  O   UNK N   1      29.721  18.684  -7.557  0.00  0.00    -0.358 OA
HETATM   31  H   UNK N   1      30.624  18.443  -7.615  0.00  0.00     0.217 HD
ENDBRANCH   2  30
TORSDOF 7
ENDMDL
MODEL 5
REMARK VINA RESULT:      -7.1     11.940     13.872
REMARK  7 active torsions:
REMARK  status: ('A' for Active; 'I' for Inactive)
REMARK    1  A    between atoms: C_2  and  O_3 
REMARK    2  A    between atoms: C_4  and  O_5 
REMARK    3  A    between atoms: C_9  and  C_10 
REMARK       I    between atoms: C_10  and  N_12 
REMARK    4  A    between atoms: N_12  and  O_13 
REMARK    5  A    between atoms: N_17  and  S_18 
REMARK    6  A    between atoms: S_18  and  C_21 
REMARK    7  A    between atoms: C_24  and  O_25 
ROOT
HETATM    1  C   UNK N   1      34.697  17.120   8.894  0.00  0.00     0.047 A 
HETATM    2  C   UNK N   1      34.648  16.958   7.512  0.00  0.00     0.099 A 
HETATM    3  C   UNK N   1      34.881  15.700   6.942  0.00  0.00     0.101 A 
HETATM    4  C   UNK N   1      35.168  14.604   7.780  0.00  0.00     0.049 A 
HETATM    5  C   UNK N   1      35.199  14.750   9.179  0.00  0.00    -0.021 A 
HETATM    6  C   UNK N   1      35.478  13.541  10.090  0.00  0.00     0.202 C 
HETATM    7  C   UNK N   1      34.966  16.033   9.727  0.00  0.00    -0.046 A 
HETATM    8  C   UNK N   1      35.043  16.274  11.196  0.00  0.00     0.055 C 
HETATM    9  C   UNK N   1      35.839  15.169  11.850  0.00  0.00     0.113 C 
HETATM   10  N   UNK N   1      35.237  13.882  11.518  0.00  0.00    -0.188 NA
ENDROOT
BRANCH  10  11
HETATM   11  S   UNK N   1      35.895  12.685  12.674  0.00  0.00     0.244 S 
HETATM   12  O   UNK N   1      37.219  12.137  12.111  0.00  0.00    -0.206 OA
HETATM   13  O   UNK N   1      36.682  13.888  13.221  0.00  0.00    -0.206 OA
BRANCH  11  14
HETATM   14  C   UNK N   1      35.685  12.337  14.428  0.00  0.00     0.074 A 
HETATM   15  C   UNK N   1      35.571  13.364  15.371  0.00  0.00     0.027 A 
HETATM   16  C   UNK N   1      35.423  13.055  16.729  0.00  0.00     0.038 A 
HETATM   17  C   UNK N   1      35.380  11.720  17.154  0.00  0.00     0.068 A 
HETATM   18  C   UNK N   1      35.475  10.693  16.203  0.00  0.00     0.038 A 
HETATM   19  C   UNK N   1      35.622  11.001  14.851  0.00  0.00     0.027 A 
BRANCH  17  20
HETATM   20  O   UNK N   1      35.253  11.450  18.476  0.00  0.00    -0.356 OA
HETATM   21  C   UNK N   1      35.297  12.423  19.451  0.00  0.00     0.210 C 
ENDBRANCH  17  20
ENDBRANCH  11  14
ENDBRANCH  10  11
BRANCH   6  22
HETATM   22  C   UNK N   1      34.586  12.381   9.677  0.00  0.00     0.264 C 
HETATM   23  O   UNK N   1      35.071  11.333   9.281  0.00  0.00    -0.269 OA
HETATM   24  N   UNK N   1      33.239  12.516   9.750  0.00  0.00    -0.236 N 
HETATM   25  H   UNK N   1      32.853  13.362  10.071  0.00  0.00     0.197 HD
BRANCH  24  26
HETATM   26  O   UNK N   1      32.426  11.512   9.391  0.00  0.00    -0.287 OA
HETATM   27  H   UNK N   1      32.553  10.581   9.632  0.00  0.00     0.244 HD
ENDBRANCH  24  26
ENDBRANCH   6  22
BRANCH   3  28
HETATM   28  O   UNK N   1      34.812  15.561   5.596  0.00  0.00    -0.353 OA
HETATM   29  C   UNK N   1      33.707  15.068   4.942  0.00  0.00     0.210 C 
ENDBRANCH   3  28
BRANCH   2  30
HETATM   30  O   UNK N   1      34.375  18.017   6.731  0.00  0.00    -0.358 OA
HETATM   31  H   UNK N   1      34.891  18.206   5.972  0.00  0.00     0.217 HD
ENDBRANCH   2  30
TORSDOF 7
ENDMDL
MODEL 6
REMARK VINA RESULT:      -7.0      5.132      9.015
REMARK  7 active torsions:
REMARK  status: ('A' for Active; 'I' for Inactive)
REMARK    1  A    between atoms: C_2  and  O_3 
REMARK    2  A    between atoms: C_4  and  O_5 
REMARK    3  A    between atoms: C_9  and  C_10 
REMARK       I    between atoms: C_10  and  N_12 
REMARK    4  A    between atoms: N_12  and  O_13 
REMARK    5  A    between atoms: N_17  and  S_18 
REMARK    6  A    between atoms: S_18  and  C_21 
REMARK    7  A    between atoms: C_24  and  O_25 
ROOT
HETATM    1  C   UNK N   1      30.886  15.098   4.749  0.00  0.00     0.047 A 
HETATM    2  C   UNK N   1      31.971  15.066   5.622  0.00  0.00     0.099 A 
HETATM    3  C   UNK N   1      32.076  16.013   6.649  0.00  0.00     0.101 A 
HETATM    4  C   UNK N   1      31.077  16.996   6.787  0.00  0.00     0.049 A 
HETATM    5  C   UNK N   1      29.965  17.026   5.926  0.00  0.00    -0.021 A 
HETATM    6  C   UNK N   1      28.859  18.083   6.105  0.00  0.00     0.202 C 
HETATM    7  C   UNK N   1      29.887  16.062   4.893  0.00  0.00    -0.046 A 
HETATM    8  C   UNK N   1      28.769  16.071   3.907  0.00  0.00     0.055 C 
HETATM    9  C   UNK N   1      28.121  17.435   3.888  0.00  0.00     0.113 C 
HETATM   10  N   UNK N   1      27.689  17.782   5.238  0.00  0.00    -0.188 NA
ENDROOT
BRANCH  10  11
HETATM   11  S   UNK N   1      26.530  19.135   5.083  0.00  0.00     0.244 S 
HETATM   12  O   UNK N   1      27.296  20.460   5.255  0.00  0.00    -0.206 OA
HETATM   13  O   UNK N   1      26.970  19.130   3.609  0.00  0.00    -0.206 OA
BRANCH  11  14
HETATM   14  C   UNK N   1      24.904  19.363   4.342  0.00  0.00     0.074 A 
HETATM   15  C   UNK N   1      24.665  20.360   3.390  0.00  0.00     0.027 A 
HETATM   16  C   UNK N   1      23.384  20.516   2.845  0.00  0.00     0.038 A 
HETATM   17  C   UNK N   1      22.335  19.676   3.242  0.00  0.00     0.068 A 
HETATM   18  C   UNK N   1      22.584  18.664   4.183  0.00  0.00     0.038 A 
HETATM   19  C   UNK N   1      23.859  18.508   4.724  0.00  0.00     0.027 A 
BRANCH  17  20
HETATM   20  O   UNK N   1      21.102  19.860   2.712  0.00  0.00    -0.356 OA
HETATM   21  C   UNK N   1      20.887  20.510   1.516  0.00  0.00     0.210 C 
ENDBRANCH  17  20
ENDBRANCH  11  14
ENDBRANCH  10  11
BRANCH   6  22
HETATM   22  C   UNK N   1      28.428  18.120   7.563  0.00  0.00     0.264 C 
HETATM   23  O   UNK N   1      28.717  19.069   8.273  0.00  0.00    -0.269 OA
HETATM   24  N   UNK N   1      27.716  17.086   8.074  0.00  0.00    -0.236 N 
HETATM   25  H   UNK N   1      27.484  16.323   7.498  0.00  0.00     0.197 HD
BRANCH  24  26
HETATM   26  O   UNK N   1      27.323  17.088   9.356  0.00  0.00    -0.287 OA
HETATM   27  H   UNK N   1      26.410  17.220   9.657  0.00  0.00     0.244 HD
ENDBRANCH  24  26
ENDBRANCH   6  22
BRANCH   3  28
HETATM   28  O   UNK N   1      33.131  15.953   7.497  0.00  0.00    -0.353 OA
HETATM   29  C   UNK N   1      33.036  15.498   8.792  0.00  0.00     0.210 C 
ENDBRANCH   3  28
BRANCH   2  30
HETATM   30  O   UNK N   1      32.914  14.121   5.471  0.00  0.00    -0.358 OA
HETATM   31  H   UNK N   1      32.915  13.550   4.728  0.00  0.00     0.217 HD
ENDBRANCH   2  30
TORSDOF 7
ENDMDL
MODEL 7
REMARK VINA RESULT:      -6.9      6.850     10.581
REMARK  7 active torsions:
REMARK  status: ('A' for Active; 'I' for Inactive)
REMARK    1  A    between atoms: C_2  and  O_3 
REMARK    2  A    between atoms: C_4  and  O_5 
REMARK    3  A    between atoms: C_9  and  C_10 
REMARK       I    between atoms: C_10  and  N_12 
REMARK    4  A    between atoms: N_12  and  O_13 
REMARK    5  A    between atoms: N_17  and  S_18 
REMARK    6  A    between atoms: S_18  and  C_21 
REMARK    7  A    between atoms: C_24  and  O_25 
ROOT
HETATM    1  C   UNK N   1      33.411  17.269   8.862  0.00  0.00     0.047 A 
HETATM    2  C   UNK N   1      34.473  16.421   8.559  0.00  0.00     0.099 A 
HETATM    3  C   UNK N   1      34.377  15.531   7.481  0.00  0.00     0.101 A 
HETATM    4  C   UNK N   1      33.196  15.500   6.713  0.00  0.00     0.049 A 
HETATM    5  C   UNK N   1      32.126  16.367   6.995  0.00  0.00    -0.021 A 
HETATM    6  C   UNK N   1      30.852  16.353   6.129  0.00  0.00     0.202 C 
HETATM    7  C   UNK N   1      32.246  17.252   8.093  0.00  0.00    -0.046 A 
HETATM    8  C   UNK N   1      31.129  18.155   8.487  0.00  0.00     0.055 C 
HETATM    9  C   UNK N   1      29.830  17.635   7.916  0.00  0.00     0.113 C 
HETATM   10  N   UNK N   1      29.963  17.496   6.469  0.00  0.00    -0.188 NA
ENDROOT
BRANCH  10  11
HETATM   11  S   UNK N   1      28.308  17.354   5.805  0.00  0.00     0.244 S 
HETATM   12  O   UNK N   1      27.515  16.359   6.672  0.00  0.00    -0.206 OA
HETATM   13  O   UNK N   1      27.975  18.444   6.837  0.00  0.00    -0.206 OA
BRANCH  11  14
HETATM   14  C   UNK N   1      27.248  18.365   4.758  0.00  0.00     0.074 A 
HETATM   15  C   UNK N   1      27.641  19.637   4.327  0.00  0.00     0.027 A 
HETATM   16  C   UNK N   1      26.784  20.401   3.524  0.00  0.00     0.038 A 
HETATM   17  C   UNK N   1      25.533  19.899   3.141  0.00  0.00     0.068 A 
HETATM   18  C   UNK N   1      25.151  18.614   3.559  0.00  0.00     0.038 A 
HETATM   19  C   UNK N   1      26.004  17.854   4.357  0.00  0.00     0.027 A 
BRANCH  17  20
HETATM   20  O   UNK N   1      24.716  20.665   2.379  0.00  0.00    -0.356 OA
HETATM   21  C   UNK N   1      23.397  20.906   2.697  0.00  0.00     0.210 C 
ENDBRANCH  17  20
ENDBRANCH  11  14
ENDBRANCH  10  11
BRANCH   6  22
HETATM   22  C   UNK N   1      31.241  16.418   4.660  0.00  0.00     0.264 C 
HETATM   23  O   UNK N   1      31.225  15.412   3.968  0.00  0.00    -0.269 OA
HETATM   24  N   UNK N   1      31.608  17.604   4.119  0.00  0.00    -0.236 N 
HETATM   25  H   UNK N   1      31.619  18.412   4.681  0.00  0.00     0.197 HD
BRANCH  24  26
HETATM   26  O   UNK N   1      31.958  17.694   2.828  0.00  0.00    -0.287 OA
HETATM   27  H   UNK N   1      31.986  16.949   2.207  0.00  0.00     0.244 HD
ENDBRANCH  24  26
ENDBRANCH   6  22
BRANCH   3  28
HETATM   28  O   UNK N   1      35.428  14.726   7.194  0.00  0.00    -0.353 OA
HETATM   29  C   UNK N   1      35.937  14.570   5.925  0.00  0.00     0.210 C 
ENDBRANCH   3  28
BRANCH   2  30
HETATM   30  O   UNK N   1      35.589  16.465   9.306  0.00  0.00    -0.358 OA
HETATM   31  H   UNK N   1      35.563  16.734  10.202  0.00  0.00     0.217 HD
ENDBRANCH   2  30
TORSDOF 7
ENDMDL
MODEL 8
REMARK VINA RESULT:      -6.8     14.343     16.408
REMARK  7 active torsions:
REMARK  status: ('A' for Active; 'I' for Inactive)
REMARK    1  A    between atoms: C_2  and  O_3 
REMARK    2  A    between atoms: C_4  and  O_5 
REMARK    3  A    between atoms: C_9  and  C_10 
REMARK       I    between atoms: C_10  and  N_12 
REMARK    4  A    between atoms: N_12  and  O_13 
REMARK    5  A    between atoms: N_17  and  S_18 
REMARK    6  A    between atoms: S_18  and  C_21 
REMARK    7  A    between atoms: C_24  and  O_25 
ROOT
HETATM    1  C   UNK N   1      31.980  20.044  -5.943  0.00  0.00     0.047 A 
HETATM    2  C   UNK N   1      33.271  20.145  -5.431  0.00  0.00     0.099 A 
HETATM    3  C   UNK N   1      33.658  21.287  -4.719  0.00  0.00     0.101 A 
HETATM    4  C   UNK N   1      32.731  22.332  -4.531  0.00  0.00     0.049 A 
HETATM    5  C   UNK N   1      31.418  22.233  -5.024  0.00  0.00    -0.021 A 
HETATM    6  C   UNK N   1      30.400  23.363  -4.785  0.00  0.00     0.202 C 
HETATM    7  C   UNK N   1      31.055  21.071  -5.745  0.00  0.00    -0.046 A 
HETATM    8  C   UNK N   1      29.701  20.924  -6.349  0.00  0.00     0.055 C 
HETATM    9  C   UNK N   1      29.060  22.285  -6.494  0.00  0.00     0.113 C 
HETATM   10  N   UNK N   1      29.033  22.944  -5.192  0.00  0.00    -0.188 NA
ENDROOT
BRANCH  10  11
HETATM   11  S   UNK N   1      27.864  24.293  -5.316  0.00  0.00     0.244 S 
HETATM   12  O   UNK N   1      26.575  23.767  -5.974  0.00  0.00    -0.206 OA
HETATM   13  O   UNK N   1      27.343  23.751  -3.974  0.00  0.00    -0.206 OA
BRANCH  11  14
HETATM   14  C   UNK N   1      27.628  25.876  -4.489  0.00  0.00     0.074 A 
HETATM   15  C   UNK N   1      28.570  26.904  -4.592  0.00  0.00     0.027 A 
HETATM   16  C   UNK N   1      28.360  28.117  -3.923  0.00  0.00     0.038 A 
HETATM   17  C   UNK N   1      27.206  28.313  -3.153  0.00  0.00     0.068 A 
HETATM   18  C   UNK N   1      26.253  27.286  -3.069  0.00  0.00     0.038 A 
HETATM   19  C   UNK N   1      26.463  26.080  -3.735  0.00  0.00     0.027 A 
BRANCH  17  20
HETATM   20  O   UNK N   1      27.035  29.489  -2.502  0.00  0.00    -0.356 OA
HETATM   21  C   UNK N   1      26.887  30.695  -3.154  0.00  0.00     0.210 C 
ENDBRANCH  17  20
ENDBRANCH  11  14
ENDBRANCH  10  11
BRANCH   6  22
HETATM   22  C   UNK N   1      30.408  23.745  -3.313  0.00  0.00     0.264 C 
HETATM   23  O   UNK N   1      30.766  24.858  -2.961  0.00  0.00    -0.269 OA
HETATM   24  N   UNK N   1      30.014  22.839  -2.386  0.00  0.00    -0.236 N 
HETATM   25  H   UNK N   1      29.726  21.943  -2.675  0.00  0.00     0.197 HD
BRANCH  24  26
HETATM   26  O   UNK N   1      30.012  23.144  -1.081  0.00  0.00    -0.287 OA
HETATM   27  H   UNK N   1      29.700  23.984  -0.707  0.00  0.00     0.244 HD
ENDBRANCH  24  26
ENDBRANCH   6  22
BRANCH   3  28
HETATM   28  O   UNK N   1      34.914  21.357  -4.215  0.00  0.00    -0.353 OA
HETATM   29  C   UNK N   1      35.921  22.094  -4.794  0.00  0.00     0.210 C 
ENDBRANCH   3  28
BRANCH   2  30
HETATM   30  O   UNK N   1      34.140  19.138  -5.623  0.00  0.00    -0.358 OA
HETATM   31  H   UNK N   1      34.185  18.415  -5.029  0.00  0.00     0.217 HD
ENDBRANCH   2  30
TORSDOF 7
ENDMDL
MODEL 9
REMARK VINA RESULT:      -6.7     10.214     13.717
REMARK  7 active torsions:
REMARK  status: ('A' for Active; 'I' for Inactive)
REMARK    1  A    between atoms: C_2  and  O_3 
REMARK    2  A    between atoms: C_4  and  O_5 
REMARK    3  A    between atoms: C_9  and  C_10 
REMARK       I    between atoms: C_10  and  N_12 
REMARK    4  A    between atoms: N_12  and  O_13 
REMARK    5  A    between atoms: N_17  and  S_18 
REMARK    6  A    between atoms: S_18  and  C_21 
REMARK    7  A    between atoms: C_24  and  O_25 
ROOT
HETATM    1  C   UNK N   1      36.597  13.779  12.023  0.00  0.00     0.047 A 
HETATM    2  C   UNK N   1      36.187  12.477  12.297  0.00  0.00     0.099 A 
HETATM    3  C   UNK N   1      35.067  11.941  11.647  0.00  0.00     0.101 A 
HETATM    4  C   UNK N   1      34.361  12.733  10.720  0.00  0.00     0.049 A 
HETATM    5  C   UNK N   1      34.779  14.042  10.419  0.00  0.00    -0.021 A 
HETATM    6  C   UNK N   1      34.023  14.889   9.378  0.00  0.00     0.202 C 
HETATM    7  C   UNK N   1      35.909  14.560  11.094  0.00  0.00    -0.046 A 
HETATM    8  C   UNK N   1      36.372  15.959  10.869  0.00  0.00     0.055 C 
HETATM    9  C   UNK N   1      35.245  16.778  10.283  0.00  0.00     0.113 C 
HETATM   10  N   UNK N   1      34.770  16.135   9.061  0.00  0.00    -0.188 NA
ENDROOT
BRANCH  10  11
HETATM   11  S   UNK N   1      33.809  17.354   8.171  0.00  0.00     0.244 S 
HETATM   12  O   UNK N   1      34.514  18.717   8.291  0.00  0.00    -0.206 OA
HETATM   13  O   UNK N   1      34.761  17.019   7.010  0.00  0.00    -0.206 OA
BRANCH  11  14
HETATM   14  C   UNK N   1      32.582  17.317   6.853  0.00  0.00     0.074 A 
HETATM   15  C   UNK N   1      31.223  17.124   7.122  0.00  0.00     0.027 A 
HETATM   16  C   UNK N   1      30.299  17.088   6.070  0.00  0.00     0.038 A 
HETATM   17  C   UNK N   1      30.724  17.251   4.744  0.00  0.00     0.068 A 
HETATM   18  C   UNK N   1      32.086  17.465   4.481  0.00  0.00     0.038 A 
HETATM   19  C   UNK N   1      33.005  17.501   5.528  0.00  0.00     0.027 A 
BRANCH  17  20
HETATM   20  O   UNK N   1      29.811  17.195   3.745  0.00  0.00    -0.356 OA
HETATM   21  C   UNK N   1      29.809  16.207   2.783  0.00  0.00     0.210 C 
ENDBRANCH  17  20
ENDBRANCH  11  14
ENDBRANCH  10  11
BRANCH   6  22
HETATM   22  C   UNK N   1      33.820  14.070   8.112  0.00  0.00     0.264 C 
HETATM   23  O   UNK N   1      34.777  13.716   7.441  0.00  0.00    -0.269 OA
HETATM   24  N   UNK N   1      32.565  13.734   7.729  0.00  0.00    -0.236 N 
HETATM   25  H   UNK N   1      31.798  14.021   8.273  0.00  0.00     0.197 HD
BRANCH  24  26
HETATM   26  O   UNK N   1      32.353  13.015   6.617  0.00  0.00    -0.287 OA
HETATM   27  H   UNK N   1      31.490  12.891   6.192  0.00  0.00     0.244 HD
ENDBRANCH  24  26
ENDBRANCH   6  22
BRANCH   3  28
HETATM   28  O   UNK N   1      34.695  10.666  11.916  0.00  0.00    -0.353 OA
HETATM   29  C   UNK N   1      33.635  10.042  11.300  0.00  0.00     0.210 C 
ENDBRANCH   3  28
BRANCH   2  30
HETATM   30  O   UNK N   1      36.873  11.739  13.186  0.00  0.00    -0.358 OA
HETATM   31  H   UNK N   1      37.766  11.934  13.391  0.00  0.00     0.217 HD
ENDBRANCH   2  30
TORSDOF 7
ENDMDL
