REMARK  12 active torsions:
REMARK  status: ('A' for Active; 'I' for Inactive)
REMARK    1  A    between atoms: C_2  and  C_4 
REMARK    2  A    between atoms: C_2  and  O_3 
REMARK    3  A    between atoms: C_4  and  C_5 
REMARK    4  A    between atoms: C_5  and  C_6 
REMARK    5  A    between atoms: C_6  and  C_7 
REMARK    6  A    between atoms: C_7  and  C_8 
REMARK    7  A    between atoms: C_8  and  C_9 
REMARK    8  A    between atoms: C_9  and  C_10 
REMARK    9  A    between atoms: C_10  and  C_11 
REMARK   10  A    between atoms: C_11  and  C_12 
REMARK   11  A    between atoms: C_12  and  C_13 
REMARK   12  A    between atoms: C_13  and  S_14 
ROOT
HETATM    1  C   UNK N   1      -1.279  -0.209   0.000  0.00  0.00     0.000 C 
ENDROOT
BRANCH   1   2
HETATM    2  C   UNK N   1      -2.478   0.711   0.000  0.00  0.00     0.001 C 
BRANCH   2   3
HETATM    3  C   UNK N   1      -3.708  -0.166  -0.000  0.00  0.00     0.010 C 
BRANCH   3   4
HETATM    4  C   UNK N   1      -4.976   0.665  -0.000  0.00  0.00     0.110 C 
BRANCH   4   5
HETATM    5  C   UNK N   1      -6.191  -0.216  -0.000  0.00  0.00     0.139 C 
HETATM    6  O   UNK N   1      -7.299   0.290   0.000  0.00  0.00    -0.650 OA
BRANCH   5   7
HETATM    7  O   UNK N   1      -6.072  -1.560  -0.000  0.00  0.00    -0.776 OA
HETATM    8  H   UNK N   1      -6.839  -2.098  -0.000  0.00  0.00     0.167 HD
ENDBRANCH   5   7
ENDBRANCH   4   5
ENDBRANCH   3   4
ENDBRANCH   2   3
ENDBRANCH   1   2
BRANCH   1   9
HETATM    9  C   UNK N   1       0.002   0.588   0.000  0.00  0.00     0.000 C 
BRANCH   9  10
HETATM   10  C   UNK N   1       1.167  -0.376   0.000  0.00  0.00     0.000 C 
BRANCH  10  11
HETATM   11  C   UNK N   1       2.452   0.416  -0.000  0.00  0.00     0.000 C 
BRANCH  11  12
HETATM   12  C   UNK N   1       3.641  -0.518  -0.000  0.00  0.00     0.001 C 
BRANCH  12  13
HETATM   13  C   UNK N   1       4.894   0.328  -0.000  0.00  0.00     0.010 C 
BRANCH  13  14
HETATM   14  C   UNK N   1       6.123  -0.551   0.000  0.00  0.00     0.070 C 
BRANCH  14  15
HETATM   15  S   UNK N   1       7.594   0.509   0.000  0.00  0.00    -0.182 SA
HETATM   16  H   UNK N   1       8.835  -0.049  -0.000  0.00  0.00     0.101 HD
ENDBRANCH  14  15
ENDBRANCH  13  14
ENDBRANCH  12  13
ENDBRANCH  11  12
ENDBRANCH  10  11
ENDBRANCH   9  10
ENDBRANCH   1   9
TORSDOF 12
