MODEL 1
REMARK VINA RESULT:      -4.4      0.000      0.000
REMARK  12 active torsions:
REMARK  status: ('A' for Active; 'I' for Inactive)
REMARK    1  A    between atoms: C_2  and  C_4 
REMARK    2  A    between atoms: C_2  and  O_3 
REMARK    3  A    between atoms: C_4  and  C_5 
REMARK    4  A    between atoms: C_5  and  C_6 
REMARK    5  A    between atoms: C_6  and  C_7 
REMARK    6  A    between atoms: C_7  and  C_8 
REMARK    7  A    between atoms: C_8  and  C_9 
REMARK    8  A    between atoms: C_9  and  C_10 
REMARK    9  A    between atoms: C_10  and  C_11 
REMARK   10  A    between atoms: C_11  and  C_12 
REMARK   11  A    between atoms: C_12  and  C_13 
REMARK   12  A    between atoms: C_13  and  S_14 
ROOT
HETATM    1  C   UNK N   1      24.278  19.207   3.769  0.00  0.00     0.000 C 
ENDROOT
BRANCH   1   2
HETATM    2  C   UNK N   1      22.782  19.377   3.648  0.00  0.00     0.001 C 
BRANCH   2   3
HETATM    3  C   UNK N   1      22.543  20.546   2.722  0.00  0.00     0.010 C 
BRANCH   3   4
HETATM    4  C   UNK N   1      21.074  20.675   2.367  0.00  0.00     0.110 C 
BRANCH   4   5
HETATM    5  C   UNK N   1      20.817  20.184   0.972  0.00  0.00     0.139 C 
HETATM    6  O   UNK N   1      20.684  18.990   0.772  0.00  0.00    -0.650 OA
BRANCH   5   7
HETATM    7  O   UNK N   1      20.732  21.046  -0.062  0.00  0.00    -0.776 OA
HETATM    8  H   UNK N   1      19.897  21.253  -0.432  0.00  0.00     0.167 HD
ENDBRANCH   5   7
ENDBRANCH   4   5
ENDBRANCH   3   4
ENDBRANCH   2   3
ENDBRANCH   1   2
BRANCH   1   9
HETATM    9  C   UNK N   1      24.996  20.127   2.812  0.00  0.00     0.000 C 
BRANCH   9  10
HETATM   10  C   UNK N   1      26.299  20.558   3.447  0.00  0.00     0.000 C 
BRANCH  10  11
HETATM   11  C   UNK N   1      27.149  19.335   3.690  0.00  0.00     0.000 C 
BRANCH  11  12
HETATM   12  C   UNK N   1      28.064  19.561   4.873  0.00  0.00     0.001 C 
BRANCH  12  13
HETATM   13  C   UNK N   1      27.552  20.765   5.630  0.00  0.00     0.010 C 
BRANCH  13  14
HETATM   14  C   UNK N   1      27.159  20.374   7.036  0.00  0.00     0.070 C 
BRANCH  14  15
HETATM   15  S   UNK N   1      28.232  19.018   7.582  0.00  0.00    -0.182 SA
HETATM   16  H   UNK N   1      29.259  18.603   6.793  0.00  0.00     0.101 HD
ENDBRANCH  14  15
ENDBRANCH  13  14
ENDBRANCH  12  13
ENDBRANCH  11  12
ENDBRANCH  10  11
ENDBRANCH   9  10
ENDBRANCH   1   9
TORSDOF 12
ENDMDL
MODEL 2
REMARK VINA RESULT:      -4.2      7.026      9.691
REMARK  12 active torsions:
REMARK  status: ('A' for Active; 'I' for Inactive)
REMARK    1  A    between atoms: C_2  and  C_4 
REMARK    2  A    between atoms: C_2  and  O_3 
REMARK    3  A    between atoms: C_4  and  C_5 
REMARK    4  A    between atoms: C_5  and  C_6 
REMARK    5  A    between atoms: C_6  and  C_7 
REMARK    6  A    between atoms: C_7  and  C_8 
REMARK    7  A    between atoms: C_8  and  C_9 
REMARK    8  A    between atoms: C_9  and  C_10 
REMARK    9  A    between atoms: C_10  and  C_11 
REMARK   10  A    between atoms: C_11  and  C_12 
REMARK   11  A    between atoms: C_12  and  C_13 
REMARK   12  A    between atoms: C_13  and  S_14 
ROOT
HETATM    1  C   UNK N   1      29.609  17.193   8.611  0.00  0.00     0.000 C 
ENDROOT
BRANCH   1   2
HETATM    2  C   UNK N   1      30.736  18.200   8.593  0.00  0.00     0.001 C 
BRANCH   2   3
HETATM    3  C   UNK N   1      31.873  17.576   7.819  0.00  0.00     0.010 C 
BRANCH   3   4
HETATM    4  C   UNK N   1      33.161  17.602   8.617  0.00  0.00     0.110 C 
BRANCH   4   5
HETATM    5  C   UNK N   1      34.260  18.260   7.835  0.00  0.00     0.139 C 
HETATM    6  O   UNK N   1      34.985  19.071   8.384  0.00  0.00    -0.650 OA
BRANCH   5   7
HETATM    7  O   UNK N   1      34.455  17.966   6.533  0.00  0.00    -0.776 OA
HETATM    8  H   UNK N   1      34.018  17.233   6.148  0.00  0.00     0.167 HD
ENDBRANCH   5   7
ENDBRANCH   4   5
ENDBRANCH   3   4
ENDBRANCH   2   3
ENDBRANCH   1   2
BRANCH   1   9
HETATM    9  C   UNK N   1      28.505  17.614   7.673  0.00  0.00     0.000 C 
BRANCH   9  10
HETATM   10  C   UNK N   1      28.304  19.106   7.808  0.00  0.00     0.000 C 
BRANCH  10  11
HETATM   11  C   UNK N   1      27.768  19.643   6.503  0.00  0.00     0.000 C 
BRANCH  11  12
HETATM   12  C   UNK N   1      28.344  18.864   5.342  0.00  0.00     0.001 C 
BRANCH  12  13
HETATM   13  C   UNK N   1      27.312  18.849   4.237  0.00  0.00     0.010 C 
BRANCH  13  14
HETATM   14  C   UNK N   1      25.921  18.961   4.815  0.00  0.00     0.070 C 
BRANCH  14  15
HETATM   15  S   UNK N   1      24.878  19.870   3.643  0.00  0.00    -0.182 SA
HETATM   16  H   UNK N   1      23.524  19.748   3.700  0.00  0.00     0.101 HD
ENDBRANCH  14  15
ENDBRANCH  13  14
ENDBRANCH  12  13
ENDBRANCH  11  12
ENDBRANCH  10  11
ENDBRANCH   9  10
ENDBRANCH   1   9
TORSDOF 12
ENDMDL
MODEL 3
REMARK VINA RESULT:      -4.2      9.942     10.949
REMARK  12 active torsions:
REMARK  status: ('A' for Active; 'I' for Inactive)
REMARK    1  A    between atoms: C_2  and  C_4 
REMARK    2  A    between atoms: C_2  and  O_3 
REMARK    3  A    between atoms: C_4  and  C_5 
REMARK    4  A    between atoms: C_5  and  C_6 
REMARK    5  A    between atoms: C_6  and  C_7 
REMARK    6  A    between atoms: C_7  and  C_8 
REMARK    7  A    between atoms: C_8  and  C_9 
REMARK    8  A    between atoms: C_9  and  C_10 
REMARK    9  A    between atoms: C_10  and  C_11 
REMARK   10  A    between atoms: C_11  and  C_12 
REMARK   11  A    between atoms: C_12  and  C_13 
REMARK   12  A    between atoms: C_13  and  S_14 
ROOT
HETATM    1  C   UNK N   1      25.526  25.577  -6.442  0.00  0.00     0.000 C 
ENDROOT
BRANCH   1   2
HETATM    2  C   UNK N   1      26.271  26.689  -7.143  0.00  0.00     0.001 C 
BRANCH   2   3
HETATM    3  C   UNK N   1      26.632  27.711  -6.091  0.00  0.00     0.010 C 
BRANCH   3   4
HETATM    4  C   UNK N   1      25.552  27.815  -5.032  0.00  0.00     0.110 C 
BRANCH   4   5
HETATM    5  C   UNK N   1      26.157  27.933  -3.664  0.00  0.00     0.139 C 
HETATM    6  O   UNK N   1      25.479  27.681  -2.684  0.00  0.00    -0.650 OA
BRANCH   5   7
HETATM    7  O   UNK N   1      27.442  28.315  -3.505  0.00  0.00    -0.776 OA
HETATM    8  H   UNK N   1      27.639  29.145  -3.117  0.00  0.00     0.167 HD
ENDBRANCH   5   7
ENDBRANCH   4   5
ENDBRANCH   3   4
ENDBRANCH   2   3
ENDBRANCH   1   2
BRANCH   1   9
HETATM    9  C   UNK N   1      26.080  24.232  -6.841  0.00  0.00     0.000 C 
BRANCH   9  10
HETATM   10  C   UNK N   1      26.794  23.635  -5.649  0.00  0.00     0.000 C 
BRANCH  10  11
HETATM   11  C   UNK N   1      26.213  24.227  -4.388  0.00  0.00     0.000 C 
BRANCH  11  12
HETATM   12  C   UNK N   1      27.298  24.421  -3.354  0.00  0.00     0.001 C 
BRANCH  12  13
HETATM   13  C   UNK N   1      28.513  24.983  -4.057  0.00  0.00     0.010 C 
BRANCH  13  14
HETATM   14  C   UNK N   1      29.776  24.376  -3.492  0.00  0.00     0.070 C 
BRANCH  14  15
HETATM   15  S   UNK N   1      29.320  23.027  -2.369  0.00  0.00    -0.182 SA
HETATM   16  H   UNK N   1      28.744  21.897  -2.862  0.00  0.00     0.101 HD
ENDBRANCH  14  15
ENDBRANCH  13  14
ENDBRANCH  12  13
ENDBRANCH  11  12
ENDBRANCH  10  11
ENDBRANCH   9  10
ENDBRANCH   1   9
TORSDOF 12
ENDMDL
MODEL 4
REMARK VINA RESULT:      -4.2      1.488      2.113
REMARK  12 active torsions:
REMARK  status: ('A' for Active; 'I' for Inactive)
REMARK    1  A    between atoms: C_2  and  C_4 
REMARK    2  A    between atoms: C_2  and  O_3 
REMARK    3  A    between atoms: C_4  and  C_5 
REMARK    4  A    between atoms: C_5  and  C_6 
REMARK    5  A    between atoms: C_6  and  C_7 
REMARK    6  A    between atoms: C_7  and  C_8 
REMARK    7  A    between atoms: C_8  and  C_9 
REMARK    8  A    between atoms: C_9  and  C_10 
REMARK    9  A    between atoms: C_10  and  C_11 
REMARK   10  A    between atoms: C_11  and  C_12 
REMARK   11  A    between atoms: C_12  and  C_13 
REMARK   12  A    between atoms: C_13  and  S_14 
ROOT
HETATM    1  C   UNK N   1      23.023  18.457   4.279  0.00  0.00     0.000 C 
ENDROOT
BRANCH   1   2
HETATM    2  C   UNK N   1      21.686  18.087   3.680  0.00  0.00     0.001 C 
BRANCH   2   3
HETATM    3  C   UNK N   1      20.894  19.366   3.544  0.00  0.00     0.010 C 
BRANCH   3   4
HETATM    4  C   UNK N   1      20.213  19.451   2.192  0.00  0.00     0.110 C 
BRANCH   4   5
HETATM    5  C   UNK N   1      21.001  20.314   1.251  0.00  0.00     0.139 C 
HETATM    6  O   UNK N   1      22.031  20.838   1.637  0.00  0.00    -0.650 OA
BRANCH   5   7
HETATM    7  O   UNK N   1      20.585  20.516  -0.016  0.00  0.00    -0.776 OA
HETATM    8  H   UNK N   1      21.159  20.916  -0.640  0.00  0.00     0.167 HD
ENDBRANCH   5   7
ENDBRANCH   4   5
ENDBRANCH   3   4
ENDBRANCH   2   3
ENDBRANCH   1   2
BRANCH   1   9
HETATM    9  C   UNK N   1      24.058  17.408   3.956  0.00  0.00     0.000 C 
BRANCH   9  10
HETATM   10  C   UNK N   1      25.355  18.104   3.608  0.00  0.00     0.000 C 
BRANCH  10  11
HETATM   11  C   UNK N   1      25.050  19.527   3.209  0.00  0.00     0.000 C 
BRANCH  11  12
HETATM   12  C   UNK N   1      26.198  20.434   3.589  0.00  0.00     0.001 C 
BRANCH  12  13
HETATM   13  C   UNK N   1      27.329  19.563   4.087  0.00  0.00     0.010 C 
BRANCH  13  14
HETATM   14  C   UNK N   1      27.934  20.151   5.341  0.00  0.00     0.070 C 
BRANCH  14  15
HETATM   15  S   UNK N   1      26.699  21.215   6.135  0.00  0.00    -0.182 SA
HETATM   16  H   UNK N   1      26.909  21.675   7.399  0.00  0.00     0.101 HD
ENDBRANCH  14  15
ENDBRANCH  13  14
ENDBRANCH  12  13
ENDBRANCH  11  12
ENDBRANCH  10  11
ENDBRANCH   9  10
ENDBRANCH   1   9
TORSDOF 12
ENDMDL
MODEL 5
REMARK VINA RESULT:      -4.1     14.646     17.257
REMARK  12 active torsions:
REMARK  status: ('A' for Active; 'I' for Inactive)
REMARK    1  A    between atoms: C_2  and  C_4 
REMARK    2  A    between atoms: C_2  and  O_3 
REMARK    3  A    between atoms: C_4  and  C_5 
REMARK    4  A    between atoms: C_5  and  C_6 
REMARK    5  A    between atoms: C_6  and  C_7 
REMARK    6  A    between atoms: C_7  and  C_8 
REMARK    7  A    between atoms: C_8  and  C_9 
REMARK    8  A    between atoms: C_9  and  C_10 
REMARK    9  A    between atoms: C_10  and  C_11 
REMARK   10  A    between atoms: C_11  and  C_12 
REMARK   11  A    between atoms: C_12  and  C_13 
REMARK   12  A    between atoms: C_13  and  S_14 
ROOT
HETATM    1  C   UNK N   1      36.560  13.425  14.221  0.00  0.00     0.000 C 
ENDROOT
BRANCH   1   2
HETATM    2  C   UNK N   1      35.297  13.610  13.413  0.00  0.00     0.001 C 
BRANCH   2   3
HETATM    3  C   UNK N   1      35.719  13.909  11.994  0.00  0.00     0.010 C 
BRANCH   3   4
HETATM    4  C   UNK N   1      34.874  15.013  11.390  0.00  0.00     0.110 C 
BRANCH   4   5
HETATM    5  C   UNK N   1      35.730  16.171  10.969  0.00  0.00     0.139 C 
HETATM    6  O   UNK N   1      35.207  17.237  10.698  0.00  0.00    -0.650 OA
BRANCH   5   7
HETATM    7  O   UNK N   1      37.071  16.048  10.888  0.00  0.00    -0.776 OA
HETATM    8  H   UNK N   1      37.489  16.014  10.050  0.00  0.00     0.167 HD
ENDBRANCH   5   7
ENDBRANCH   4   5
ENDBRANCH   3   4
ENDBRANCH   2   3
ENDBRANCH   1   2
BRANCH   1   9
HETATM    9  C   UNK N   1      36.286  13.626  15.691  0.00  0.00     0.000 C 
BRANCH   9  10
HETATM   10  C   UNK N   1      35.065  12.816  16.066  0.00  0.00     0.000 C 
BRANCH  10  11
HETATM   11  C   UNK N   1      35.445  11.843  17.155  0.00  0.00     0.000 C 
BRANCH  11  12
HETATM   12  C   UNK N   1      34.950  10.456  16.812  0.00  0.00     0.001 C 
BRANCH  12  13
HETATM   13  C   UNK N   1      34.568  10.450  15.349  0.00  0.00     0.010 C 
BRANCH  13  14
HETATM   14  C   UNK N   1      35.257   9.313  14.630  0.00  0.00     0.070 C 
BRANCH  14  15
HETATM   15  S   UNK N   1      37.035   9.662  14.563  0.00  0.00    -0.182 SA
HETATM   16  H   UNK N   1      37.894   8.727  14.075  0.00  0.00     0.101 HD
ENDBRANCH  14  15
ENDBRANCH  13  14
ENDBRANCH  12  13
ENDBRANCH  11  12
ENDBRANCH  10  11
ENDBRANCH   9  10
ENDBRANCH   1   9
TORSDOF 12
ENDMDL
MODEL 6
REMARK VINA RESULT:      -4.1      3.449      4.809
REMARK  12 active torsions:
REMARK  status: ('A' for Active; 'I' for Inactive)
REMARK    1  A    between atoms: C_2  and  C_4 
REMARK    2  A    between atoms: C_2  and  O_3 
REMARK    3  A    between atoms: C_4  and  C_5 
REMARK    4  A    between atoms: C_5  and  C_6 
REMARK    5  A    between atoms: C_6  and  C_7 
REMARK    6  A    between atoms: C_7  and  C_8 
REMARK    7  A    between atoms: C_8  and  C_9 
REMARK    8  A    between atoms: C_9  and  C_10 
REMARK    9  A    between atoms: C_10  and  C_11 
REMARK   10  A    between atoms: C_11  and  C_12 
REMARK   11  A    between atoms: C_12  and  C_13 
REMARK   12  A    between atoms: C_13  and  S_14 
ROOT
HETATM    1  C   UNK N   1      27.739  20.094   6.364  0.00  0.00     0.000 C 
ENDROOT
BRANCH   1   2
HETATM    2  C   UNK N   1      26.600  20.813   5.681  0.00  0.00     0.001 C 
BRANCH   2   3
HETATM    3  C   UNK N   1      26.428  20.179   4.321  0.00  0.00     0.010 C 
BRANCH   3   4
HETATM    4  C   UNK N   1      24.973  19.855   4.045  0.00  0.00     0.110 C 
BRANCH   4   5
HETATM    5  C   UNK N   1      24.457  20.661   2.889  0.00  0.00     0.139 C 
HETATM    6  O   UNK N   1      25.154  20.807   1.901  0.00  0.00    -0.650 OA
BRANCH   5   7
HETATM    7  O   UNK N   1      23.232  21.225   2.930  0.00  0.00    -0.776 OA
HETATM    8  H   UNK N   1      23.147  22.153   3.029  0.00  0.00     0.167 HD
ENDBRANCH   5   7
ENDBRANCH   4   5
ENDBRANCH   3   4
ENDBRANCH   2   3
ENDBRANCH   1   2
BRANCH   1   9
HETATM    9  C   UNK N   1      27.613  18.602   6.178  0.00  0.00     0.000 C 
BRANCH   9  10
HETATM   10  C   UNK N   1      28.615  17.919   7.082  0.00  0.00     0.000 C 
BRANCH  10  11
HETATM   11  C   UNK N   1      28.846  18.788   8.294  0.00  0.00     0.000 C 
BRANCH  11  12
HETATM   12  C   UNK N   1      29.931  18.193   9.164  0.00  0.00     0.001 C 
BRANCH  12  13
HETATM   13  C   UNK N   1      30.832  17.365   8.277  0.00  0.00     0.010 C 
BRANCH  13  14
HETATM   14  C   UNK N   1      32.224  17.951   8.246  0.00  0.00     0.070 C 
BRANCH  14  15
HETATM   15  S   UNK N   1      33.408  16.660   8.715  0.00  0.00    -0.182 SA
HETATM   16  H   UNK N   1      34.172  16.810   9.831  0.00  0.00     0.101 HD
ENDBRANCH  14  15
ENDBRANCH  13  14
ENDBRANCH  12  13
ENDBRANCH  11  12
ENDBRANCH  10  11
ENDBRANCH   9  10
ENDBRANCH   1   9
TORSDOF 12
ENDMDL
MODEL 7
REMARK VINA RESULT:      -4.1      7.010      8.770
REMARK  12 active torsions:
REMARK  status: ('A' for Active; 'I' for Inactive)
REMARK    1  A    between atoms: C_2  and  C_4 
REMARK    2  A    between atoms: C_2  and  O_3 
REMARK    3  A    between atoms: C_4  and  C_5 
REMARK    4  A    between atoms: C_5  and  C_6 
REMARK    5  A    between atoms: C_6  and  C_7 
REMARK    6  A    between atoms: C_7  and  C_8 
REMARK    7  A    between atoms: C_8  and  C_9 
REMARK    8  A    between atoms: C_9  and  C_10 
REMARK    9  A    between atoms: C_10  and  C_11 
REMARK   10  A    between atoms: C_11  and  C_12 
REMARK   11  A    between atoms: C_12  and  C_13 
REMARK   12  A    between atoms: C_13  and  S_14 
ROOT
HETATM    1  C   UNK N   1      32.632  16.808   7.301  0.00  0.00     0.000 C 
ENDROOT
BRANCH   1   2
HETATM    2  C   UNK N   1      32.033  17.669   8.389  0.00  0.00     0.001 C 
BRANCH   2   3
HETATM    3  C   UNK N   1      30.534  17.495   8.316  0.00  0.00     0.010 C 
BRANCH   3   4
HETATM    4  C   UNK N   1      29.815  18.614   9.044  0.00  0.00     0.110 C 
BRANCH   4   5
HETATM    5  C   UNK N   1      28.367  18.662   8.649  0.00  0.00     0.139 C 
HETATM    6  O   UNK N   1      28.040  19.263   7.641  0.00  0.00    -0.650 OA
BRANCH   5   7
HETATM    7  O   UNK N   1      27.425  18.050   9.395  0.00  0.00    -0.776 OA
HETATM    8  H   UNK N   1      27.155  18.426  10.210  0.00  0.00     0.167 HD
ENDBRANCH   5   7
ENDBRANCH   4   5
ENDBRANCH   3   4
ENDBRANCH   2   3
ENDBRANCH   1   2
BRANCH   1   9
HETATM    9  C   UNK N   1      33.695  17.568   6.547  0.00  0.00     0.000 C 
BRANCH   9  10
HETATM   10  C   UNK N   1      33.641  17.154   5.093  0.00  0.00     0.000 C 
BRANCH  10  11
HETATM   11  C   UNK N   1      32.380  17.709   4.477  0.00  0.00     0.000 C 
BRANCH  11  12
HETATM   12  C   UNK N   1      31.934  16.837   3.325  0.00  0.00     0.001 C 
BRANCH  12  13
HETATM   13  C   UNK N   1      30.464  16.538   3.514  0.00  0.00     0.010 C 
BRANCH  13  14
HETATM   14  C   UNK N   1      29.898  17.370   4.641  0.00  0.00     0.070 C 
BRANCH  14  15
HETATM   15  S   UNK N   1      28.111  17.547   4.389  0.00  0.00    -0.182 SA
HETATM   16  H   UNK N   1      27.291  17.753   5.455  0.00  0.00     0.101 HD
ENDBRANCH  14  15
ENDBRANCH  13  14
ENDBRANCH  12  13
ENDBRANCH  11  12
ENDBRANCH  10  11
ENDBRANCH   9  10
ENDBRANCH   1   9
TORSDOF 12
ENDMDL
MODEL 8
REMARK VINA RESULT:      -4.1      8.163     10.079
REMARK  12 active torsions:
REMARK  status: ('A' for Active; 'I' for Inactive)
REMARK    1  A    between atoms: C_2  and  C_4 
REMARK    2  A    between atoms: C_2  and  O_3 
REMARK    3  A    between atoms: C_4  and  C_5 
REMARK    4  A    between atoms: C_5  and  C_6 
REMARK    5  A    between atoms: C_6  and  C_7 
REMARK    6  A    between atoms: C_7  and  C_8 
REMARK    7  A    between atoms: C_8  and  C_9 
REMARK    8  A    between atoms: C_9  and  C_10 
REMARK    9  A    between atoms: C_10  and  C_11 
REMARK   10  A    between atoms: C_11  and  C_12 
REMARK   11  A    between atoms: C_12  and  C_13 
REMARK   12  A    between atoms: C_13  and  S_14 
ROOT
HETATM    1  C   UNK N   1      29.561  17.413   8.633  0.00  0.00     0.000 C 
ENDROOT
BRANCH   1   2
HETATM    2  C   UNK N   1      30.725  18.262   9.089  0.00  0.00     0.001 C 
BRANCH   2   3
HETATM    3  C   UNK N   1      31.798  18.145   8.033  0.00  0.00     0.010 C 
BRANCH   3   4
HETATM    4  C   UNK N   1      33.114  17.691   8.634  0.00  0.00     0.110 C 
BRANCH   4   5
HETATM    5  C   UNK N   1      34.273  18.240   7.855  0.00  0.00     0.139 C 
HETATM    6  O   UNK N   1      34.995  19.079   8.364  0.00  0.00    -0.650 OA
BRANCH   5   7
HETATM    7  O   UNK N   1      34.526  17.817   6.599  0.00  0.00    -0.776 OA
HETATM    8  H   UNK N   1      34.887  18.409   5.969  0.00  0.00     0.167 HD
ENDBRANCH   5   7
ENDBRANCH   4   5
ENDBRANCH   3   4
ENDBRANCH   2   3
ENDBRANCH   1   2
BRANCH   1   9
HETATM    9  C   UNK N   1      28.802  18.102   7.526  0.00  0.00     0.000 C 
BRANCH   9  10
HETATM   10  C   UNK N   1      28.260  17.048   6.587  0.00  0.00     0.000 C 
BRANCH  10  11
HETATM   11  C   UNK N   1      29.395  16.519   5.745  0.00  0.00     0.000 C 
BRANCH  11  12
HETATM   12  C   UNK N   1      29.809  17.550   4.719  0.00  0.00     0.001 C 
BRANCH  12  13
HETATM   13  C   UNK N   1      31.280  17.353   4.433  0.00  0.00     0.010 C 
BRANCH  13  14
HETATM   14  C   UNK N   1      31.501  16.070   3.666  0.00  0.00     0.070 C 
BRANCH  14  15
HETATM   15  S   UNK N   1      33.218  16.028   3.086  0.00  0.00    -0.182 SA
HETATM   16  H   UNK N   1      33.485  15.970   1.753  0.00  0.00     0.101 HD
ENDBRANCH  14  15
ENDBRANCH  13  14
ENDBRANCH  12  13
ENDBRANCH  11  12
ENDBRANCH  10  11
ENDBRANCH   9  10
ENDBRANCH   1   9
TORSDOF 12
ENDMDL
MODEL 9
REMARK VINA RESULT:      -4.0     10.442     12.027
REMARK  12 active torsions:
REMARK  status: ('A' for Active; 'I' for Inactive)
REMARK    1  A    between atoms: C_2  and  C_4 
REMARK    2  A    between atoms: C_2  and  O_3 
REMARK    3  A    between atoms: C_4  and  C_5 
REMARK    4  A    between atoms: C_5  and  C_6 
REMARK    5  A    between atoms: C_6  and  C_7 
REMARK    6  A    between atoms: C_7  and  C_8 
REMARK    7  A    between atoms: C_8  and  C_9 
REMARK    8  A    between atoms: C_9  and  C_10 
REMARK    9  A    between atoms: C_10  and  C_11 
REMARK   10  A    between atoms: C_11  and  C_12 
REMARK   11  A    between atoms: C_12  and  C_13 
REMARK   12  A    between atoms: C_13  and  S_14 
ROOT
HETATM    1  C   UNK N   1      28.133  24.015  -5.320  0.00  0.00     0.000 C 
ENDROOT
BRANCH   1   2
HETATM    2  C   UNK N   1      29.209  22.954  -5.283  0.00  0.00     0.001 C 
BRANCH   2   3
HETATM    3  C   UNK N   1      30.284  23.446  -4.343  0.00  0.00     0.010 C 
BRANCH   3   4
HETATM    4  C   UNK N   1      31.314  22.368  -4.072  0.00  0.00     0.110 C 
BRANCH   4   5
HETATM    5  C   UNK N   1      31.522  22.188  -2.597  0.00  0.00     0.139 C 
HETATM    6  O   UNK N   1      30.853  22.837  -1.813  0.00  0.00    -0.650 OA
BRANCH   5   7
HETATM    7  O   UNK N   1      32.441  21.318  -2.128  0.00  0.00    -0.776 OA
HETATM    8  H   UNK N   1      33.105  20.985  -2.699  0.00  0.00     0.167 HD
ENDBRANCH   5   7
ENDBRANCH   4   5
ENDBRANCH   3   4
ENDBRANCH   2   3
ENDBRANCH   1   2
BRANCH   1   9
HETATM    9  C   UNK N   1      27.522  24.198  -3.953  0.00  0.00     0.000 C 
BRANCH   9  10
HETATM   10  C   UNK N   1      26.168  24.853  -4.117  0.00  0.00     0.000 C 
BRANCH  10  11
HETATM   11  C   UNK N   1      26.266  26.290  -3.664  0.00  0.00     0.000 C 
BRANCH  11  12
HETATM   12  C   UNK N   1      26.217  27.217  -4.857  0.00  0.00     0.001 C 
BRANCH  12  13
HETATM   13  C   UNK N   1      25.158  26.699  -5.803  0.00  0.00     0.010 C 
BRANCH  13  14
HETATM   14  C   UNK N   1      25.744  26.471  -7.177  0.00  0.00     0.070 C 
BRANCH  14  15
HETATM   15  S   UNK N   1      27.378  27.254  -7.247  0.00  0.00    -0.182 SA
HETATM   16  H   UNK N   1      27.874  27.689  -8.437  0.00  0.00     0.101 HD
ENDBRANCH  14  15
ENDBRANCH  13  14
ENDBRANCH  12  13
ENDBRANCH  11  12
ENDBRANCH  10  11
ENDBRANCH   9  10
ENDBRANCH   1   9
TORSDOF 12
ENDMDL
