REMARK  5 active torsions:
REMARK  status: ('A' for Active; 'I' for Inactive)
REMARK    1  A    between atoms: O_2  and  C_3 
REMARK    2  A    between atoms: C_8  and  C_9 
REMARK    3  A    between atoms: C_15  and  N_16 
REMARK       I    between atoms: N_16  and  C_17 
REMARK    4  A    between atoms: C_17  and  C_19 
REMARK    5  A    between atoms: C_22  and  O_24 
ROOT
HETATM    1  C   UNK N   1      -3.946   3.073  -0.001  0.00  0.00     0.141 C 
HETATM    2  C   UNK N   1      -3.860   4.520   0.006  0.00  0.00     0.107 C 
HETATM    3  N   UNK N   1      -3.740   5.671   0.011  0.00  0.00    -0.191 NA
HETATM    4  C   UNK N   1      -5.139   2.431  -0.000  0.00  0.00     0.065 C 
HETATM    5  C   UNK N   1      -6.420   3.192   0.007  0.00  0.00     0.077 C 
ENDROOT
BRANCH   1   6
HETATM    6  C   UNK N   1      -2.672   2.343  -0.006  0.00  0.00     0.269 C 
HETATM    7  N   UNK N   1      -2.661   0.980  -0.005  0.00  0.00    -0.321 N 
HETATM    8  H   UNK N   1      -3.528   0.513  -0.006  0.00  0.00     0.169 HD
HETATM    9  O   UNK N   1      -1.629   2.987  -0.008  0.00  0.00    -0.266 OA
BRANCH   7  10
HETATM   10  C   UNK N   1      -1.490   0.193  -0.003  0.00  0.00     0.057 A 
HETATM   11  C   UNK N   1      -1.557  -1.212  -0.002  0.00  0.00     0.061 A 
HETATM   12  C   UNK N   1      -0.363  -1.958   0.000  0.00  0.00     0.038 A 
HETATM   13 Cl   UNK N   1      -3.112  -2.034  -0.005  0.00  0.00    -0.082 Cl
HETATM   14  C   UNK N   1       0.879  -1.284   0.003  0.00  0.00    -0.021 A 
HETATM   15  C   UNK N   1       0.887   0.100   0.003  0.00  0.00     0.014 A 
HETATM   16  C   UNK N   1      -0.258   0.820   0.000  0.00  0.00     0.032 A 
BRANCH  14  17
HETATM   17  C   UNK N   1       2.187  -1.978   0.003  0.00  0.00     0.007 A 
HETATM   18  C   UNK N   1       3.417  -1.247   0.001  0.00  0.00     0.079 A 
HETATM   19  C   UNK N   1       4.628  -1.946  -0.000  0.00  0.00     0.037 A 
HETATM   20  C   UNK N   1       4.640  -3.338  -0.000  0.00  0.00     0.003 A 
HETATM   21  C   UNK N   1       3.442  -4.052   0.001  0.00  0.00     0.001 A 
HETATM   22  C   UNK N   1       2.222  -3.378   0.003  0.00  0.00     0.015 A 
BRANCH  18  23
HETATM   23  O   UNK N   1       3.415   0.114   0.001  0.00  0.00    -0.355 OA
HETATM   24  C   UNK N   1       4.535   0.909  -0.001  0.00  0.00     0.210 C 
ENDBRANCH  18  23
ENDBRANCH  14  17
ENDBRANCH   7  10
ENDBRANCH   1   6
BRANCH   4  25
HETATM   25  O   UNK N   1      -5.208   1.083  -0.007  0.00  0.00    -0.364 OA
HETATM   26  H   UNK N   1      -6.042   0.656  -0.011  0.00  0.00     0.217 HD
ENDBRANCH   4  25
TORSDOF 5
