MODEL 1
REMARK VINA RESULT:      -7.1      0.000      0.000
REMARK  5 active torsions:
REMARK  status: ('A' for Active; 'I' for Inactive)
REMARK    1  A    between atoms: O_2  and  C_3 
REMARK    2  A    between atoms: C_8  and  C_9 
REMARK    3  A    between atoms: C_15  and  N_16 
REMARK       I    between atoms: N_16  and  C_17 
REMARK    4  A    between atoms: C_17  and  C_19 
REMARK    5  A    between atoms: C_22  and  O_24 
ROOT
HETATM    1  C   UNK N   1      33.510  15.960   9.225  0.00  0.00     0.141 C 
HETATM    2  C   UNK N   1      34.602  16.755   9.749  0.00  0.00     0.107 C 
HETATM    3  N   UNK N   1      35.455  17.431  10.143  0.00  0.00    -0.191 NA
HETATM    4  C   UNK N   1      33.378  14.646   9.525  0.00  0.00     0.065 C 
HETATM    5  C   UNK N   1      34.357  13.960  10.414  0.00  0.00     0.077 C 
ENDROOT
BRANCH   1   6
HETATM    6  C   UNK N   1      32.557  16.655   8.349  0.00  0.00     0.269 C 
HETATM    7  N   UNK N   1      31.221  16.406   8.452  0.00  0.00    -0.321 N 
HETATM    8  H   UNK N   1      30.925  15.755   9.130  0.00  0.00     0.169 HD
HETATM    9  O   UNK N   1      32.993  17.455   7.530  0.00  0.00    -0.266 OA
BRANCH   7  10
HETATM   10  C   UNK N   1      30.233  17.018   7.653  0.00  0.00     0.057 A 
HETATM   11  C   UNK N   1      29.425  18.053   8.158  0.00  0.00     0.061 A 
HETATM   12  C   UNK N   1      28.451  18.635   7.325  0.00  0.00     0.038 A 
HETATM   13 Cl   UNK N   1      29.626  18.618   9.812  0.00  0.00    -0.082 Cl
HETATM   14  C   UNK N   1      28.301  18.171   5.999  0.00  0.00    -0.021 A 
HETATM   15  C   UNK N   1      29.122  17.149   5.553  0.00  0.00     0.014 A 
HETATM   16  C   UNK N   1      30.059  16.588   6.350  0.00  0.00     0.032 A 
BRANCH  14  17
HETATM   17  C   UNK N   1      27.309  18.719   5.047  0.00  0.00     0.007 A 
HETATM   18  C   UNK N   1      26.061  18.060   4.810  0.00  0.00     0.079 A 
HETATM   19  C   UNK N   1      25.156  18.616   3.901  0.00  0.00     0.037 A 
HETATM   20  C   UNK N   1      25.463  19.797   3.231  0.00  0.00     0.003 A 
HETATM   21  C   UNK N   1      26.679  20.440   3.459  0.00  0.00     0.001 A 
HETATM   22  C   UNK N   1      27.598  19.906   4.362  0.00  0.00     0.015 A 
BRANCH  18  23
HETATM   23  O   UNK N   1      25.752  16.906   5.461  0.00  0.00    -0.355 OA
HETATM   24  C   UNK N   1      25.635  15.670   4.873  0.00  0.00     0.210 C 
ENDBRANCH  18  23
ENDBRANCH  14  17
ENDBRANCH   7  10
ENDBRANCH   1   6
BRANCH   4  25
HETATM   25  O   UNK N   1      32.356  13.914   9.032  0.00  0.00    -0.364 OA
HETATM   26  H   UNK N   1      31.474  14.214   9.130  0.00  0.00     0.217 HD
ENDBRANCH   4  25
TORSDOF 5
ENDMDL
MODEL 2
REMARK VINA RESULT:      -6.9      8.586      9.592
REMARK  5 active torsions:
REMARK  status: ('A' for Active; 'I' for Inactive)
REMARK    1  A    between atoms: O_2  and  C_3 
REMARK    2  A    between atoms: C_8  and  C_9 
REMARK    3  A    between atoms: C_15  and  N_16 
REMARK       I    between atoms: N_16  and  C_17 
REMARK    4  A    between atoms: C_17  and  C_19 
REMARK    5  A    between atoms: C_22  and  O_24 
ROOT
HETATM    1  C   UNK N   1      21.725  12.656  10.673  0.00  0.00     0.141 C 
HETATM    2  C   UNK N   1      20.614  12.143  11.449  0.00  0.00     0.107 C 
HETATM    3  N   UNK N   1      19.694  11.751  12.033  0.00  0.00    -0.191 NA
HETATM    4  C   UNK N   1      23.008  12.514  11.087  0.00  0.00     0.065 C 
HETATM    5  C   UNK N   1      23.329  11.820  12.365  0.00  0.00     0.077 C 
ENDROOT
BRANCH   1   6
HETATM    6  C   UNK N   1      21.386  13.338   9.418  0.00  0.00     0.269 C 
HETATM    7  N   UNK N   1      21.702  14.652   9.243  0.00  0.00    -0.321 N 
HETATM    8  H   UNK N   1      22.164  15.116   9.979  0.00  0.00     0.169 HD
HETATM    9  O   UNK N   1      20.813  12.700   8.542  0.00  0.00    -0.266 OA
BRANCH   7  10
HETATM   10  C   UNK N   1      21.412  15.393   8.078  0.00  0.00     0.057 A 
HETATM   11  C   UNK N   1      20.194  16.083   7.938  0.00  0.00     0.061 A 
HETATM   12  C   UNK N   1      19.945  16.810   6.758  0.00  0.00     0.038 A 
HETATM   13 Cl   UNK N   1      18.990  16.043   9.221  0.00  0.00    -0.082 Cl
HETATM   14  C   UNK N   1      20.921  16.832   5.736  0.00  0.00    -0.021 A 
HETATM   15  C   UNK N   1      22.102  16.135   5.926  0.00  0.00     0.014 A 
HETATM   16  C   UNK N   1      22.344  15.436   7.058  0.00  0.00     0.032 A 
BRANCH  14  17
HETATM   17  C   UNK N   1      20.755  17.568   4.462  0.00  0.00     0.007 A 
HETATM   18  C   UNK N   1      20.124  16.962   3.330  0.00  0.00     0.079 A 
HETATM   19  C   UNK N   1      19.991  17.695   2.147  0.00  0.00     0.037 A 
HETATM   20  C   UNK N   1      20.466  19.001   2.069  0.00  0.00     0.003 A 
HETATM   21  C   UNK N   1      21.082  19.593   3.171  0.00  0.00     0.001 A 
HETATM   22  C   UNK N   1      21.226  18.883   4.361  0.00  0.00     0.015 A 
BRANCH  18  23
HETATM   23  O   UNK N   1      19.656  15.685   3.397  0.00  0.00    -0.355 OA
HETATM   24  C   UNK N   1      19.778  14.742   2.406  0.00  0.00     0.210 C 
ENDBRANCH  18  23
ENDBRANCH  14  17
ENDBRANCH   7  10
ENDBRANCH   1   6
BRANCH   4  25
HETATM   25  O   UNK N   1      24.036  12.995  10.356  0.00  0.00    -0.364 OA
HETATM   26  H   UNK N   1      24.829  12.503  10.283  0.00  0.00     0.217 HD
ENDBRANCH   4  25
TORSDOF 5
ENDMDL
MODEL 3
REMARK VINA RESULT:      -6.8      3.685      5.918
REMARK  5 active torsions:
REMARK  status: ('A' for Active; 'I' for Inactive)
REMARK    1  A    between atoms: O_2  and  C_3 
REMARK    2  A    between atoms: C_8  and  C_9 
REMARK    3  A    between atoms: C_15  and  N_16 
REMARK       I    between atoms: N_16  and  C_17 
REMARK    4  A    between atoms: C_17  and  C_19 
REMARK    5  A    between atoms: C_22  and  O_24 
ROOT
HETATM    1  C   UNK N   1      35.328  13.008  12.873  0.00  0.00     0.141 C 
HETATM    2  C   UNK N   1      34.618  11.783  13.183  0.00  0.00     0.107 C 
HETATM    3  N   UNK N   1      34.032  10.805  13.383  0.00  0.00    -0.191 NA
HETATM    4  C   UNK N   1      36.100  13.635  13.793  0.00  0.00     0.065 C 
HETATM    5  C   UNK N   1      36.252  13.086  15.170  0.00  0.00     0.077 C 
ENDROOT
BRANCH   1   6
HETATM    6  C   UNK N   1      35.163  13.532  11.512  0.00  0.00     0.269 C 
HETATM    7  N   UNK N   1      34.051  14.247  11.181  0.00  0.00    -0.321 N 
HETATM    8  H   UNK N   1      33.377  14.399  11.882  0.00  0.00     0.169 HD
HETATM    9  O   UNK N   1      36.044  13.308  10.688  0.00  0.00    -0.266 OA
BRANCH   7  10
HETATM   10  C   UNK N   1      33.802  14.784   9.900  0.00  0.00     0.057 A 
HETATM   11  C   UNK N   1      34.372  16.005   9.499  0.00  0.00     0.061 A 
HETATM   12  C   UNK N   1      34.096  16.504   8.212  0.00  0.00     0.038 A 
HETATM   13 Cl   UNK N   1      35.420  16.904  10.588  0.00  0.00    -0.082 Cl
HETATM   14  C   UNK N   1      33.251  15.771   7.348  0.00  0.00    -0.021 A 
HETATM   15  C   UNK N   1      32.716  14.575   7.794  0.00  0.00     0.014 A 
HETATM   16  C   UNK N   1      32.980  14.093   9.029  0.00  0.00     0.032 A 
BRANCH  14  17
HETATM   17  C   UNK N   1      32.903  16.210   5.977  0.00  0.00     0.007 A 
HETATM   18  C   UNK N   1      31.777  17.058   5.731  0.00  0.00     0.079 A 
HETATM   19  C   UNK N   1      31.486  17.445   4.419  0.00  0.00     0.037 A 
HETATM   20  C   UNK N   1      32.282  17.012   3.362  0.00  0.00     0.003 A 
HETATM   21  C   UNK N   1      33.380  16.186   3.600  0.00  0.00     0.001 A 
HETATM   22  C   UNK N   1      33.690  15.786   4.899  0.00  0.00     0.015 A 
BRANCH  18  23
HETATM   23  O   UNK N   1      30.993  17.486   6.758  0.00  0.00    -0.355 OA
HETATM   24  C   UNK N   1      29.744  17.000   7.058  0.00  0.00     0.210 C 
ENDBRANCH  18  23
ENDBRANCH  14  17
ENDBRANCH   7  10
ENDBRANCH   1   6
BRANCH   4  25
HETATM   25  O   UNK N   1      36.758  14.775  13.494  0.00  0.00    -0.364 OA
HETATM   26  H   UNK N   1      37.555  14.741  13.002  0.00  0.00     0.217 HD
ENDBRANCH   4  25
TORSDOF 5
ENDMDL
MODEL 4
REMARK VINA RESULT:      -6.8      2.935      4.579
REMARK  5 active torsions:
REMARK  status: ('A' for Active; 'I' for Inactive)
REMARK    1  A    between atoms: O_2  and  C_3 
REMARK    2  A    between atoms: C_8  and  C_9 
REMARK    3  A    between atoms: C_15  and  N_16 
REMARK       I    between atoms: N_16  and  C_17 
REMARK    4  A    between atoms: C_17  and  C_19 
REMARK    5  A    between atoms: C_22  and  O_24 
ROOT
HETATM    1  C   UNK N   1      30.942  17.358   5.753  0.00  0.00     0.141 C 
HETATM    2  C   UNK N   1      31.439  17.145   7.098  0.00  0.00     0.107 C 
HETATM    3  N   UNK N   1      31.788  16.979   8.188  0.00  0.00    -0.191 NA
HETATM    4  C   UNK N   1      31.771  17.371   4.681  0.00  0.00     0.065 C 
HETATM    5  C   UNK N   1      33.237  17.164   4.843  0.00  0.00     0.077 C 
ENDROOT
BRANCH   1   6
HETATM    6  C   UNK N   1      29.494  17.562   5.617  0.00  0.00     0.269 C 
HETATM    7  N   UNK N   1      29.010  18.502   4.757  0.00  0.00    -0.321 N 
HETATM    8  H   UNK N   1      29.661  19.027   4.235  0.00  0.00     0.169 HD
HETATM    9  O   UNK N   1      28.740  16.872   6.293  0.00  0.00    -0.266 OA
BRANCH   7  10
HETATM   10  C   UNK N   1      27.640  18.774   4.563  0.00  0.00     0.057 A 
HETATM   11  C   UNK N   1      27.008  19.842   5.225  0.00  0.00     0.061 A 
HETATM   12  C   UNK N   1      25.638  20.078   5.002  0.00  0.00     0.038 A 
HETATM   13 Cl   UNK N   1      27.915  20.878   6.320  0.00  0.00    -0.082 Cl
HETATM   14  C   UNK N   1      24.922  19.237   4.120  0.00  0.00    -0.021 A 
HETATM   15  C   UNK N   1      25.593  18.200   3.496  0.00  0.00     0.014 A 
HETATM   16  C   UNK N   1      26.909  17.971   3.707  0.00  0.00     0.032 A 
BRANCH  14  17
HETATM   17  C   UNK N   1      23.482  19.404   3.819  0.00  0.00     0.007 A 
HETATM   18  C   UNK N   1      22.484  18.651   4.515  0.00  0.00     0.079 A 
HETATM   19  C   UNK N   1      21.137  18.841   4.195  0.00  0.00     0.037 A 
HETATM   20  C   UNK N   1      20.767  19.752   3.210  0.00  0.00     0.003 A 
HETATM   21  C   UNK N   1      21.738  20.486   2.530  0.00  0.00     0.001 A 
HETATM   22  C   UNK N   1      23.088  20.315   2.831  0.00  0.00     0.015 A 
BRANCH  18  23
HETATM   23  O   UNK N   1      22.837  17.758   5.480  0.00  0.00    -0.355 OA
HETATM   24  C   UNK N   1      22.084  16.680   5.877  0.00  0.00     0.210 C 
ENDBRANCH  18  23
ENDBRANCH  14  17
ENDBRANCH   7  10
ENDBRANCH   1   6
BRANCH   4  25
HETATM   25  O   UNK N   1      31.297  17.570   3.433  0.00  0.00    -0.364 OA
HETATM   26  H   UNK N   1      30.975  16.847   2.933  0.00  0.00     0.217 HD
ENDBRANCH   4  25
TORSDOF 5
ENDMDL
MODEL 5
REMARK VINA RESULT:      -6.8      8.221     10.976
REMARK  5 active torsions:
REMARK  status: ('A' for Active; 'I' for Inactive)
REMARK    1  A    between atoms: O_2  and  C_3 
REMARK    2  A    between atoms: C_8  and  C_9 
REMARK    3  A    between atoms: C_15  and  N_16 
REMARK       I    between atoms: N_16  and  C_17 
REMARK    4  A    between atoms: C_17  and  C_19 
REMARK    5  A    between atoms: C_22  and  O_24 
ROOT
HETATM    1  C   UNK N   1      21.707  19.676   2.918  0.00  0.00     0.141 C 
HETATM    2  C   UNK N   1      22.955  20.373   2.681  0.00  0.00     0.107 C 
HETATM    3  N   UNK N   1      23.973  20.903   2.531  0.00  0.00    -0.191 NA
HETATM    4  C   UNK N   1      20.603  19.919   2.170  0.00  0.00     0.065 C 
HETATM    5  C   UNK N   1      20.630  20.919   1.065  0.00  0.00     0.077 C 
ENDROOT
BRANCH   1   6
HETATM    6  C   UNK N   1      21.702  18.697   4.012  0.00  0.00     0.269 C 
HETATM    7  N   UNK N   1      22.282  17.475   3.842  0.00  0.00    -0.321 N 
HETATM    8  H   UNK N   1      22.701  17.281   2.972  0.00  0.00     0.169 HD
HETATM    9  O   UNK N   1      21.165  19.004   5.070  0.00  0.00    -0.266 OA
BRANCH   7  10
HETATM   10  C   UNK N   1      22.322  16.468   4.830  0.00  0.00     0.057 A 
HETATM   11  C   UNK N   1      21.255  15.567   4.995  0.00  0.00     0.061 A 
HETATM   12  C   UNK N   1      21.337  14.578   5.994  0.00  0.00     0.038 A 
HETATM   13 Cl   UNK N   1      19.831  15.667   3.966  0.00  0.00    -0.082 Cl
HETATM   14  C   UNK N   1      22.486  14.510   6.813  0.00  0.00    -0.021 A 
HETATM   15  C   UNK N   1      23.506  15.423   6.609  0.00  0.00     0.014 A 
HETATM   16  C   UNK N   1      23.431  16.373   5.649  0.00  0.00     0.032 A 
BRANCH  14  17
HETATM   17  C   UNK N   1      22.667  13.507   7.887  0.00  0.00     0.007 A 
HETATM   18  C   UNK N   1      22.063  13.676   9.173  0.00  0.00     0.079 A 
HETATM   19  C   UNK N   1      22.263  12.703  10.157  0.00  0.00     0.037 A 
HETATM   20  C   UNK N   1      23.043  11.580   9.891  0.00  0.00     0.003 A 
HETATM   21  C   UNK N   1      23.633  11.414   8.638  0.00  0.00     0.001 A 
HETATM   22  C   UNK N   1      23.447  12.370   7.641  0.00  0.00     0.015 A 
BRANCH  18  23
HETATM   23  O   UNK N   1      21.299  14.770   9.442  0.00  0.00    -0.355 OA
HETATM   24  C   UNK N   1      19.926  14.792   9.470  0.00  0.00     0.210 C 
ENDBRANCH  18  23
ENDBRANCH  14  17
ENDBRANCH   7  10
ENDBRANCH   1   6
BRANCH   4  25
HETATM   25  O   UNK N   1      19.445  19.264   2.398  0.00  0.00    -0.364 OA
HETATM   26  H   UNK N   1      18.667  19.513   1.940  0.00  0.00     0.217 HD
ENDBRANCH   4  25
TORSDOF 5
ENDMDL
MODEL 6
REMARK VINA RESULT:      -6.8      1.346      2.365
REMARK  5 active torsions:
REMARK  status: ('A' for Active; 'I' for Inactive)
REMARK    1  A    between atoms: O_2  and  C_3 
REMARK    2  A    between atoms: C_8  and  C_9 
REMARK    3  A    between atoms: C_15  and  N_16 
REMARK       I    between atoms: N_16  and  C_17 
REMARK    4  A    between atoms: C_17  and  C_19 
REMARK    5  A    between atoms: C_22  and  O_24 
ROOT
HETATM    1  C   UNK N   1      33.872  16.818   9.273  0.00  0.00     0.141 C 
HETATM    2  C   UNK N   1      34.625  17.926   8.721  0.00  0.00     0.107 C 
HETATM    3  N   UNK N   1      35.187  18.822   8.249  0.00  0.00    -0.191 NA
HETATM    4  C   UNK N   1      34.378  16.032  10.254  0.00  0.00     0.065 C 
HETATM    5  C   UNK N   1      35.739  16.278  10.809  0.00  0.00     0.077 C 
ENDROOT
BRANCH   1   6
HETATM    6  C   UNK N   1      32.535  16.592   8.710  0.00  0.00     0.269 C 
HETATM    7  N   UNK N   1      31.860  17.613   8.110  0.00  0.00    -0.321 N 
HETATM    8  H   UNK N   1      32.301  18.492   8.066  0.00  0.00     0.169 HD
HETATM    9  O   UNK N   1      32.046  15.471   8.796  0.00  0.00    -0.266 OA
BRANCH   7  10
HETATM   10  C   UNK N   1      30.572  17.495   7.548  0.00  0.00     0.057 A 
HETATM   11  C   UNK N   1      29.430  17.927   8.246  0.00  0.00     0.061 A 
HETATM   12  C   UNK N   1      28.164  17.790   7.646  0.00  0.00     0.038 A 
HETATM   13 Cl   UNK N   1      29.576  18.635   9.849  0.00  0.00    -0.082 Cl
HETATM   14  C   UNK N   1      28.062  17.219   6.357  0.00  0.00    -0.021 A 
HETATM   15  C   UNK N   1      29.218  16.809   5.716  0.00  0.00     0.014 A 
HETATM   16  C   UNK N   1      30.436  16.941   6.288  0.00  0.00     0.032 A 
BRANCH  14  17
HETATM   17  C   UNK N   1      26.778  17.034   5.643  0.00  0.00     0.007 A 
HETATM   18  C   UNK N   1      26.347  17.956   4.637  0.00  0.00     0.079 A 
HETATM   19  C   UNK N   1      25.126  17.741   3.990  0.00  0.00     0.037 A 
HETATM   20  C   UNK N   1      24.336  16.643   4.320  0.00  0.00     0.003 A 
HETATM   21  C   UNK N   1      24.754  15.745   5.301  0.00  0.00     0.001 A 
HETATM   22  C   UNK N   1      25.967  15.937   5.959  0.00  0.00     0.015 A 
BRANCH  18  23
HETATM   23  O   UNK N   1      27.113  19.032   4.308  0.00  0.00    -0.355 OA
HETATM   24  C   UNK N   1      26.672  20.142   3.630  0.00  0.00     0.210 C 
ENDBRANCH  18  23
ENDBRANCH  14  17
ENDBRANCH   7  10
ENDBRANCH   1   6
BRANCH   4  25
HETATM   25  O   UNK N   1      33.668  15.002  10.761  0.00  0.00    -0.364 OA
HETATM   26  H   UNK N   1      34.083  14.379  11.325  0.00  0.00     0.217 HD
ENDBRANCH   4  25
TORSDOF 5
ENDMDL
MODEL 7
REMARK VINA RESULT:      -6.8      2.176      2.815
REMARK  5 active torsions:
REMARK  status: ('A' for Active; 'I' for Inactive)
REMARK    1  A    between atoms: O_2  and  C_3 
REMARK    2  A    between atoms: C_8  and  C_9 
REMARK    3  A    between atoms: C_15  and  N_16 
REMARK       I    between atoms: N_16  and  C_17 
REMARK    4  A    between atoms: C_17  and  C_19 
REMARK    5  A    between atoms: C_22  and  O_24 
ROOT
HETATM    1  C   UNK N   1      33.736  14.862   8.821  0.00  0.00     0.141 C 
HETATM    2  C   UNK N   1      34.992  14.575   8.156  0.00  0.00     0.107 C 
HETATM    3  N   UNK N   1      35.970  14.354   7.579  0.00  0.00    -0.191 NA
HETATM    4  C   UNK N   1      33.622  14.825  10.171  0.00  0.00     0.065 C 
HETATM    5  C   UNK N   1      34.790  14.486  11.031  0.00  0.00     0.077 C 
ENDROOT
BRANCH   1   6
HETATM    6  C   UNK N   1      32.598  15.192   7.954  0.00  0.00     0.269 C 
HETATM    7  N   UNK N   1      32.222  16.491   7.778  0.00  0.00    -0.321 N 
HETATM    8  H   UNK N   1      32.740  17.187   8.244  0.00  0.00     0.169 HD
HETATM    9  O   UNK N   1      31.999  14.277   7.401  0.00  0.00    -0.266 OA
BRANCH   7  10
HETATM   10  C   UNK N   1      31.141  16.904   6.972  0.00  0.00     0.057 A 
HETATM   11  C   UNK N   1      31.326  17.232   5.617  0.00  0.00     0.061 A 
HETATM   12  C   UNK N   1      30.219  17.640   4.850  0.00  0.00     0.038 A 
HETATM   13 Cl   UNK N   1      32.921  17.134   4.883  0.00  0.00    -0.082 Cl
HETATM   14  C   UNK N   1      28.943  17.715   5.453  0.00  0.00    -0.021 A 
HETATM   15  C   UNK N   1      28.817  17.382   6.791  0.00  0.00     0.014 A 
HETATM   16  C   UNK N   1      29.879  16.989   7.531  0.00  0.00     0.032 A 
BRANCH  14  17
HETATM   17  C   UNK N   1      27.719  18.131   4.731  0.00  0.00     0.007 A 
HETATM   18  C   UNK N   1      27.286  19.494   4.724  0.00  0.00     0.079 A 
HETATM   19  C   UNK N   1      26.122  19.839   4.029  0.00  0.00     0.037 A 
HETATM   20  C   UNK N   1      25.391  18.868   3.351  0.00  0.00     0.003 A 
HETATM   21  C   UNK N   1      25.811  17.538   3.358  0.00  0.00     0.001 A 
HETATM   22  C   UNK N   1      26.968  17.170   4.043  0.00  0.00     0.015 A 
BRANCH  18  23
HETATM   23  O   UNK N   1      27.995  20.451   5.384  0.00  0.00    -0.355 OA
HETATM   24  C   UNK N   1      27.454  21.433   6.177  0.00  0.00     0.210 C 
ENDBRANCH  18  23
ENDBRANCH  14  17
ENDBRANCH   7  10
ENDBRANCH   1   6
BRANCH   4  25
HETATM   25  O   UNK N   1      32.448  15.095  10.780  0.00  0.00    -0.364 OA
HETATM   26  H   UNK N   1      32.293  14.792  11.653  0.00  0.00     0.217 HD
ENDBRANCH   4  25
TORSDOF 5
ENDMDL
MODEL 8
REMARK VINA RESULT:      -6.8      4.166      8.860
REMARK  5 active torsions:
REMARK  status: ('A' for Active; 'I' for Inactive)
REMARK    1  A    between atoms: O_2  and  C_3 
REMARK    2  A    between atoms: C_8  and  C_9 
REMARK    3  A    between atoms: C_15  and  N_16 
REMARK       I    between atoms: N_16  and  C_17 
REMARK    4  A    between atoms: C_17  and  C_19 
REMARK    5  A    between atoms: C_22  and  O_24 
ROOT
HETATM    1  C   UNK N   1      22.789  18.828   3.655  0.00  0.00     0.141 C 
HETATM    2  C   UNK N   1      22.682  20.168   3.113  0.00  0.00     0.107 C 
HETATM    3  N   UNK N   1      22.646  21.245   2.689  0.00  0.00    -0.191 NA
HETATM    4  C   UNK N   1      21.723  17.995   3.709  0.00  0.00     0.065 C 
HETATM    5  C   UNK N   1      20.387  18.424   3.208  0.00  0.00     0.077 C 
ENDROOT
BRANCH   1   6
HETATM    6  C   UNK N   1      24.114  18.426   4.144  0.00  0.00     0.269 C 
HETATM    7  N   UNK N   1      25.230  18.702   3.412  0.00  0.00    -0.321 N 
HETATM    8  H   UNK N   1      25.114  19.179   2.558  0.00  0.00     0.169 HD
HETATM    9  O   UNK N   1      24.188  17.839   5.218  0.00  0.00    -0.266 OA
BRANCH   7  10
HETATM   10  C   UNK N   1      26.542  18.351   3.796  0.00  0.00     0.057 A 
HETATM   11  C   UNK N   1      27.096  17.108   3.439  0.00  0.00     0.061 A 
HETATM   12  C   UNK N   1      28.409  16.799   3.844  0.00  0.00     0.038 A 
HETATM   13 Cl   UNK N   1      26.166  15.950   2.498  0.00  0.00    -0.082 Cl
HETATM   14  C   UNK N   1      29.144  17.739   4.600  0.00  0.00    -0.021 A 
HETATM   15  C   UNK N   1      28.549  18.946   4.924  0.00  0.00     0.014 A 
HETATM   16  C   UNK N   1      27.289  19.247   4.537  0.00  0.00     0.032 A 
BRANCH  14  17
HETATM   17  C   UNK N   1      30.529  17.509   5.070  0.00  0.00     0.007 A 
HETATM   18  C   UNK N   1      30.801  17.096   6.412  0.00  0.00     0.079 A 
HETATM   19  C   UNK N   1      32.125  16.891   6.810  0.00  0.00     0.037 A 
HETATM   20  C   UNK N   1      33.171  17.088   5.913  0.00  0.00     0.003 A 
HETATM   21  C   UNK N   1      32.908  17.492   4.604  0.00  0.00     0.001 A 
HETATM   22  C   UNK N   1      31.596  17.701   4.183  0.00  0.00     0.015 A 
BRANCH  18  23
HETATM   23  O   UNK N   1      29.785  16.901   7.297  0.00  0.00    -0.355 OA
HETATM   24  C   UNK N   1      29.724  17.427   8.564  0.00  0.00     0.210 C 
ENDBRANCH  18  23
ENDBRANCH  14  17
ENDBRANCH   7  10
ENDBRANCH   1   6
BRANCH   4  25
HETATM   25  O   UNK N   1      21.834  16.748   4.216  0.00  0.00    -0.364 OA
HETATM   26  H   UNK N   1      21.071  16.295   4.516  0.00  0.00     0.217 HD
ENDBRANCH   4  25
TORSDOF 5
ENDMDL
MODEL 9
REMARK VINA RESULT:      -6.7     10.146     15.531
REMARK  5 active torsions:
REMARK  status: ('A' for Active; 'I' for Inactive)
REMARK    1  A    between atoms: O_2  and  C_3 
REMARK    2  A    between atoms: C_8  and  C_9 
REMARK    3  A    between atoms: C_15  and  N_16 
REMARK       I    between atoms: N_16  and  C_17 
REMARK    4  A    between atoms: C_17  and  C_19 
REMARK    5  A    between atoms: C_22  and  O_24 
ROOT
HETATM    1  C   UNK N   1      35.859  13.820  14.850  0.00  0.00     0.141 C 
HETATM    2  C   UNK N   1      36.886  14.707  15.358  0.00  0.00     0.107 C 
HETATM    3  N   UNK N   1      37.698  15.396  15.810  0.00  0.00    -0.191 NA
HETATM    4  C   UNK N   1      35.528  13.792  13.537  0.00  0.00     0.065 C 
HETATM    5  C   UNK N   1      36.213  14.677  12.554  0.00  0.00     0.077 C 
ENDROOT
BRANCH   1   6
HETATM    6  C   UNK N   1      35.195  12.957  15.836  0.00  0.00     0.269 C 
HETATM    7  N   UNK N   1      35.928  12.107  16.609  0.00  0.00    -0.321 N 
HETATM    8  H   UNK N   1      36.905  12.098  16.485  0.00  0.00     0.169 HD
HETATM    9  O   UNK N   1      33.975  13.021  15.942  0.00  0.00    -0.266 OA
BRANCH   7  10
HETATM   10  C   UNK N   1      35.381  11.237  17.576  0.00  0.00     0.057 A 
HETATM   11  C   UNK N   1      34.901   9.963  17.221  0.00  0.00     0.061 A 
HETATM   12  C   UNK N   1      34.363   9.128  18.219  0.00  0.00     0.038 A 
HETATM   13 Cl   UNK N   1      34.971   9.413  15.552  0.00  0.00    -0.082 Cl
HETATM   14  C   UNK N   1      34.312   9.584  19.556  0.00  0.00    -0.021 A 
HETATM   15  C   UNK N   1      34.797  10.847  19.849  0.00  0.00     0.014 A 
HETATM   16  C   UNK N   1      35.316  11.651  18.893  0.00  0.00     0.032 A 
BRANCH  14  17
HETATM   17  C   UNK N   1      33.768   8.781  20.674  0.00  0.00     0.007 A 
HETATM   18  C   UNK N   1      34.598   7.886  21.420  0.00  0.00     0.079 A 
HETATM   19  C   UNK N   1      34.039   7.147  22.468  0.00  0.00     0.037 A 
HETATM   20  C   UNK N   1      32.690   7.279  22.783  0.00  0.00     0.003 A 
HETATM   21  C   UNK N   1      31.879   8.150  22.057  0.00  0.00     0.001 A 
HETATM   22  C   UNK N   1      32.413   8.898  21.009  0.00  0.00     0.015 A 
BRANCH  18  23
HETATM   23  O   UNK N   1      35.919   7.751  21.119  0.00  0.00    -0.355 OA
HETATM   24  C   UNK N   1      36.957   8.279  21.847  0.00  0.00     0.210 C 
ENDBRANCH  18  23
ENDBRANCH  14  17
ENDBRANCH   7  10
ENDBRANCH   1   6
BRANCH   4  25
HETATM   25  O   UNK N   1      34.570  12.961  13.074  0.00  0.00    -0.364 OA
HETATM   26  H   UNK N   1      33.697  13.017  13.412  0.00  0.00     0.217 HD
ENDBRANCH   4  25
TORSDOF 5
ENDMDL
