MODEL 1
REMARK VINA RESULT:      -8.1      0.000      0.000
REMARK  6 active torsions:
REMARK  status: ('A' for Active; 'I' for Inactive)
REMARK    1  A    between atoms: C_4  and  C_5 
REMARK    2  A    between atoms: C_4  and  N_18 
REMARK    3  A    between atoms: C_5  and  N_19 
REMARK    4  A    between atoms: C_6  and  C_7 
REMARK       I    between atoms: C_6  and  N_19 
REMARK    5  A    between atoms: C_14  and  C_16 
REMARK       I    between atoms: C_16  and  N_18 
REMARK    6  A    between atoms: C_21  and  N_23 
ROOT
HETATM    1  C   UNK N   1      34.603  18.084   8.675  0.00  0.00     0.251 C 
HETATM    2  N   UNK N   1      35.151  17.373   9.712  0.00  0.00    -0.355 N 
HETATM    3  O   UNK N   1      35.190  19.106   8.352  0.00  0.00    -0.268 OA
HETATM    4  H   UNK N   1      35.964  17.819  10.043  0.00  0.00     0.162 HD
ENDROOT
BRANCH   1   5
HETATM    5  C   UNK N   1      33.360  17.755   7.886  0.00  0.00     0.032 A 
HETATM    6  C   UNK N   1      33.504  17.573   6.501  0.00  0.00     0.019 A 
HETATM    7  C   UNK N   1      32.411  17.267   5.692  0.00  0.00     0.031 A 
HETATM    8  C   UNK N   1      31.125  17.129   6.238  0.00  0.00     0.042 A 
HETATM    9  C   UNK N   1      30.975  17.310   7.622  0.00  0.00     0.031 A 
HETATM   10  C   UNK N   1      32.080  17.617   8.424  0.00  0.00     0.019 A 
BRANCH   8  11
HETATM   11  N   UNK N   1      29.996  16.808   5.372  0.00  0.00    -0.290 N 
HETATM   12  C   UNK N   1      29.317  17.852   4.801  0.00  0.00     0.100 A 
HETATM   13  C   UNK N   1      28.227  17.640   3.960  0.00  0.00     0.018 A 
HETATM   14  C   UNK N   1      27.813  16.342   3.690  0.00  0.00     0.007 A 
HETATM   15  C   UNK N   1      28.491  15.271   4.261  0.00  0.00     0.075 A 
HETATM   16  C   UNK N   1      29.583  15.503   5.103  0.00  0.00     0.252 A 
HETATM   17  O   UNK N   1      30.156  14.546   5.588  0.00  0.00    -0.268 OA
ENDBRANCH   8  11
ENDBRANCH   1   5
BRANCH   2  18
HETATM   18  C   UNK N   1      34.895  16.156  10.473  0.00  0.00     0.142 C 
BRANCH  18  19
HETATM   19  C   UNK N   1      35.805  15.824  11.609  0.00  0.00     0.142 C 
BRANCH  19  20
HETATM   20  N   UNK N   1      36.582  14.597  11.568  0.00  0.00    -0.355 N 
HETATM   21  C   UNK N   1      36.723  13.469  12.327  0.00  0.00     0.258 C 
HETATM   22  O   UNK N   1      37.519  12.634  11.927  0.00  0.00    -0.267 OA
HETATM   23  H   UNK N   1      37.168  14.571  10.777  0.00  0.00     0.162 HD
BRANCH  21  24
HETATM   24  C   UNK N   1      36.006  13.145  13.597  0.00  0.00     0.074 A 
HETATM   25  C   UNK N   1      34.893  12.335  13.851  0.00  0.00     0.027 A 
HETATM   26  C   UNK N   1      34.514  12.290  15.224  0.00  0.00     0.033 A 
HETATM   27  C   UNK N   1      35.336  13.068  16.036  0.00  0.00     0.075 A 
HETATM   28 Cl   UNK N   1      35.202  13.276  17.768  0.00  0.00    -0.076 Cl
HETATM   29  S   UNK N   1      36.470  13.767  15.067  0.00  0.00    -0.072 SA
ENDBRANCH  21  24
ENDBRANCH  19  20
ENDBRANCH  18  19
ENDBRANCH   2  18
TORSDOF 6
ENDMDL
MODEL 2
REMARK VINA RESULT:      -7.7      1.583      2.107
REMARK  6 active torsions:
REMARK  status: ('A' for Active; 'I' for Inactive)
REMARK    1  A    between atoms: C_4  and  C_5 
REMARK    2  A    between atoms: C_4  and  N_18 
REMARK    3  A    between atoms: C_5  and  N_19 
REMARK    4  A    between atoms: C_6  and  C_7 
REMARK       I    between atoms: C_6  and  N_19 
REMARK    5  A    between atoms: C_14  and  C_16 
REMARK       I    between atoms: C_16  and  N_18 
REMARK    6  A    between atoms: C_21  and  N_23 
ROOT
HETATM    1  C   UNK N   1      34.545  18.148   8.464  0.00  0.00     0.251 C 
HETATM    2  N   UNK N   1      34.979  17.428   9.547  0.00  0.00    -0.355 N 
HETATM    3  O   UNK N   1      35.031  19.262   8.327  0.00  0.00    -0.268 OA
HETATM    4  H   UNK N   1      35.640  17.945  10.061  0.00  0.00     0.162 HD
ENDROOT
BRANCH   1   5
HETATM    5  C   UNK N   1      33.538  17.731   7.421  0.00  0.00     0.032 A 
HETATM    6  C   UNK N   1      32.230  17.466   7.856  0.00  0.00     0.019 A 
HETATM    7  C   UNK N   1      31.234  17.074   6.962  0.00  0.00     0.031 A 
HETATM    8  C   UNK N   1      31.508  16.931   5.593  0.00  0.00     0.042 A 
HETATM    9  C   UNK N   1      32.815  17.195   5.153  0.00  0.00     0.031 A 
HETATM   10  C   UNK N   1      33.806  17.587   6.059  0.00  0.00     0.019 A 
BRANCH   8  11
HETATM   11  N   UNK N   1      30.450  16.520   4.677  0.00  0.00    -0.290 N 
HETATM   12  C   UNK N   1      30.572  15.296   4.074  0.00  0.00     0.100 A 
HETATM   13  C   UNK N   1      29.609  14.821   3.185  0.00  0.00     0.018 A 
HETATM   14  C   UNK N   1      28.498  15.603   2.899  0.00  0.00     0.007 A 
HETATM   15  C   UNK N   1      28.359  16.848   3.502  0.00  0.00     0.075 A 
HETATM   16  C   UNK N   1      29.334  17.307   4.391  0.00  0.00     0.252 A 
HETATM   17  O   UNK N   1      29.185  18.401   4.904  0.00  0.00    -0.268 OA
ENDBRANCH   8  11
ENDBRANCH   1   5
BRANCH   2  18
HETATM   18  C   UNK N   1      34.758  16.128  10.168  0.00  0.00     0.142 C 
BRANCH  18  19
HETATM   19  C   UNK N   1      35.667  15.705  11.275  0.00  0.00     0.142 C 
BRANCH  19  20
HETATM   20  N   UNK N   1      36.738  14.762  10.999  0.00  0.00    -0.355 N 
HETATM   21  C   UNK N   1      37.164  13.555  11.479  0.00  0.00     0.258 C 
HETATM   22  O   UNK N   1      38.153  13.072  10.950  0.00  0.00    -0.267 OA
HETATM   23  H   UNK N   1      37.315  15.079  10.267  0.00  0.00     0.162 HD
BRANCH  21  24
HETATM   24  C   UNK N   1      36.549  12.759  12.583  0.00  0.00     0.074 A 
HETATM   25  C   UNK N   1      37.093  12.233  13.760  0.00  0.00     0.027 A 
HETATM   26  C   UNK N   1      36.155  11.523  14.564  0.00  0.00     0.033 A 
HETATM   27  C   UNK N   1      34.879  11.498  14.006  0.00  0.00     0.075 A 
HETATM   28 Cl   UNK N   1      33.457  10.732  14.679  0.00  0.00    -0.076 Cl
HETATM   29  S   UNK N   1      34.943  12.327  12.584  0.00  0.00    -0.072 SA
ENDBRANCH  21  24
ENDBRANCH  19  20
ENDBRANCH  18  19
ENDBRANCH   2  18
TORSDOF 6
ENDMDL
MODEL 3
REMARK VINA RESULT:      -7.6      3.767      6.180
REMARK  6 active torsions:
REMARK  status: ('A' for Active; 'I' for Inactive)
REMARK    1  A    between atoms: C_4  and  C_5 
REMARK    2  A    between atoms: C_4  and  N_18 
REMARK    3  A    between atoms: C_5  and  N_19 
REMARK    4  A    between atoms: C_6  and  C_7 
REMARK       I    between atoms: C_6  and  N_19 
REMARK    5  A    between atoms: C_14  and  C_16 
REMARK       I    between atoms: C_16  and  N_18 
REMARK    6  A    between atoms: C_21  and  N_23 
ROOT
HETATM    1  C   UNK N   1      37.086  12.512  12.945  0.00  0.00     0.251 C 
HETATM    2  N   UNK N   1      37.241  12.683  14.297  0.00  0.00    -0.355 N 
HETATM    3  O   UNK N   1      37.582  11.502  12.468  0.00  0.00    -0.268 OA
HETATM    4  H   UNK N   1      37.749  11.932  14.682  0.00  0.00     0.162 HD
ENDROOT
BRANCH   1   5
HETATM    5  C   UNK N   1      36.374  13.423  11.976  0.00  0.00     0.032 A 
HETATM    6  C   UNK N   1      37.034  13.729  10.775  0.00  0.00     0.019 A 
HETATM    7  C   UNK N   1      36.453  14.562   9.820  0.00  0.00     0.031 A 
HETATM    8  C   UNK N   1      35.184  15.125  10.029  0.00  0.00     0.042 A 
HETATM    9  C   UNK N   1      34.520  14.822  11.228  0.00  0.00     0.031 A 
HETATM   10  C   UNK N   1      35.113  13.985  12.179  0.00  0.00     0.019 A 
BRANCH   8  11
HETATM   11  N   UNK N   1      34.597  15.994   9.016  0.00  0.00    -0.290 N 
HETATM   12  C   UNK N   1      33.828  15.408   8.045  0.00  0.00     0.100 A 
HETATM   13  C   UNK N   1      33.227  16.160   7.037  0.00  0.00     0.018 A 
HETATM   14  C   UNK N   1      33.408  17.536   7.010  0.00  0.00     0.007 A 
HETATM   15  C   UNK N   1      34.185  18.147   7.988  0.00  0.00     0.075 A 
HETATM   16  C   UNK N   1      34.780  17.377   8.991  0.00  0.00     0.252 A 
HETATM   17  O   UNK N   1      35.455  17.940   9.833  0.00  0.00    -0.268 OA
ENDBRANCH   8  11
ENDBRANCH   1   5
BRANCH   2  18
HETATM   18  C   UNK N   1      36.881  13.639  15.337  0.00  0.00     0.142 C 
BRANCH  18  19
HETATM   19  C   UNK N   1      35.613  13.421  16.095  0.00  0.00     0.142 C 
BRANCH  19  20
HETATM   20  N   UNK N   1      35.370  12.134  16.727  0.00  0.00    -0.355 N 
HETATM   21  C   UNK N   1      35.017  10.872  16.337  0.00  0.00     0.258 C 
HETATM   22  O   UNK N   1      34.912  10.035  17.218  0.00  0.00    -0.267 OA
HETATM   23  H   UNK N   1      35.492  12.186  17.702  0.00  0.00     0.162 HD
BRANCH  21  24
HETATM   24  C   UNK N   1      34.746  10.405  14.944  0.00  0.00     0.074 A 
HETATM   25  C   UNK N   1      33.850  10.863  13.972  0.00  0.00     0.027 A 
HETATM   26  C   UNK N   1      33.901  10.133  12.749  0.00  0.00     0.033 A 
HETATM   27  C   UNK N   1      34.841   9.105  12.775  0.00  0.00     0.075 A 
HETATM   28 Cl   UNK N   1      35.205   7.988  11.479  0.00  0.00    -0.076 Cl
HETATM   29  S   UNK N   1      35.559   9.127  14.258  0.00  0.00    -0.072 SA
ENDBRANCH  21  24
ENDBRANCH  19  20
ENDBRANCH  18  19
ENDBRANCH   2  18
TORSDOF 6
ENDMDL
MODEL 4
REMARK VINA RESULT:      -7.5      3.546      4.319
REMARK  6 active torsions:
REMARK  status: ('A' for Active; 'I' for Inactive)
REMARK    1  A    between atoms: C_4  and  C_5 
REMARK    2  A    between atoms: C_4  and  N_18 
REMARK    3  A    between atoms: C_5  and  N_19 
REMARK    4  A    between atoms: C_6  and  C_7 
REMARK       I    between atoms: C_6  and  N_19 
REMARK    5  A    between atoms: C_14  and  C_16 
REMARK       I    between atoms: C_16  and  N_18 
REMARK    6  A    between atoms: C_21  and  N_23 
ROOT
HETATM    1  C   UNK N   1      34.710  18.204   8.684  0.00  0.00     0.251 C 
HETATM    2  N   UNK N   1      35.164  17.550   9.801  0.00  0.00    -0.355 N 
HETATM    3  O   UNK N   1      35.273  19.253   8.405  0.00  0.00    -0.268 OA
HETATM    4  H   UNK N   1      35.902  18.053  10.216  0.00  0.00     0.162 HD
ENDROOT
BRANCH   1   5
HETATM    5  C   UNK N   1      33.598  17.782   7.756  0.00  0.00     0.032 A 
HETATM    6  C   UNK N   1      32.321  17.613   8.315  0.00  0.00     0.019 A 
HETATM    7  C   UNK N   1      31.233  17.225   7.533  0.00  0.00     0.031 A 
HETATM    8  C   UNK N   1      31.380  16.989   6.157  0.00  0.00     0.042 A 
HETATM    9  C   UNK N   1      32.654  17.157   5.594  0.00  0.00     0.031 A 
HETATM   10  C   UNK N   1      33.738  17.546   6.388  0.00  0.00     0.019 A 
BRANCH   8  11
HETATM   11  N   UNK N   1      30.227  16.584   5.360  0.00  0.00    -0.290 N 
HETATM   12  C   UNK N   1      29.543  17.564   4.689  0.00  0.00     0.100 A 
HETATM   13  C   UNK N   1      28.431  17.269   3.904  0.00  0.00     0.018 A 
HETATM   14  C   UNK N   1      27.999  15.954   3.795  0.00  0.00     0.007 A 
HETATM   15  C   UNK N   1      28.682  14.948   4.470  0.00  0.00     0.075 A 
HETATM   16  C   UNK N   1      29.796  15.262   5.252  0.00  0.00     0.252 A 
HETATM   17  O   UNK N   1      30.373  14.360   5.831  0.00  0.00    -0.268 OA
ENDBRANCH   8  11
ENDBRANCH   1   5
BRANCH   2  18
HETATM   18  C   UNK N   1      34.886  16.337  10.559  0.00  0.00     0.142 C 
BRANCH  18  19
HETATM   19  C   UNK N   1      36.039  15.536  11.066  0.00  0.00     0.142 C 
BRANCH  19  20
HETATM   20  N   UNK N   1      36.013  14.088  10.944  0.00  0.00    -0.355 N 
HETATM   21  C   UNK N   1      35.611  13.163  10.021  0.00  0.00     0.258 C 
HETATM   22  O   UNK N   1      35.769  11.989  10.316  0.00  0.00    -0.267 OA
HETATM   23  H   UNK N   1      36.387  13.654  11.745  0.00  0.00     0.162 HD
BRANCH  21  24
HETATM   24  C   UNK N   1      34.996  13.434   8.687  0.00  0.00     0.074 A 
HETATM   25  C   UNK N   1      33.663  13.421   8.262  0.00  0.00     0.027 A 
HETATM   26  C   UNK N   1      33.493  13.742   6.884  0.00  0.00     0.033 A 
HETATM   27  C   UNK N   1      34.700  14.003   6.239  0.00  0.00     0.075 A 
HETATM   28 Cl   UNK N   1      34.917  14.431   4.557  0.00  0.00    -0.076 Cl
HETATM   29  S   UNK N   1      35.903  13.837   7.353  0.00  0.00    -0.072 SA
ENDBRANCH  21  24
ENDBRANCH  19  20
ENDBRANCH  18  19
ENDBRANCH   2  18
TORSDOF 6
ENDMDL
MODEL 5
REMARK VINA RESULT:      -7.4      8.105     13.051
REMARK  6 active torsions:
REMARK  status: ('A' for Active; 'I' for Inactive)
REMARK    1  A    between atoms: C_4  and  C_5 
REMARK    2  A    between atoms: C_4  and  N_18 
REMARK    3  A    between atoms: C_5  and  N_19 
REMARK    4  A    between atoms: C_6  and  C_7 
REMARK       I    between atoms: C_6  and  N_19 
REMARK    5  A    between atoms: C_14  and  C_16 
REMARK       I    between atoms: C_16  and  N_18 
REMARK    6  A    between atoms: C_21  and  N_23 
ROOT
HETATM    1  C   UNK N   1      24.646  20.227   2.909  0.00  0.00     0.251 C 
HETATM    2  N   UNK N   1      23.286  20.057   2.961  0.00  0.00    -0.355 N 
HETATM    3  O   UNK N   1      25.064  20.968   2.031  0.00  0.00    -0.268 OA
HETATM    4  H   UNK N   1      22.847  20.581   2.252  0.00  0.00     0.162 HD
ENDROOT
BRANCH   1   5
HETATM    5  C   UNK N   1      25.689  19.609   3.807  0.00  0.00     0.032 A 
HETATM    6  C   UNK N   1      26.723  20.442   4.264  0.00  0.00     0.019 A 
HETATM    7  C   UNK N   1      27.729  19.957   5.097  0.00  0.00     0.031 A 
HETATM    8  C   UNK N   1      27.742  18.614   5.509  0.00  0.00     0.042 A 
HETATM    9  C   UNK N   1      26.710  17.778   5.056  0.00  0.00     0.031 A 
HETATM   10  C   UNK N   1      25.705  18.276   4.219  0.00  0.00     0.019 A 
BRANCH   8  11
HETATM   11  N   UNK N   1      28.805  18.130   6.382  0.00  0.00    -0.290 N 
HETATM   12  C   UNK N   1      29.821  17.412   5.807  0.00  0.00     0.100 A 
HETATM   13  C   UNK N   1      30.878  16.910   6.563  0.00  0.00     0.018 A 
HETATM   14  C   UNK N   1      30.910  17.140   7.932  0.00  0.00     0.007 A 
HETATM   15  C   UNK N   1      29.887  17.867   8.531  0.00  0.00     0.075 A 
HETATM   16  C   UNK N   1      28.835  18.362   7.757  0.00  0.00     0.252 A 
HETATM   17  O   UNK N   1      27.954  18.995   8.310  0.00  0.00    -0.268 OA
ENDBRANCH   8  11
ENDBRANCH   1   5
BRANCH   2  18
HETATM   18  C   UNK N   1      22.294  19.335   3.747  0.00  0.00     0.142 C 
BRANCH  18  19
HETATM   19  C   UNK N   1      20.961  19.062   3.131  0.00  0.00     0.142 C 
BRANCH  19  20
HETATM   20  N   UNK N   1      20.233  17.861   3.506  0.00  0.00    -0.355 N 
HETATM   21  C   UNK N   1      20.409  16.509   3.418  0.00  0.00     0.258 C 
HETATM   22  O   UNK N   1      19.519  15.808   3.874  0.00  0.00    -0.267 OA
HETATM   23  H   UNK N   1      19.378  18.083   3.942  0.00  0.00     0.162 HD
BRANCH  21  24
HETATM   24  C   UNK N   1      21.576  15.791   2.822  0.00  0.00     0.074 A 
HETATM   25  C   UNK N   1      22.904  15.673   3.246  0.00  0.00     0.027 A 
HETATM   26  C   UNK N   1      23.719  14.887   2.380  0.00  0.00     0.033 A 
HETATM   27  C   UNK N   1      23.019  14.396   1.280  0.00  0.00     0.075 A 
HETATM   28 Cl   UNK N   1      23.657  13.397  -0.006  0.00  0.00    -0.076 Cl
HETATM   29  S   UNK N   1      21.464  14.928   1.406  0.00  0.00    -0.072 SA
ENDBRANCH  21  24
ENDBRANCH  19  20
ENDBRANCH  18  19
ENDBRANCH   2  18
TORSDOF 6
ENDMDL
MODEL 6
REMARK VINA RESULT:      -7.4      4.770     11.110
REMARK  6 active torsions:
REMARK  status: ('A' for Active; 'I' for Inactive)
REMARK    1  A    between atoms: C_4  and  C_5 
REMARK    2  A    between atoms: C_4  and  N_18 
REMARK    3  A    between atoms: C_5  and  N_19 
REMARK    4  A    between atoms: C_6  and  C_7 
REMARK       I    between atoms: C_6  and  N_19 
REMARK    5  A    between atoms: C_14  and  C_16 
REMARK       I    between atoms: C_16  and  N_18 
REMARK    6  A    between atoms: C_21  and  N_23 
ROOT
HETATM    1  C   UNK N   1      34.948  12.435  11.565  0.00  0.00     0.251 C 
HETATM    2  N   UNK N   1      34.617  13.564  10.861  0.00  0.00    -0.355 N 
HETATM    3  O   UNK N   1      35.087  11.411  10.910  0.00  0.00    -0.268 OA
HETATM    4  H   UNK N   1      34.541  13.360   9.900  0.00  0.00     0.162 HD
ENDROOT
BRANCH   1   5
HETATM    5  C   UNK N   1      35.162  12.305  13.053  0.00  0.00     0.032 A 
HETATM    6  C   UNK N   1      34.322  11.422  13.750  0.00  0.00     0.019 A 
HETATM    7  C   UNK N   1      34.447  11.238  15.127  0.00  0.00     0.031 A 
HETATM    8  C   UNK N   1      35.420  11.932  15.863  0.00  0.00     0.042 A 
HETATM    9  C   UNK N   1      36.262  12.816  15.170  0.00  0.00     0.031 A 
HETATM   10  C   UNK N   1      36.128  12.992  13.789  0.00  0.00     0.019 A 
BRANCH   8  11
HETATM   11  N   UNK N   1      35.532  11.723  17.302  0.00  0.00    -0.290 N 
HETATM   12  C   UNK N   1      35.989  10.506  17.733  0.00  0.00     0.100 A 
HETATM   13  C   UNK N   1      36.128  10.217  19.089  0.00  0.00     0.018 A 
HETATM   14  C   UNK N   1      35.796  11.182  20.031  0.00  0.00     0.007 A 
HETATM   15  C   UNK N   1      35.331  12.423  19.611  0.00  0.00     0.075 A 
HETATM   16  C   UNK N   1      35.198  12.694  18.246  0.00  0.00     0.252 A 
HETATM   17  O   UNK N   1      34.788  13.790  17.909  0.00  0.00    -0.268 OA
ENDBRANCH   8  11
ENDBRANCH   1   5
BRANCH   2  18
HETATM   18  C   UNK N   1      34.343  14.975  11.103  0.00  0.00     0.142 C 
BRANCH  18  19
HETATM   19  C   UNK N   1      35.258  15.990  10.500  0.00  0.00     0.142 C 
BRANCH  19  20
HETATM   20  N   UNK N   1      34.698  17.180   9.882  0.00  0.00    -0.355 N 
HETATM   21  C   UNK N   1      34.295  17.572   8.636  0.00  0.00     0.258 C 
HETATM   22  O   UNK N   1      33.862  18.708   8.531  0.00  0.00    -0.267 OA
HETATM   23  H   UNK N   1      34.575  17.901  10.541  0.00  0.00     0.162 HD
BRANCH  21  24
HETATM   24  C   UNK N   1      34.327  16.757   7.384  0.00  0.00     0.074 A 
HETATM   25  C   UNK N   1      34.923  15.525   7.096  0.00  0.00     0.027 A 
HETATM   26  C   UNK N   1      34.717  15.082   5.758  0.00  0.00     0.033 A 
HETATM   27  C   UNK N   1      33.957  15.975   5.005  0.00  0.00     0.075 A 
HETATM   28 Cl   UNK N   1      33.487  15.797   3.330  0.00  0.00    -0.076 Cl
HETATM   29  S   UNK N   1      33.575  17.245   5.983  0.00  0.00    -0.072 SA
ENDBRANCH  21  24
ENDBRANCH  19  20
ENDBRANCH  18  19
ENDBRANCH   2  18
TORSDOF 6
ENDMDL
MODEL 7
REMARK VINA RESULT:      -7.3      2.455      3.300
REMARK  6 active torsions:
REMARK  status: ('A' for Active; 'I' for Inactive)
REMARK    1  A    between atoms: C_4  and  C_5 
REMARK    2  A    between atoms: C_4  and  N_18 
REMARK    3  A    between atoms: C_5  and  N_19 
REMARK    4  A    between atoms: C_6  and  C_7 
REMARK       I    between atoms: C_6  and  N_19 
REMARK    5  A    between atoms: C_14  and  C_16 
REMARK       I    between atoms: C_16  and  N_18 
REMARK    6  A    between atoms: C_21  and  N_23 
ROOT
HETATM    1  C   UNK N   1      35.764  15.683  10.019  0.00  0.00     0.251 C 
HETATM    2  N   UNK N   1      36.285  14.425   9.857  0.00  0.00    -0.355 N 
HETATM    3  O   UNK N   1      36.412  16.451  10.716  0.00  0.00    -0.268 OA
HETATM    4  H   UNK N   1      37.134  14.339  10.349  0.00  0.00     0.162 HD
ENDROOT
BRANCH   1   5
HETATM    5  C   UNK N   1      34.484  16.234   9.440  0.00  0.00     0.032 A 
HETATM    6  C   UNK N   1      33.333  15.437   9.546  0.00  0.00     0.019 A 
HETATM    7  C   UNK N   1      32.107  15.865   9.039  0.00  0.00     0.031 A 
HETATM    8  C   UNK N   1      31.982  17.111   8.403  0.00  0.00     0.042 A 
HETATM    9  C   UNK N   1      33.131  17.911   8.295  0.00  0.00     0.031 A 
HETATM   10  C   UNK N   1      34.356  17.471   8.808  0.00  0.00     0.019 A 
BRANCH   8  11
HETATM   11  N   UNK N   1      30.689  17.537   7.881  0.00  0.00    -0.290 N 
HETATM   12  C   UNK N   1      30.354  17.139   6.614  0.00  0.00     0.100 A 
HETATM   13  C   UNK N   1      29.139  17.499   6.034  0.00  0.00     0.018 A 
HETATM   14  C   UNK N   1      28.242  18.279   6.751  0.00  0.00     0.007 A 
HETATM   15  C   UNK N   1      28.567  18.691   8.039  0.00  0.00     0.075 A 
HETATM   16  C   UNK N   1      29.790  18.321   8.605  0.00  0.00     0.252 A 
HETATM   17  O   UNK N   1      30.046  18.697   9.734  0.00  0.00    -0.268 OA
ENDBRANCH   8  11
ENDBRANCH   1   5
BRANCH   2  18
HETATM   18  C   UNK N   1      35.964  13.177   9.177  0.00  0.00     0.142 C 
BRANCH  18  19
HETATM   19  C   UNK N   1      36.234  11.891   9.887  0.00  0.00     0.142 C 
BRANCH  19  20
HETATM   20  N   UNK N   1      35.213  11.324  10.752  0.00  0.00    -0.355 N 
HETATM   21  C   UNK N   1      34.933  11.287  12.090  0.00  0.00     0.258 C 
HETATM   22  O   UNK N   1      33.932  10.675  12.425  0.00  0.00    -0.267 OA
HETATM   23  H   UNK N   1      34.537  10.831  10.232  0.00  0.00     0.162 HD
BRANCH  21  24
HETATM   24  C   UNK N   1      35.724  11.917  13.190  0.00  0.00     0.074 A 
HETATM   25  C   UNK N   1      36.560  11.361  14.164  0.00  0.00     0.027 A 
HETATM   26  C   UNK N   1      37.137  12.321  15.046  0.00  0.00     0.033 A 
HETATM   27  C   UNK N   1      36.746  13.626  14.752  0.00  0.00     0.075 A 
HETATM   28 Cl   UNK N   1      37.233  15.079  15.595  0.00  0.00    -0.076 Cl
HETATM   29  S   UNK N   1      35.732  13.558  13.455  0.00  0.00    -0.072 SA
ENDBRANCH  21  24
ENDBRANCH  19  20
ENDBRANCH  18  19
ENDBRANCH   2  18
TORSDOF 6
ENDMDL
MODEL 8
REMARK VINA RESULT:      -7.3      7.590     12.436
REMARK  6 active torsions:
REMARK  status: ('A' for Active; 'I' for Inactive)
REMARK    1  A    between atoms: C_4  and  C_5 
REMARK    2  A    between atoms: C_4  and  N_18 
REMARK    3  A    between atoms: C_5  and  N_19 
REMARK    4  A    between atoms: C_6  and  C_7 
REMARK       I    between atoms: C_6  and  N_19 
REMARK    5  A    between atoms: C_14  and  C_16 
REMARK       I    between atoms: C_16  and  N_18 
REMARK    6  A    between atoms: C_21  and  N_23 
ROOT
HETATM    1  C   UNK N   1      24.387  20.253   3.000  0.00  0.00     0.251 C 
HETATM    2  N   UNK N   1      23.028  20.071   2.990  0.00  0.00    -0.355 N 
HETATM    3  O   UNK N   1      24.846  20.947   2.105  0.00  0.00    -0.268 OA
HETATM    4  H   UNK N   1      22.623  20.550   2.230  0.00  0.00     0.162 HD
ENDROOT
BRANCH   1   5
HETATM    5  C   UNK N   1      25.384  19.697   3.986  0.00  0.00     0.032 A 
HETATM    6  C   UNK N   1      26.338  20.584   4.509  0.00  0.00     0.019 A 
HETATM    7  C   UNK N   1      27.299  20.158   5.426  0.00  0.00     0.031 A 
HETATM    8  C   UNK N   1      27.344  18.823   5.857  0.00  0.00     0.042 A 
HETATM    9  C   UNK N   1      26.392  17.932   5.337  0.00  0.00     0.031 A 
HETATM   10  C   UNK N   1      25.433  18.370   4.418  0.00  0.00     0.019 A 
BRANCH   8  11
HETATM   11  N   UNK N   1      28.358  18.401   6.817  0.00  0.00    -0.290 N 
HETATM   12  C   UNK N   1      28.201  18.794   8.120  0.00  0.00     0.100 A 
HETATM   13  C   UNK N   1      29.121  18.438   9.105  0.00  0.00     0.018 A 
HETATM   14  C   UNK N   1      30.224  17.667   8.764  0.00  0.00     0.007 A 
HETATM   15  C   UNK N   1      30.398  17.260   7.446  0.00  0.00     0.075 A 
HETATM   16  C   UNK N   1      29.465  17.627   6.471  0.00  0.00     0.252 A 
HETATM   17  O   UNK N   1      29.645  17.255   5.326  0.00  0.00    -0.268 OA
ENDBRANCH   8  11
ENDBRANCH   1   5
BRANCH   2  18
HETATM   18  C   UNK N   1      22.000  19.384   3.762  0.00  0.00     0.142 C 
BRANCH  18  19
HETATM   19  C   UNK N   1      20.771  18.918   3.053  0.00  0.00     0.142 C 
BRANCH  19  20
HETATM   20  N   UNK N   1      20.633  17.511   2.711  0.00  0.00    -0.355 N 
HETATM   21  C   UNK N   1      20.814  16.304   3.326  0.00  0.00     0.258 C 
HETATM   22  O   UNK N   1      20.577  15.308   2.661  0.00  0.00    -0.267 OA
HETATM   23  H   UNK N   1      20.326  17.397   1.783  0.00  0.00     0.162 HD
BRANCH  21  24
HETATM   24  C   UNK N   1      21.271  16.070   4.729  0.00  0.00     0.074 A 
HETATM   25  C   UNK N   1      22.547  15.859   5.264  0.00  0.00     0.027 A 
HETATM   26  C   UNK N   1      22.557  15.673   6.677  0.00  0.00     0.033 A 
HETATM   27  C   UNK N   1      21.284  15.741   7.239  0.00  0.00     0.075 A 
HETATM   28 Cl   UNK N   1      20.876  15.565   8.930  0.00  0.00    -0.076 Cl
HETATM   29  S   UNK N   1      20.217  16.019   6.014  0.00  0.00    -0.072 SA
ENDBRANCH  21  24
ENDBRANCH  19  20
ENDBRANCH  18  19
ENDBRANCH   2  18
TORSDOF 6
ENDMDL
MODEL 9
REMARK VINA RESULT:      -7.2      4.543     10.723
REMARK  6 active torsions:
REMARK  status: ('A' for Active; 'I' for Inactive)
REMARK    1  A    between atoms: C_4  and  C_5 
REMARK    2  A    between atoms: C_4  and  N_18 
REMARK    3  A    between atoms: C_5  and  N_19 
REMARK    4  A    between atoms: C_6  and  C_7 
REMARK       I    between atoms: C_6  and  N_19 
REMARK    5  A    between atoms: C_14  and  C_16 
REMARK       I    between atoms: C_16  and  N_18 
REMARK    6  A    between atoms: C_21  and  N_23 
ROOT
HETATM    1  C   UNK N   1      34.898  10.678  11.169  0.00  0.00     0.251 C 
HETATM    2  N   UNK N   1      35.163  11.573  10.164  0.00  0.00    -0.355 N 
HETATM    3  O   UNK N   1      34.634   9.537  10.820  0.00  0.00    -0.268 OA
HETATM    4  H   UNK N   1      35.094  11.133   9.286  0.00  0.00     0.162 HD
ENDROOT
BRANCH   1   5
HETATM    5  C   UNK N   1      34.894  10.935  12.655  0.00  0.00     0.032 A 
HETATM    6  C   UNK N   1      36.042  11.519  13.213  0.00  0.00     0.019 A 
HETATM    7  C   UNK N   1      36.128  11.792  14.577  0.00  0.00     0.031 A 
HETATM    8  C   UNK N   1      35.063  11.491  15.442  0.00  0.00     0.042 A 
HETATM    9  C   UNK N   1      33.913  10.907  14.890  0.00  0.00     0.031 A 
HETATM   10  C   UNK N   1      33.839  10.637  13.519  0.00  0.00     0.019 A 
BRANCH   8  11
HETATM   11  N   UNK N   1      35.176  11.786  16.866  0.00  0.00    -0.290 N 
HETATM   12  C   UNK N   1      35.023  13.089  17.259  0.00  0.00     0.100 A 
HETATM   13  C   UNK N   1      35.114  13.464  18.598  0.00  0.00     0.018 A 
HETATM   14  C   UNK N   1      35.366  12.497  19.562  0.00  0.00     0.007 A 
HETATM   15  C   UNK N   1      35.524  11.170  19.181  0.00  0.00     0.075 A 
HETATM   16  C   UNK N   1      35.429  10.813  17.833  0.00  0.00     0.252 A 
HETATM   17  O   UNK N   1      35.573   9.642  17.530  0.00  0.00    -0.268 OA
ENDBRANCH   8  11
ENDBRANCH   1   5
BRANCH   2  18
HETATM   18  C   UNK N   1      35.515  12.978  10.002  0.00  0.00     0.142 C 
BRANCH  18  19
HETATM   19  C   UNK N   1      34.737  13.998  10.766  0.00  0.00     0.142 C 
BRANCH  19  20
HETATM   20  N   UNK N   1      35.145  15.392  10.718  0.00  0.00    -0.355 N 
HETATM   21  C   UNK N   1      34.848  16.503   9.978  0.00  0.00     0.258 C 
HETATM   22  O   UNK N   1      35.439  17.531  10.270  0.00  0.00    -0.267 OA
HETATM   23  H   UNK N   1      35.820  15.592  11.406  0.00  0.00     0.162 HD
BRANCH  21  24
HETATM   24  C   UNK N   1      33.875  16.596   8.848  0.00  0.00     0.074 A 
HETATM   25  C   UNK N   1      32.535  16.209   8.747  0.00  0.00     0.027 A 
HETATM   26  C   UNK N   1      31.951  16.475   7.474  0.00  0.00     0.033 A 
HETATM   27  C   UNK N   1      32.844  17.071   6.586  0.00  0.00     0.075 A 
HETATM   28 Cl   UNK N   1      32.517  17.551   4.937  0.00  0.00    -0.076 Cl
HETATM   29  S   UNK N   1      34.282  17.246   7.373  0.00  0.00    -0.072 SA
ENDBRANCH  21  24
ENDBRANCH  19  20
ENDBRANCH  18  19
ENDBRANCH   2  18
TORSDOF 6
ENDMDL
