REMARK  6 active torsions:
REMARK  status: ('A' for Active; 'I' for Inactive)
REMARK    1  A    between atoms: C_4  and  C_5 
REMARK    2  A    between atoms: C_4  and  N_18 
REMARK    3  A    between atoms: C_5  and  N_19 
REMARK    4  A    between atoms: C_6  and  C_7 
REMARK       I    between atoms: C_6  and  N_19 
REMARK    5  A    between atoms: C_14  and  C_16 
REMARK       I    between atoms: C_16  and  N_18 
REMARK    6  A    between atoms: C_21  and  N_23 
ROOT
HETATM    1  C   UNK N   1      -0.465   1.430  -0.000  0.00  0.00     0.251 C 
HETATM    2  N   UNK N   1       0.902   1.538  -0.000  0.00  0.00    -0.355 N 
HETATM    3  O   UNK N   1      -0.917   0.294   0.000  0.00  0.00    -0.268 OA
HETATM    4  H   UNK N   1       1.317   0.645  -0.000  0.00  0.00     0.162 HD
ENDROOT
BRANCH   1   5
HETATM    5  C   UNK N   1      -1.479   2.547  -0.000  0.00  0.00     0.032 A 
HETATM    6  C   UNK N   1      -2.836   2.187   0.000  0.00  0.00     0.019 A 
HETATM    7  C   UNK N   1      -3.842   3.152   0.000  0.00  0.00     0.031 A 
HETATM    8  C   UNK N   1      -3.530   4.521  -0.000  0.00  0.00     0.042 A 
HETATM    9  C   UNK N   1      -2.175   4.886  -0.000  0.00  0.00     0.031 A 
HETATM   10  C   UNK N   1      -1.174   3.909  -0.000  0.00  0.00     0.019 A 
BRANCH   8  11
HETATM   11  N   UNK N   1      -4.600   5.512  -0.000  0.00  0.00    -0.290 N 
HETATM   12  C   UNK N   1      -5.891   5.053   0.000  0.00  0.00     0.100 A 
HETATM   13  C   UNK N   1      -6.976   5.927   0.000  0.00  0.00     0.018 A 
HETATM   14  C   UNK N   1      -6.751   7.297   0.000  0.00  0.00     0.007 A 
HETATM   15  C   UNK N   1      -5.447   7.780  -0.000  0.00  0.00     0.075 A 
HETATM   16  C   UNK N   1      -4.371   6.888  -0.000  0.00  0.00     0.252 A 
HETATM   17  O   UNK N   1      -3.241   7.341  -0.000  0.00  0.00    -0.268 OA
ENDBRANCH   8  11
ENDBRANCH   1   5
BRANCH   2  18
HETATM   18  C   UNK N   1       1.927   2.574  -0.000  0.00  0.00     0.142 C 
BRANCH  18  19
HETATM   19  C   UNK N   1       1.493   4.003   0.000  0.00  0.00     0.142 C 
BRANCH  19  20
HETATM   20  N   UNK N   1       2.496   5.055   0.000  0.00  0.00    -0.355 N 
HETATM   21  C   UNK N   1       3.860   5.145  -0.000  0.00  0.00     0.258 C 
HETATM   22  O   UNK N   1       4.336   6.269  -0.000  0.00  0.00    -0.267 OA
HETATM   23  H   UNK N   1       2.079   5.947   0.000  0.00  0.00     0.162 HD
BRANCH  21  24
HETATM   24  C   UNK N   1       4.835   4.013   0.000  0.00  0.00     0.074 A 
HETATM   25  C   UNK N   1       4.644   2.627   0.000  0.00  0.00     0.027 A 
HETATM   26  C   UNK N   1       5.856   1.877   0.000  0.00  0.00     0.033 A 
HETATM   27  C   UNK N   1       6.990   2.686   0.000  0.00  0.00     0.075 A 
HETATM   28 Cl   UNK N   1       8.656   2.153  -0.000  0.00  0.00    -0.076 Cl
HETATM   29  S   UNK N   1       6.480   4.253  -0.000  0.00  0.00    -0.072 SA
ENDBRANCH  21  24
ENDBRANCH  19  20
ENDBRANCH  18  19
ENDBRANCH   2  18
TORSDOF 6
