MODEL 1
REMARK VINA RESULT:      -8.2      0.000      0.000
REMARK  5 active torsions:
REMARK  status: ('A' for Active; 'I' for Inactive)
REMARK       I    between atoms: C_1  and  N_25 
REMARK    1  A    between atoms: C_1  and  C_3 
REMARK    2  A    between atoms: C_4  and  C_16 
REMARK    3  A    between atoms: C_8  and  N_23 
REMARK    4  A    between atoms: C_11  and  N_18 
REMARK    5  A    between atoms: C_12  and  N_25 
REMARK       I    between atoms: C_16  and  N_23 
ROOT
HETATM    1  C   UNK N   1      35.567  16.184  10.579  0.00  0.00     0.252 C 
HETATM    2  N   UNK N   1      36.514  15.235  10.821  0.00  0.00    -0.350 N 
HETATM    3  O   UNK N   1      35.449  17.061  11.421  0.00  0.00    -0.268 OA
HETATM    4  H   UNK N   1      37.100  15.500  11.567  0.00  0.00     0.163 HD
ENDROOT
BRANCH   2   5
HETATM    5  C   UNK N   1      36.895  13.944  10.285  0.00  0.00     0.107 C 
HETATM    6  C   UNK N   1      37.755  14.219   9.066  0.00  0.00     0.027 C 
HETATM    7  C   UNK N   1      38.539  12.949   8.806  0.00  0.00     0.004 C 
HETATM    8  C   UNK N   1      38.407  12.109  10.066  0.00  0.00     0.027 C 
HETATM    9  C   UNK N   1      37.756  13.010  11.115  0.00  0.00     0.107 C 
BRANCH   9  10
HETATM   10  N   UNK N   1      36.983  12.263  12.100  0.00  0.00    -0.350 N 
HETATM   11  C   UNK N   1      36.476  12.770  13.265  0.00  0.00     0.259 C 
HETATM   12  O   UNK N   1      36.650  13.941  13.573  0.00  0.00    -0.267 OA
HETATM   13  H   UNK N   1      36.810  11.312  11.910  0.00  0.00     0.163 HD
BRANCH  11  14
HETATM   14  C   UNK N   1      35.677  11.909  14.148  0.00  0.00     0.074 A 
HETATM   15  C   UNK N   1      34.368  11.473  13.918  0.00  0.00     0.027 A 
HETATM   16  C   UNK N   1      33.855  10.670  14.979  0.00  0.00     0.033 A 
HETATM   17  C   UNK N   1      34.769  10.494  16.022  0.00  0.00     0.075 A 
HETATM   18  S   UNK N   1      36.151  11.306  15.619  0.00  0.00    -0.072 SA
HETATM   19 Cl   UNK N   1      34.496   9.598  17.500  0.00  0.00    -0.076 Cl
ENDBRANCH  11  14
ENDBRANCH   9  10
ENDBRANCH   2   5
BRANCH   1  20
HETATM   20  C   UNK N   1      34.633  16.279   9.426  0.00  0.00     0.032 A 
HETATM   21  C   UNK N   1      34.521  17.482   8.709  0.00  0.00     0.019 A 
HETATM   22  C   UNK N   1      33.287  17.837   8.117  0.00  0.00     0.031 A 
HETATM   23  C   UNK N   1      32.149  17.004   8.256  0.00  0.00     0.042 A 
HETATM   24  C   UNK N   1      32.318  15.769   8.891  0.00  0.00     0.031 A 
HETATM   25  C   UNK N   1      33.522  15.432   9.486  0.00  0.00     0.019 A 
BRANCH  23  26
HETATM   26  N   UNK N   1      30.807  17.495   7.948  0.00  0.00    -0.290 N 
HETATM   27  C   UNK N   1      30.094  18.108   8.946  0.00  0.00     0.100 A 
HETATM   28  C   UNK N   1      28.764  18.493   8.758  0.00  0.00     0.018 A 
HETATM   29  C   UNK N   1      28.139  18.247   7.542  0.00  0.00     0.007 A 
HETATM   30  C   UNK N   1      28.848  17.634   6.519  0.00  0.00     0.075 A 
HETATM   31  C   UNK N   1      30.178  17.259   6.720  0.00  0.00     0.252 A 
HETATM   32  O   UNK N   1      30.761  16.698   5.806  0.00  0.00    -0.268 OA
ENDBRANCH  23  26
ENDBRANCH   1  20
TORSDOF 5
ENDMDL
MODEL 2
REMARK VINA RESULT:      -8.1     17.531     20.554
REMARK  5 active torsions:
REMARK  status: ('A' for Active; 'I' for Inactive)
REMARK       I    between atoms: C_1  and  N_25 
REMARK    1  A    between atoms: C_1  and  C_3 
REMARK    2  A    between atoms: C_4  and  C_16 
REMARK    3  A    between atoms: C_8  and  N_23 
REMARK    4  A    between atoms: C_11  and  N_18 
REMARK    5  A    between atoms: C_12  and  N_25 
REMARK       I    between atoms: C_16  and  N_23 
ROOT
HETATM    1  C   UNK N   1      26.153  27.767  -4.001  0.00  0.00     0.252 C 
HETATM    2  N   UNK N   1      27.107  28.562  -4.560  0.00  0.00    -0.350 N 
HETATM    3  O   UNK N   1      25.555  28.228  -3.041  0.00  0.00    -0.268 OA
HETATM    4  H   UNK N   1      27.051  29.482  -4.214  0.00  0.00     0.163 HD
ENDROOT
BRANCH   2   5
HETATM    5  C   UNK N   1      28.182  28.426  -5.522  0.00  0.00     0.107 C 
HETATM    6  C   UNK N   1      28.416  29.807  -6.106  0.00  0.00     0.027 C 
HETATM    7  C   UNK N   1      29.805  29.781  -6.711  0.00  0.00     0.004 C 
HETATM    8  C   UNK N   1      30.483  28.540  -6.151  0.00  0.00     0.027 C 
HETATM    9  C   UNK N   1      29.563  28.010  -5.052  0.00  0.00     0.107 C 
BRANCH   9  10
HETATM   10  N   UNK N   1      29.679  26.568  -4.866  0.00  0.00    -0.350 N 
HETATM   11  C   UNK N   1      30.383  25.948  -3.870  0.00  0.00     0.259 C 
HETATM   12  O   UNK N   1      30.991  26.595  -3.029  0.00  0.00    -0.267 OA
HETATM   13  H   UNK N   1      29.212  25.991  -5.512  0.00  0.00     0.163 HD
BRANCH  11  14
HETATM   14  C   UNK N   1      30.379  24.481  -3.779  0.00  0.00     0.074 A 
HETATM   15  C   UNK N   1      29.773  23.714  -2.780  0.00  0.00     0.027 A 
HETATM   16  C   UNK N   1      29.972  22.313  -2.956  0.00  0.00     0.033 A 
HETATM   17  C   UNK N   1      30.734  22.008  -4.088  0.00  0.00     0.075 A 
HETATM   18  S   UNK N   1      31.127  23.434  -4.826  0.00  0.00    -0.072 SA
HETATM   19 Cl   UNK N   1      31.209  20.410  -4.620  0.00  0.00    -0.076 Cl
ENDBRANCH  11  14
ENDBRANCH   9  10
ENDBRANCH   2   5
BRANCH   1  20
HETATM   20  C   UNK N   1      25.756  26.389  -4.394  0.00  0.00     0.032 A 
HETATM   21  C   UNK N   1      26.318  25.281  -3.738  0.00  0.00     0.019 A 
HETATM   22  C   UNK N   1      26.512  24.070  -4.442  0.00  0.00     0.031 A 
HETATM   23  C   UNK N   1      26.168  23.964  -5.813  0.00  0.00     0.042 A 
HETATM   24  C   UNK N   1      25.523  25.051  -6.410  0.00  0.00     0.031 A 
HETATM   25  C   UNK N   1      25.350  26.242  -5.725  0.00  0.00     0.019 A 
BRANCH  23  26
HETATM   26  N   UNK N   1      26.656  22.857  -6.634  0.00  0.00    -0.290 N 
HETATM   27  C   UNK N   1      28.010  22.674  -6.741  0.00  0.00     0.100 A 
HETATM   28  C   UNK N   1      28.549  21.715  -7.602  0.00  0.00     0.018 A 
HETATM   29  C   UNK N   1      27.704  20.930  -8.376  0.00  0.00     0.007 A 
HETATM   30  C   UNK N   1      26.330  21.096  -8.275  0.00  0.00     0.075 A 
HETATM   31  C   UNK N   1      25.807  22.056  -7.407  0.00  0.00     0.252 A 
HETATM   32  O   UNK N   1      24.595  22.192  -7.366  0.00  0.00    -0.268 OA
ENDBRANCH  23  26
ENDBRANCH   1  20
TORSDOF 5
ENDMDL
MODEL 3
REMARK VINA RESULT:      -8.1     11.266     15.005
REMARK  5 active torsions:
REMARK  status: ('A' for Active; 'I' for Inactive)
REMARK       I    between atoms: C_1  and  N_25 
REMARK    1  A    between atoms: C_1  and  C_3 
REMARK    2  A    between atoms: C_4  and  C_16 
REMARK    3  A    between atoms: C_8  and  N_23 
REMARK    4  A    between atoms: C_11  and  N_18 
REMARK    5  A    between atoms: C_12  and  N_25 
REMARK       I    between atoms: C_16  and  N_23 
ROOT
HETATM    1  C   UNK N   1      19.091  16.048   5.100  0.00  0.00     0.252 C 
HETATM    2  N   UNK N   1      19.078  16.784   3.954  0.00  0.00    -0.350 N 
HETATM    3  O   UNK N   1      18.002  15.739   5.560  0.00  0.00    -0.268 OA
HETATM    4  H   UNK N   1      18.177  16.809   3.557  0.00  0.00     0.163 HD
ENDROOT
BRANCH   2   5
HETATM    5  C   UNK N   1      20.024  17.541   3.159  0.00  0.00     0.107 C 
HETATM    6  C   UNK N   1      19.259  18.718   2.583  0.00  0.00     0.027 C 
HETATM    7  C   UNK N   1      20.300  19.744   2.185  0.00  0.00     0.004 C 
HETATM    8  C   UNK N   1      21.592  19.318   2.865  0.00  0.00     0.027 C 
HETATM    9  C   UNK N   1      21.215  18.197   3.833  0.00  0.00     0.107 C 
BRANCH   9  10
HETATM   10  N   UNK N   1      22.310  17.262   4.067  0.00  0.00    -0.350 N 
HETATM   11  C   UNK N   1      23.312  17.424   4.985  0.00  0.00     0.259 C 
HETATM   12  O   UNK N   1      23.357  18.412   5.704  0.00  0.00    -0.267 OA
HETATM   13  H   UNK N   1      22.331  16.446   3.518  0.00  0.00     0.163 HD
BRANCH  11  14
HETATM   14  C   UNK N   1      24.332  16.377   5.142  0.00  0.00     0.074 A 
HETATM   15  C   UNK N   1      24.453  15.494   6.219  0.00  0.00     0.027 A 
HETATM   16  C   UNK N   1      25.566  14.612   6.092  0.00  0.00     0.033 A 
HETATM   17  C   UNK N   1      26.299  14.823   4.920  0.00  0.00     0.075 A 
HETATM   18  S   UNK N   1      25.573  16.054   4.090  0.00  0.00    -0.072 SA
HETATM   19 Cl   UNK N   1      27.740  13.960   4.428  0.00  0.00    -0.076 Cl
ENDBRANCH  11  14
ENDBRANCH   9  10
ENDBRANCH   2   5
BRANCH   1  20
HETATM   20  C   UNK N   1      20.266  15.585   5.884  0.00  0.00     0.032 A 
HETATM   21  C   UNK N   1      20.706  14.255   5.776  0.00  0.00     0.019 A 
HETATM   22  C   UNK N   1      21.302  13.619   6.889  0.00  0.00     0.031 A 
HETATM   23  C   UNK N   1      21.445  14.298   8.124  0.00  0.00     0.042 A 
HETATM   24  C   UNK N   1      21.089  15.649   8.171  0.00  0.00     0.031 A 
HETATM   25  C   UNK N   1      20.487  16.266   7.086  0.00  0.00     0.019 A 
BRANCH  23  26
HETATM   26  N   UNK N   1      21.745  13.574   9.358  0.00  0.00    -0.290 N 
HETATM   27  C   UNK N   1      23.042  13.194   9.590  0.00  0.00     0.100 A 
HETATM   28  C   UNK N   1      23.381  12.397  10.686  0.00  0.00     0.018 A 
HETATM   29  C   UNK N   1      22.390  11.969  11.561  0.00  0.00     0.007 A 
HETATM   30  C   UNK N   1      21.074  12.350  11.346  0.00  0.00     0.075 A 
HETATM   31  C   UNK N   1      20.751  13.151  10.248  0.00  0.00     0.252 A 
HETATM   32  O   UNK N   1      19.579  13.444  10.077  0.00  0.00    -0.268 OA
ENDBRANCH  23  26
ENDBRANCH   1  20
TORSDOF 5
ENDMDL
MODEL 4
REMARK VINA RESULT:      -8.1      2.334      3.262
REMARK  5 active torsions:
REMARK  status: ('A' for Active; 'I' for Inactive)
REMARK       I    between atoms: C_1  and  N_25 
REMARK    1  A    between atoms: C_1  and  C_3 
REMARK    2  A    between atoms: C_4  and  C_16 
REMARK    3  A    between atoms: C_8  and  N_23 
REMARK    4  A    between atoms: C_11  and  N_18 
REMARK    5  A    between atoms: C_12  and  N_25 
REMARK       I    between atoms: C_16  and  N_23 
ROOT
HETATM    1  C   UNK N   1      34.528  17.362   8.941  0.00  0.00     0.252 C 
HETATM    2  N   UNK N   1      34.797  16.144   9.489  0.00  0.00    -0.350 N 
HETATM    3  O   UNK N   1      35.287  18.271   9.238  0.00  0.00    -0.268 OA
HETATM    4  H   UNK N   1      35.686  16.132   9.911  0.00  0.00     0.163 HD
ENDROOT
BRANCH   2   5
HETATM    5  C   UNK N   1      34.134  14.862   9.623  0.00  0.00     0.107 C 
HETATM    6  C   UNK N   1      33.754  14.424   8.221  0.00  0.00     0.027 C 
HETATM    7  C   UNK N   1      33.525  12.928   8.293  0.00  0.00     0.004 C 
HETATM    8  C   UNK N   1      34.128  12.474   9.613  0.00  0.00     0.027 C 
HETATM    9  C   UNK N   1      34.903  13.671  10.163  0.00  0.00     0.107 C 
BRANCH   9  10
HETATM   10  N   UNK N   1      34.984  13.670  11.619  0.00  0.00    -0.350 N 
HETATM   11  C   UNK N   1      36.129  13.525  12.353  0.00  0.00     0.259 C 
HETATM   12  O   UNK N   1      37.214  13.377  11.808  0.00  0.00    -0.267 OA
HETATM   13  H   UNK N   1      34.142  13.784  12.117  0.00  0.00     0.163 HD
BRANCH  11  14
HETATM   14  C   UNK N   1      36.068  13.585  13.820  0.00  0.00     0.074 A 
HETATM   15  C   UNK N   1      36.792  14.452  14.644  0.00  0.00     0.027 A 
HETATM   16  C   UNK N   1      36.534  14.245  16.032  0.00  0.00     0.033 A 
HETATM   17  C   UNK N   1      35.615  13.218  16.269  0.00  0.00     0.075 A 
HETATM   18  S   UNK N   1      35.153  12.611  14.802  0.00  0.00    -0.072 SA
HETATM   19 Cl   UNK N   1      35.068  12.656  17.833  0.00  0.00    -0.076 Cl
ENDBRANCH  11  14
ENDBRANCH   9  10
ENDBRANCH   2   5
BRANCH   1  20
HETATM   20  C   UNK N   1      33.407  17.738   8.039  0.00  0.00     0.032 A 
HETATM   21  C   UNK N   1      32.080  17.649   8.491  0.00  0.00     0.019 A 
HETATM   22  C   UNK N   1      31.045  17.343   7.578  0.00  0.00     0.031 A 
HETATM   23  C   UNK N   1      31.329  17.101   6.211  0.00  0.00     0.042 A 
HETATM   24  C   UNK N   1      32.644  17.292   5.774  0.00  0.00     0.031 A 
HETATM   25  C   UNK N   1      33.660  17.574   6.673  0.00  0.00     0.019 A 
BRANCH  23  26
HETATM   26  N   UNK N   1      30.348  16.468   5.332  0.00  0.00    -0.290 N 
HETATM   27  C   UNK N   1      29.557  17.274   4.554  0.00  0.00     0.100 A 
HETATM   28  C   UNK N   1      28.519  16.746   3.782  0.00  0.00     0.018 A 
HETATM   29  C   UNK N   1      28.269  15.380   3.802  0.00  0.00     0.007 A 
HETATM   30  C   UNK N   1      29.064  14.549   4.577  0.00  0.00     0.075 A 
HETATM   31  C   UNK N   1      30.101  15.090   5.340  0.00  0.00     0.252 A 
HETATM   32  O   UNK N   1      30.762  14.331   6.030  0.00  0.00    -0.268 OA
ENDBRANCH  23  26
ENDBRANCH   1  20
TORSDOF 5
ENDMDL
MODEL 5
REMARK VINA RESULT:      -8.1     10.126     12.931
REMARK  5 active torsions:
REMARK  status: ('A' for Active; 'I' for Inactive)
REMARK       I    between atoms: C_1  and  N_25 
REMARK    1  A    between atoms: C_1  and  C_3 
REMARK    2  A    between atoms: C_4  and  C_16 
REMARK    3  A    between atoms: C_8  and  N_23 
REMARK    4  A    between atoms: C_11  and  N_18 
REMARK    5  A    between atoms: C_12  and  N_25 
REMARK       I    between atoms: C_16  and  N_23 
ROOT
HETATM    1  C   UNK N   1      21.163  13.686   7.559  0.00  0.00     0.252 C 
HETATM    2  N   UNK N   1      21.488  13.057   8.723  0.00  0.00    -0.350 N 
HETATM    3  O   UNK N   1      20.255  13.192   6.910  0.00  0.00    -0.268 OA
HETATM    4  H   UNK N   1      20.810  12.385   8.966  0.00  0.00     0.163 HD
ENDROOT
BRANCH   2   5
HETATM    5  C   UNK N   1      22.557  13.104   9.701  0.00  0.00     0.107 C 
HETATM    6  C   UNK N   1      22.078  12.311  10.902  0.00  0.00     0.027 C 
HETATM    7  C   UNK N   1      23.319  11.943  11.689  0.00  0.00     0.004 C 
HETATM    8  C   UNK N   1      24.495  12.195  10.759  0.00  0.00     0.027 C 
HETATM    9  C   UNK N   1      23.898  12.471   9.379  0.00  0.00     0.107 C 
BRANCH   9  10
HETATM   10  N   UNK N   1      24.742  13.335   8.561  0.00  0.00    -0.350 N 
HETATM   11  C   UNK N   1      25.051  13.129   7.245  0.00  0.00     0.259 C 
HETATM   12  O   UNK N   1      24.620  12.159   6.638  0.00  0.00    -0.267 OA
HETATM   13  H   UNK N   1      25.122  14.134   8.993  0.00  0.00     0.163 HD
BRANCH  11  14
HETATM   14  C   UNK N   1      25.883  14.107   6.530  0.00  0.00     0.074 A 
HETATM   15  C   UNK N   1      26.027  15.462   6.848  0.00  0.00     0.027 A 
HETATM   16  C   UNK N   1      26.885  16.156   5.945  0.00  0.00     0.033 A 
HETATM   17  C   UNK N   1      27.394  15.335   4.934  0.00  0.00     0.075 A 
HETATM   18  S   UNK N   1      26.795  13.814   5.176  0.00  0.00    -0.072 SA
HETATM   19 Cl   UNK N   1      28.455  15.828   3.633  0.00  0.00    -0.076 Cl
ENDBRANCH  11  14
ENDBRANCH   9  10
ENDBRANCH   2   5
BRANCH   1  20
HETATM   20  C   UNK N   1      21.791  14.892   6.958  0.00  0.00     0.032 A 
HETATM   21  C   UNK N   1      21.394  16.174   7.375  0.00  0.00     0.019 A 
HETATM   22  C   UNK N   1      21.423  17.251   6.460  0.00  0.00     0.031 A 
HETATM   23  C   UNK N   1      21.828  17.053   5.117  0.00  0.00     0.042 A 
HETATM   24  C   UNK N   1      22.310  15.790   4.760  0.00  0.00     0.031 A 
HETATM   25  C   UNK N   1      22.263  14.731   5.651  0.00  0.00     0.019 A 
BRANCH  23  26
HETATM   26  N   UNK N   1      21.556  18.054   4.086  0.00  0.00    -0.290 N 
HETATM   27  C   UNK N   1      22.503  19.015   3.846  0.00  0.00     0.100 A 
HETATM   28  C   UNK N   1      22.261  20.070   2.964  0.00  0.00     0.018 A 
HETATM   29  C   UNK N   1      21.035  20.162   2.317  0.00  0.00     0.007 A 
HETATM   30  C   UNK N   1      20.067  19.194   2.542  0.00  0.00     0.075 A 
HETATM   31  C   UNK N   1      20.325  18.142   3.424  0.00  0.00     0.252 A 
HETATM   32  O   UNK N   1      19.440  17.325   3.617  0.00  0.00    -0.268 OA
ENDBRANCH  23  26
ENDBRANCH   1  20
TORSDOF 5
ENDMDL
MODEL 6
REMARK VINA RESULT:      -7.9     11.048     13.690
REMARK  5 active torsions:
REMARK  status: ('A' for Active; 'I' for Inactive)
REMARK       I    between atoms: C_1  and  N_25 
REMARK    1  A    between atoms: C_1  and  C_3 
REMARK    2  A    between atoms: C_4  and  C_16 
REMARK    3  A    between atoms: C_8  and  N_23 
REMARK    4  A    between atoms: C_11  and  N_18 
REMARK    5  A    between atoms: C_12  and  N_25 
REMARK       I    between atoms: C_16  and  N_23 
ROOT
HETATM    1  C   UNK N   1      19.007  15.521   4.994  0.00  0.00     0.252 C 
HETATM    2  N   UNK N   1      19.510  14.259   4.898  0.00  0.00    -0.350 N 
HETATM    3  O   UNK N   1      17.832  15.615   5.313  0.00  0.00    -0.268 OA
HETATM    4  H   UNK N   1      18.889  13.598   5.282  0.00  0.00     0.163 HD
ENDROOT
BRANCH   2   5
HETATM    5  C   UNK N   1      20.707  13.622   4.386  0.00  0.00     0.107 C 
HETATM    6  C   UNK N   1      20.714  13.859   2.887  0.00  0.00     0.027 C 
HETATM    7  C   UNK N   1      22.143  13.647   2.432  0.00  0.00     0.004 C 
HETATM    8  C   UNK N   1      22.992  13.662   3.694  0.00  0.00     0.027 C 
HETATM    9  C   UNK N   1      22.071  14.122   4.823  0.00  0.00     0.107 C 
BRANCH   9  10
HETATM   10  N   UNK N   1      22.468  13.598   6.125  0.00  0.00    -0.350 N 
HETATM   11  C   UNK N   1      23.247  14.250   7.042  0.00  0.00     0.259 C 
HETATM   12  O   UNK N   1      23.683  15.370   6.818  0.00  0.00    -0.267 OA
HETATM   13  H   UNK N   1      22.150  12.698   6.365  0.00  0.00     0.163 HD
BRANCH  11  14
HETATM   14  C   UNK N   1      23.535  13.615   8.336  0.00  0.00     0.074 A 
HETATM   15  C   UNK N   1      24.778  13.141   8.767  0.00  0.00     0.027 A 
HETATM   16  C   UNK N   1      24.728  12.549  10.063  0.00  0.00     0.033 A 
HETATM   17  C   UNK N   1      23.446  12.565  10.622  0.00  0.00     0.075 A 
HETATM   18  S   UNK N   1      22.436  13.295   9.536  0.00  0.00    -0.072 SA
HETATM   19 Cl   UNK N   1      22.985  11.912  12.178  0.00  0.00    -0.076 Cl
ENDBRANCH  11  14
ENDBRANCH   9  10
ENDBRANCH   2   5
BRANCH   1  20
HETATM   20  C   UNK N   1      19.701  16.811   4.737  0.00  0.00     0.032 A 
HETATM   21  C   UNK N   1      19.886  17.260   3.419  0.00  0.00     0.019 A 
HETATM   22  C   UNK N   1      21.025  18.030   3.091  0.00  0.00     0.031 A 
HETATM   23  C   UNK N   1      22.000  18.339   4.072  0.00  0.00     0.042 A 
HETATM   24  C   UNK N   1      21.739  17.963   5.393  0.00  0.00     0.031 A 
HETATM   25  C   UNK N   1      20.633  17.192   5.709  0.00  0.00     0.019 A 
BRANCH  23  26
HETATM   26  N   UNK N   1      23.322  18.836   3.697  0.00  0.00    -0.290 N 
HETATM   27  C   UNK N   1      24.413  18.052   3.969  0.00  0.00     0.100 A 
HETATM   28  C   UNK N   1      25.714  18.512   3.749  0.00  0.00     0.018 A 
HETATM   29  C   UNK N   1      25.918  19.793   3.252  0.00  0.00     0.007 A 
HETATM   30  C   UNK N   1      24.825  20.599   2.964  0.00  0.00     0.075 A 
HETATM   31  C   UNK N   1      23.531  20.123   3.185  0.00  0.00     0.252 A 
HETATM   32  O   UNK N   1      22.596  20.870   2.945  0.00  0.00    -0.268 OA
ENDBRANCH  23  26
ENDBRANCH   1  20
TORSDOF 5
ENDMDL
MODEL 7
REMARK VINA RESULT:      -7.8     17.089     20.766
REMARK  5 active torsions:
REMARK  status: ('A' for Active; 'I' for Inactive)
REMARK       I    between atoms: C_1  and  N_25 
REMARK    1  A    between atoms: C_1  and  C_3 
REMARK    2  A    between atoms: C_4  and  C_16 
REMARK    3  A    between atoms: C_8  and  N_23 
REMARK    4  A    between atoms: C_11  and  N_18 
REMARK    5  A    between atoms: C_12  and  N_25 
REMARK       I    between atoms: C_16  and  N_23 
ROOT
HETATM    1  C   UNK N   1      25.843  24.520  -7.477  0.00  0.00     0.252 C 
HETATM    2  N   UNK N   1      25.613  25.691  -6.820  0.00  0.00    -0.350 N 
HETATM    3  O   UNK N   1      24.954  24.130  -8.218  0.00  0.00    -0.268 OA
HETATM    4  H   UNK N   1      24.823  26.153  -7.181  0.00  0.00     0.163 HD
ENDROOT
BRANCH   2   5
HETATM    5  C   UNK N   1      26.211  26.442  -5.733  0.00  0.00     0.107 C 
HETATM    6  C   UNK N   1      25.241  27.559  -5.397  0.00  0.00     0.027 C 
HETATM    7  C   UNK N   1      25.598  28.021  -3.998  0.00  0.00     0.004 C 
HETATM    8  C   UNK N   1      26.497  26.941  -3.416  0.00  0.00     0.027 C 
HETATM    9  C   UNK N   1      26.445  25.768  -4.394  0.00  0.00     0.107 C 
BRANCH   9  10
HETATM   10  N   UNK N   1      27.662  24.965  -4.377  0.00  0.00    -0.350 N 
HETATM   11  C   UNK N   1      27.960  23.992  -3.463  0.00  0.00     0.259 C 
HETATM   12  O   UNK N   1      27.188  23.721  -2.553  0.00  0.00    -0.267 OA
HETATM   13  H   UNK N   1      28.325  25.136  -5.084  0.00  0.00     0.163 HD
BRANCH  11  14
HETATM   14  C   UNK N   1      29.210  23.230  -3.591  0.00  0.00     0.074 A 
HETATM   15  C   UNK N   1      29.682  22.601  -4.748  0.00  0.00     0.027 A 
HETATM   16  C   UNK N   1      30.915  21.915  -4.544  0.00  0.00     0.033 A 
HETATM   17  C   UNK N   1      31.386  22.015  -3.231  0.00  0.00     0.075 A 
HETATM   18  S   UNK N   1      30.302  22.927  -2.379  0.00  0.00    -0.072 SA
HETATM   19 Cl   UNK N   1      32.845  21.289  -2.593  0.00  0.00    -0.076 Cl
ENDBRANCH  11  14
ENDBRANCH   9  10
ENDBRANCH   2   5
BRANCH   1  20
HETATM   20  C   UNK N   1      27.035  23.635  -7.392  0.00  0.00     0.032 A 
HETATM   21  C   UNK N   1      28.190  23.937  -8.133  0.00  0.00     0.019 A 
HETATM   22  C   UNK N   1      29.015  22.892  -8.608  0.00  0.00     0.031 A 
HETATM   23  C   UNK N   1      28.681  21.536  -8.366  0.00  0.00     0.042 A 
HETATM   24  C   UNK N   1      27.581  21.271  -7.544  0.00  0.00     0.031 A 
HETATM   25  C   UNK N   1      26.763  22.295  -7.096  0.00  0.00     0.019 A 
BRANCH  23  26
HETATM   26  N   UNK N   1      29.318  20.453  -9.113  0.00  0.00    -0.290 N 
HETATM   27  C   UNK N   1      29.076  20.361 -10.459  0.00  0.00     0.100 A 
HETATM   28  C   UNK N   1      29.553  19.285 -11.212  0.00  0.00     0.018 A 
HETATM   29  C   UNK N   1      30.281  18.278 -10.592  0.00  0.00     0.007 A 
HETATM   30  C   UNK N   1      30.542  18.358  -9.231  0.00  0.00     0.075 A 
HETATM   31  C   UNK N   1      30.062  19.442  -8.493  0.00  0.00     0.252 A 
HETATM   32  O   UNK N   1      30.288  19.464  -7.294  0.00  0.00    -0.268 OA
ENDBRANCH  23  26
ENDBRANCH   1  20
TORSDOF 5
ENDMDL
MODEL 8
REMARK VINA RESULT:      -7.8     16.385     20.213
REMARK  5 active torsions:
REMARK  status: ('A' for Active; 'I' for Inactive)
REMARK       I    between atoms: C_1  and  N_25 
REMARK    1  A    between atoms: C_1  and  C_3 
REMARK    2  A    between atoms: C_4  and  C_16 
REMARK    3  A    between atoms: C_8  and  N_23 
REMARK    4  A    between atoms: C_11  and  N_18 
REMARK    5  A    between atoms: C_12  and  N_25 
REMARK       I    between atoms: C_16  and  N_23 
ROOT
HETATM    1  C   UNK N   1      26.856  24.428  -3.903  0.00  0.00     0.252 C 
HETATM    2  N   UNK N   1      28.046  24.962  -3.513  0.00  0.00    -0.350 N 
HETATM    3  O   UNK N   1      26.217  23.840  -3.044  0.00  0.00    -0.268 OA
HETATM    4  H   UNK N   1      28.137  24.951  -2.533  0.00  0.00     0.163 HD
ENDROOT
BRANCH   2   5
HETATM    5  C   UNK N   1      29.217  25.541  -4.144  0.00  0.00     0.107 C 
HETATM    6  C   UNK N   1      29.047  27.046  -4.069  0.00  0.00     0.027 C 
HETATM    7  C   UNK N   1      30.429  27.637  -4.260  0.00  0.00     0.004 C 
HETATM    8  C   UNK N   1      31.407  26.488  -4.069  0.00  0.00     0.027 C 
HETATM    9  C   UNK N   1      30.588  25.314  -3.535  0.00  0.00     0.107 C 
BRANCH   9  10
HETATM   10  N   UNK N   1      31.154  24.020  -3.896  0.00  0.00    -0.350 N 
HETATM   11  C   UNK N   1      31.262  22.938  -3.065  0.00  0.00     0.259 C 
HETATM   12  O   UNK N   1      30.874  22.990  -1.907  0.00  0.00    -0.267 OA
HETATM   13  H   UNK N   1      31.486  23.914  -4.817  0.00  0.00     0.163 HD
BRANCH  11  14
HETATM   14  C   UNK N   1      31.819  21.678  -3.578  0.00  0.00     0.074 A 
HETATM   15  C   UNK N   1      31.164  20.759  -4.404  0.00  0.00     0.027 A 
HETATM   16  C   UNK N   1      31.962  19.616  -4.707  0.00  0.00     0.033 A 
HETATM   17  C   UNK N   1      33.226  19.659  -4.109  0.00  0.00     0.075 A 
HETATM   18  S   UNK N   1      33.326  21.069  -3.252  0.00  0.00    -0.072 SA
HETATM   19 Cl   UNK N   1      34.471  18.435  -4.226  0.00  0.00    -0.076 Cl
ENDBRANCH  11  14
ENDBRANCH   9  10
ENDBRANCH   2   5
BRANCH   1  20
HETATM   20  C   UNK N   1      26.238  24.447  -5.255  0.00  0.00     0.032 A 
HETATM   21  C   UNK N   1      26.694  23.566  -6.250  0.00  0.00     0.019 A 
HETATM   22  C   UNK N   1      26.654  23.956  -7.608  0.00  0.00     0.031 A 
HETATM   23  C   UNK N   1      26.179  25.238  -7.982  0.00  0.00     0.042 A 
HETATM   24  C   UNK N   1      25.642  26.053  -6.980  0.00  0.00     0.031 A 
HETATM   25  C   UNK N   1      25.699  25.676  -5.649  0.00  0.00     0.019 A 
BRANCH  23  26
HETATM   26  N   UNK N   1      26.433  25.783  -9.314  0.00  0.00    -0.290 N 
HETATM   27  C   UNK N   1      27.547  26.560  -9.498  0.00  0.00     0.100 A 
HETATM   28  C   UNK N   1      27.789  27.211 -10.710  0.00  0.00     0.018 A 
HETATM   29  C   UNK N   1      26.883  27.081 -11.756  0.00  0.00     0.007 A 
HETATM   30  C   UNK N   1      25.753  26.293 -11.590  0.00  0.00     0.075 A 
HETATM   31  C   UNK N   1      25.528  25.645 -10.374  0.00  0.00     0.252 A 
HETATM   32  O   UNK N   1      24.510  24.982 -10.257  0.00  0.00    -0.268 OA
ENDBRANCH  23  26
ENDBRANCH   1  20
TORSDOF 5
ENDMDL
MODEL 9
REMARK VINA RESULT:      -7.6     12.468     16.519
REMARK  5 active torsions:
REMARK  status: ('A' for Active; 'I' for Inactive)
REMARK       I    between atoms: C_1  and  N_25 
REMARK    1  A    between atoms: C_1  and  C_3 
REMARK    2  A    between atoms: C_4  and  C_16 
REMARK    3  A    between atoms: C_8  and  N_23 
REMARK    4  A    between atoms: C_11  and  N_18 
REMARK    5  A    between atoms: C_12  and  N_25 
REMARK       I    between atoms: C_16  and  N_23 
ROOT
HETATM    1  C   UNK N   1      22.916  15.749   4.310  0.00  0.00     0.252 C 
HETATM    2  N   UNK N   1      22.425  16.817   3.621  0.00  0.00    -0.350 N 
HETATM    3  O   UNK N   1      24.016  15.342   3.968  0.00  0.00    -0.268 OA
HETATM    4  H   UNK N   1      23.119  17.225   3.055  0.00  0.00     0.163 HD
ENDROOT
BRANCH   2   5
HETATM    5  C   UNK N   1      21.161  17.515   3.491  0.00  0.00     0.107 C 
HETATM    6  C   UNK N   1      21.406  18.940   3.951  0.00  0.00     0.027 C 
HETATM    7  C   UNK N   1      20.280  19.771   3.371  0.00  0.00     0.004 C 
HETATM    8  C   UNK N   1      19.628  18.907   2.302  0.00  0.00     0.027 C 
HETATM    9  C   UNK N   1      20.540  17.694   2.119  0.00  0.00     0.107 C 
BRANCH   9  10
HETATM   10  N   UNK N   1      19.818  16.508   1.673  0.00  0.00    -0.350 N 
HETATM   11  C   UNK N   1      20.373  15.429   1.042  0.00  0.00     0.259 C 
HETATM   12  O   UNK N   1      21.571  15.387   0.797  0.00  0.00    -0.267 OA
HETATM   13  H   UNK N   1      18.848  16.481   1.839  0.00  0.00     0.163 HD
BRANCH  11  14
HETATM   14  C   UNK N   1      19.529  14.280   0.683  0.00  0.00     0.074 A 
HETATM   15  C   UNK N   1      18.189  14.329   0.286  0.00  0.00     0.027 A 
HETATM   16  C   UNK N   1      17.637  13.038   0.034  0.00  0.00     0.033 A 
HETATM   17  C   UNK N   1      18.553  12.002   0.242  0.00  0.00     0.075 A 
HETATM   18  S   UNK N   1      19.983  12.685   0.713  0.00  0.00    -0.072 SA
HETATM   19 Cl   UNK N   1      18.241  10.290   0.061  0.00  0.00    -0.076 Cl
ENDBRANCH  11  14
ENDBRANCH   9  10
ENDBRANCH   2   5
BRANCH   1  20
HETATM   20  C   UNK N   1      22.274  14.993   5.417  0.00  0.00     0.032 A 
HETATM   21  C   UNK N   1      21.803  15.673   6.553  0.00  0.00     0.019 A 
HETATM   22  C   UNK N   1      21.821  15.035   7.814  0.00  0.00     0.031 A 
HETATM   23  C   UNK N   1      22.331  13.720   7.955  0.00  0.00     0.042 A 
HETATM   24  C   UNK N   1      22.700  13.035   6.793  0.00  0.00     0.031 A 
HETATM   25  C   UNK N   1      22.700  13.669   5.562  0.00  0.00     0.019 A 
BRANCH  23  26
HETATM   26  N   UNK N   1      22.664  13.172   9.268  0.00  0.00    -0.290 N 
HETATM   27  C   UNK N   1      23.983  12.935   9.558  0.00  0.00     0.100 A 
HETATM   28  C   UNK N   1      24.365  12.302  10.744  0.00  0.00     0.018 A 
HETATM   29  C   UNK N   1      23.396  11.893  11.651  0.00  0.00     0.007 A 
HETATM   30  C   UNK N   1      22.056  12.131  11.377  0.00  0.00     0.075 A 
HETATM   31  C   UNK N   1      21.691  12.768  10.190  0.00  0.00     0.252 A 
HETATM   32  O   UNK N   1      20.502  12.936   9.972  0.00  0.00    -0.268 OA
ENDBRANCH  23  26
ENDBRANCH   1  20
TORSDOF 5
ENDMDL
