MODEL 1
REMARK VINA RESULT:      -5.4      0.000      0.000
REMARK  10 active torsions:
REMARK  status: ('A' for Active; 'I' for Inactive)
REMARK    1  A    between atoms: O_2  and  C_3 
REMARK    2  A    between atoms: C_3  and  C_6 
REMARK    3  A    between atoms: C_6  and  C_7 
REMARK    4  A    between atoms: C_7  and  C_8 
REMARK    5  A    between atoms: C_8  and  C_9 
REMARK    6  A    between atoms: C_9  and  C_11 
REMARK    7  A    between atoms: C_11  and  C_12 
REMARK    8  A    between atoms: C_13  and  C_14 
REMARK    9  A    between atoms: C_16  and  C_17 
REMARK   10  A    between atoms: C_17  and  O_18 
ROOT
HETATM    1  C   UNK N   1      30.590  15.851   3.595  0.00  0.00    -0.015 C 
HETATM    2  C   UNK N   1      30.658  14.424   3.052  0.00  0.00     0.010 C 
ENDROOT
BRANCH   1   3
HETATM    3  C   UNK N   1      31.641  16.750   2.944  0.00  0.00     0.004 C 
BRANCH   3   4
HETATM    4  C   UNK N   1      33.026  16.648   3.566  0.00  0.00     0.003 C 
BRANCH   4   5
HETATM    5  C   UNK N   1      33.099  17.695   4.675  0.00  0.00     0.037 C 
BRANCH   5   6
HETATM    6  C   UNK N   1      33.504  17.154   6.047  0.00  0.00     0.053 C 
HETATM    7  C   UNK N   1      34.164  15.787   5.857  0.00  0.00     0.045 C 
HETATM    8  C   UNK N   1      32.246  17.025   6.909  0.00  0.00     0.045 C 
BRANCH   6   9
HETATM    9  O   UNK N   1      34.411  18.092   6.600  0.00  0.00    -0.386 OA
HETATM   10  C   UNK N   1      34.253  18.167   7.997  0.00  0.00     0.202 C 
ENDBRANCH   6   9
ENDBRANCH   5   6
ENDBRANCH   4   5
ENDBRANCH   3   4
ENDBRANCH   1   3
BRANCH   1  11
HETATM   11  C   UNK N   1      29.179  16.430   3.467  0.00  0.00     0.031 C 
BRANCH  11  12
HETATM   12  C   UNK N   1      28.768  16.968   4.801  0.00  0.00    -0.026 C 
HETATM   13  C   UNK N   1      28.605  18.272   5.030  0.00  0.00     0.003 C 
BRANCH  13  14
HETATM   14  C   UNK N   1      28.366  18.759   6.405  0.00  0.00    -0.056 C 
HETATM   15  C   UNK N   1      27.636  20.056   6.610  0.00  0.00     0.048 C 
HETATM   16  C   UNK N   1      28.772  18.006   7.441  0.00  0.00     0.087 C 
BRANCH  16  17
HETATM   17  C   UNK N   1      28.562  18.325   8.876  0.00  0.00     0.165 C 
HETATM   18  O   UNK N   1      29.490  18.763   9.531  0.00  0.00    -0.647 OA
BRANCH  17  19
HETATM   19  O   UNK N   1      27.371  18.119   9.475  0.00  0.00    -0.773 OA
HETATM   20  H   UNK N   1      26.788  17.451   9.173  0.00  0.00     0.167 HD
ENDBRANCH  17  19
ENDBRANCH  16  17
ENDBRANCH  13  14
ENDBRANCH  11  12
ENDBRANCH   1  11
TORSDOF 10
ENDMDL
MODEL 2
REMARK VINA RESULT:      -5.4     12.645     14.396
REMARK  10 active torsions:
REMARK  status: ('A' for Active; 'I' for Inactive)
REMARK    1  A    between atoms: O_2  and  C_3 
REMARK    2  A    between atoms: C_3  and  C_6 
REMARK    3  A    between atoms: C_6  and  C_7 
REMARK    4  A    between atoms: C_7  and  C_8 
REMARK    5  A    between atoms: C_8  and  C_9 
REMARK    6  A    between atoms: C_9  and  C_11 
REMARK    7  A    between atoms: C_11  and  C_12 
REMARK    8  A    between atoms: C_13  and  C_14 
REMARK    9  A    between atoms: C_16  and  C_17 
REMARK   10  A    between atoms: C_17  and  O_18 
ROOT
HETATM    1  C   UNK N   1      26.124  24.914  -6.766  0.00  0.00    -0.015 C 
HETATM    2  C   UNK N   1      25.729  23.921  -7.859  0.00  0.00     0.010 C 
ENDROOT
BRANCH   1   3
HETATM    3  C   UNK N   1      25.632  26.326  -7.087  0.00  0.00     0.004 C 
BRANCH   3   4
HETATM    4  C   UNK N   1      25.286  27.162  -5.864  0.00  0.00     0.003 C 
BRANCH   4   5
HETATM    5  C   UNK N   1      26.463  28.102  -5.613  0.00  0.00     0.037 C 
BRANCH   5   6
HETATM    6  C   UNK N   1      26.704  28.455  -4.144  0.00  0.00     0.053 C 
HETATM    7  C   UNK N   1      25.763  27.614  -3.280  0.00  0.00     0.045 C 
HETATM    8  C   UNK N   1      26.419  29.947  -3.950  0.00  0.00     0.045 C 
BRANCH   6   9
HETATM    9  O   UNK N   1      28.062  28.154  -3.873  0.00  0.00    -0.386 OA
HETATM   10  C   UNK N   1      28.620  29.116  -3.011  0.00  0.00     0.202 C 
ENDBRANCH   6   9
ENDBRANCH   5   6
ENDBRANCH   4   5
ENDBRANCH   3   4
ENDBRANCH   1   3
BRANCH   1  11
HETATM   11  C   UNK N   1      25.658  24.442  -5.387  0.00  0.00     0.031 C 
BRANCH  11  12
HETATM   12  C   UNK N   1      26.867  24.150  -4.556  0.00  0.00    -0.026 C 
HETATM   13  C   UNK N   1      27.979  24.884  -4.626  0.00  0.00     0.003 C 
BRANCH  13  14
HETATM   14  C   UNK N   1      29.198  24.450  -3.911  0.00  0.00    -0.056 C 
HETATM   15  C   UNK N   1      30.369  25.387  -3.816  0.00  0.00     0.048 C 
HETATM   16  C   UNK N   1      29.213  23.241  -3.327  0.00  0.00     0.087 C 
BRANCH  16  17
HETATM   17  C   UNK N   1      30.334  22.680  -2.530  0.00  0.00     0.165 C 
HETATM   18  O   UNK N   1      31.099  21.889  -3.052  0.00  0.00    -0.647 OA
BRANCH  17  19
HETATM   19  O   UNK N   1      30.509  23.010  -1.233  0.00  0.00    -0.773 OA
HETATM   20  H   UNK N   1      31.084  22.517  -0.683  0.00  0.00     0.167 HD
ENDBRANCH  17  19
ENDBRANCH  16  17
ENDBRANCH  13  14
ENDBRANCH  11  12
ENDBRANCH   1  11
TORSDOF 10
ENDMDL
MODEL 3
REMARK VINA RESULT:      -5.1      4.669      6.552
REMARK  10 active torsions:
REMARK  status: ('A' for Active; 'I' for Inactive)
REMARK    1  A    between atoms: O_2  and  C_3 
REMARK    2  A    between atoms: C_3  and  C_6 
REMARK    3  A    between atoms: C_6  and  C_7 
REMARK    4  A    between atoms: C_7  and  C_8 
REMARK    5  A    between atoms: C_8  and  C_9 
REMARK    6  A    between atoms: C_9  and  C_11 
REMARK    7  A    between atoms: C_11  and  C_12 
REMARK    8  A    between atoms: C_13  and  C_14 
REMARK    9  A    between atoms: C_16  and  C_17 
REMARK   10  A    between atoms: C_17  and  O_18 
ROOT
HETATM    1  C   UNK N   1      27.647  20.168   5.307  0.00  0.00    -0.015 C 
HETATM    2  C   UNK N   1      26.913  21.333   5.970  0.00  0.00     0.010 C 
ENDROOT
BRANCH   1   3
HETATM    3  C   UNK N   1      27.447  18.865   6.082  0.00  0.00     0.004 C 
BRANCH   3   4
HETATM    4  C   UNK N   1      28.739  18.195   6.525  0.00  0.00     0.003 C 
BRANCH   4   5
HETATM    5  C   UNK N   1      28.446  17.481   7.843  0.00  0.00     0.037 C 
BRANCH   5   6
HETATM    6  C   UNK N   1      29.581  17.528   8.868  0.00  0.00     0.053 C 
HETATM    7  C   UNK N   1      29.046  17.028  10.211  0.00  0.00     0.045 C 
HETATM    8  C   UNK N   1      30.067  18.974   8.989  0.00  0.00     0.045 C 
BRANCH   6   9
HETATM    9  O   UNK N   1      30.606  16.683   8.374  0.00  0.00    -0.386 OA
HETATM   10  C   UNK N   1      31.842  17.357   8.366  0.00  0.00     0.202 C 
ENDBRANCH   6   9
ENDBRANCH   5   6
ENDBRANCH   4   5
ENDBRANCH   3   4
ENDBRANCH   1   3
BRANCH   1  11
HETATM   11  C   UNK N   1      27.255  20.027   3.834  0.00  0.00     0.031 C 
BRANCH  11  12
HETATM   12  C   UNK N   1      25.835  19.561   3.768  0.00  0.00    -0.026 C 
HETATM   13  C   UNK N   1      24.865  20.292   3.217  0.00  0.00     0.003 C 
BRANCH  13  14
HETATM   14  C   UNK N   1      23.456  19.859   3.330  0.00  0.00    -0.056 C 
HETATM   15  C   UNK N   1      23.122  18.645   4.149  0.00  0.00     0.048 C 
HETATM   16  C   UNK N   1      22.501  20.590   2.729  0.00  0.00     0.087 C 
BRANCH  16  17
HETATM   17  C   UNK N   1      21.042  20.322   2.791  0.00  0.00     0.165 C 
HETATM   18  O   UNK N   1      20.420  20.639   3.789  0.00  0.00    -0.647 OA
BRANCH  17  19
HETATM   19  O   UNK N   1      20.395  19.714   1.775  0.00  0.00    -0.773 OA
HETATM   20  H   UNK N   1      20.470  20.030   0.897  0.00  0.00     0.167 HD
ENDBRANCH  17  19
ENDBRANCH  16  17
ENDBRANCH  13  14
ENDBRANCH  11  12
ENDBRANCH   1  11
TORSDOF 10
ENDMDL
MODEL 4
REMARK VINA RESULT:      -5.1      8.441     11.304
REMARK  10 active torsions:
REMARK  status: ('A' for Active; 'I' for Inactive)
REMARK    1  A    between atoms: O_2  and  C_3 
REMARK    2  A    between atoms: C_3  and  C_6 
REMARK    3  A    between atoms: C_6  and  C_7 
REMARK    4  A    between atoms: C_7  and  C_8 
REMARK    5  A    between atoms: C_8  and  C_9 
REMARK    6  A    between atoms: C_9  and  C_11 
REMARK    7  A    between atoms: C_11  and  C_12 
REMARK    8  A    between atoms: C_13  and  C_14 
REMARK    9  A    between atoms: C_16  and  C_17 
REMARK   10  A    between atoms: C_17  and  O_18 
ROOT
HETATM    1  C   UNK N   1      35.454  12.542  16.090  0.00  0.00    -0.015 C 
HETATM    2  C   UNK N   1      35.045  13.335  17.330  0.00  0.00     0.010 C 
ENDROOT
BRANCH   1   3
HETATM    3  C   UNK N   1      34.277  12.351  15.133  0.00  0.00     0.004 C 
BRANCH   3   4
HETATM    4  C   UNK N   1      33.868  10.900  14.925  0.00  0.00     0.003 C 
BRANCH   4   5
HETATM    5  C   UNK N   1      34.234  10.530  13.490  0.00  0.00     0.037 C 
BRANCH   5   6
HETATM    6  C   UNK N   1      35.328   9.469  13.357  0.00  0.00     0.053 C 
HETATM    7  C   UNK N   1      34.869   8.420  12.343  0.00  0.00     0.045 C 
HETATM    8  C   UNK N   1      35.552   8.828  14.728  0.00  0.00     0.045 C 
BRANCH   6   9
HETATM    9  O   UNK N   1      36.492  10.143  12.910  0.00  0.00    -0.386 OA
HETATM   10  C   UNK N   1      37.545   9.975  13.829  0.00  0.00     0.202 C 
ENDBRANCH   6   9
ENDBRANCH   5   6
ENDBRANCH   4   5
ENDBRANCH   3   4
ENDBRANCH   1   3
BRANCH   1  11
HETATM   11  C   UNK N   1      36.663  13.176  15.396  0.00  0.00     0.031 C 
BRANCH  11  12
HETATM   12  C   UNK N   1      36.190  13.836  14.139  0.00  0.00    -0.026 C 
HETATM   13  C   UNK N   1      36.665  13.510  12.936  0.00  0.00     0.003 C 
BRANCH  13  14
HETATM   14  C   UNK N   1      36.289  14.308  11.750  0.00  0.00    -0.056 C 
HETATM   15  C   UNK N   1      36.552  13.757  10.377  0.00  0.00     0.048 C 
HETATM   16  C   UNK N   1      35.682  15.493  11.930  0.00  0.00     0.087 C 
BRANCH  16  17
HETATM   17  C   UNK N   1      35.196  16.388  10.849  0.00  0.00     0.165 C 
HETATM   18  O   UNK N   1      35.898  17.313  10.480  0.00  0.00    -0.647 OA
BRANCH  17  19
HETATM   19  O   UNK N   1      33.984  16.213  10.283  0.00  0.00    -0.773 OA
HETATM   20  H   UNK N   1      33.226  16.649  10.620  0.00  0.00     0.167 HD
ENDBRANCH  17  19
ENDBRANCH  16  17
ENDBRANCH  13  14
ENDBRANCH  11  12
ENDBRANCH   1  11
TORSDOF 10
ENDMDL
MODEL 5
REMARK VINA RESULT:      -5.0     13.204     15.253
REMARK  10 active torsions:
REMARK  status: ('A' for Active; 'I' for Inactive)
REMARK    1  A    between atoms: O_2  and  C_3 
REMARK    2  A    between atoms: C_3  and  C_6 
REMARK    3  A    between atoms: C_6  and  C_7 
REMARK    4  A    between atoms: C_7  and  C_8 
REMARK    5  A    between atoms: C_8  and  C_9 
REMARK    6  A    between atoms: C_9  and  C_11 
REMARK    7  A    between atoms: C_11  and  C_12 
REMARK    8  A    between atoms: C_13  and  C_14 
REMARK    9  A    between atoms: C_16  and  C_17 
REMARK   10  A    between atoms: C_17  and  O_18 
ROOT
HETATM    1  C   UNK N   1      25.800  27.771  -4.695  0.00  0.00    -0.015 C 
HETATM    2  C   UNK N   1      27.033  28.324  -5.409  0.00  0.00     0.010 C 
ENDROOT
BRANCH   1   3
HETATM    3  C   UNK N   1      24.924  26.951  -5.643  0.00  0.00     0.004 C 
BRANCH   3   4
HETATM    4  C   UNK N   1      25.608  26.555  -6.943  0.00  0.00     0.003 C 
BRANCH   4   5
HETATM    5  C   UNK N   1      25.627  25.029  -6.995  0.00  0.00     0.037 C 
BRANCH   5   6
HETATM    6  C   UNK N   1      25.779  24.434  -8.396  0.00  0.00     0.053 C 
HETATM    7  C   UNK N   1      27.169  23.805  -8.510  0.00  0.00     0.045 C 
HETATM    8  C   UNK N   1      25.614  25.557  -9.422  0.00  0.00     0.045 C 
BRANCH   6   9
HETATM    9  O   UNK N   1      24.759  23.460  -8.534  0.00  0.00    -0.386 OA
HETATM   10  C   UNK N   1      25.316  22.170  -8.630  0.00  0.00     0.202 C 
ENDBRANCH   6   9
ENDBRANCH   5   6
ENDBRANCH   4   5
ENDBRANCH   3   4
ENDBRANCH   1   3
BRANCH   1  11
HETATM   11  C   UNK N   1      26.188  26.982  -3.442  0.00  0.00     0.031 C 
BRANCH  11  12
HETATM   12  C   UNK N   1      27.373  26.131  -3.770  0.00  0.00    -0.026 C 
HETATM   13  C   UNK N   1      27.330  24.798  -3.736  0.00  0.00     0.003 C 
BRANCH  13  14
HETATM   14  C   UNK N   1      28.571  24.012  -3.903  0.00  0.00    -0.056 C 
HETATM   15  C   UNK N   1      28.787  23.235  -5.170  0.00  0.00     0.048 C 
HETATM   16  C   UNK N   1      29.497  24.046  -2.929  0.00  0.00     0.087 C 
BRANCH  16  17
HETATM   17  C   UNK N   1      30.813  23.360  -2.965  0.00  0.00     0.165 C 
HETATM   18  O   UNK N   1      31.054  22.489  -2.148  0.00  0.00    -0.647 OA
BRANCH  17  19
HETATM   19  O   UNK N   1      31.758  23.696  -3.868  0.00  0.00    -0.773 OA
HETATM   20  H   UNK N   1      31.951  23.138  -4.595  0.00  0.00     0.167 HD
ENDBRANCH  17  19
ENDBRANCH  16  17
ENDBRANCH  13  14
ENDBRANCH  11  12
ENDBRANCH   1  11
TORSDOF 10
ENDMDL
MODEL 6
REMARK VINA RESULT:      -5.0      3.056      4.515
REMARK  10 active torsions:
REMARK  status: ('A' for Active; 'I' for Inactive)
REMARK    1  A    between atoms: O_2  and  C_3 
REMARK    2  A    between atoms: C_3  and  C_6 
REMARK    3  A    between atoms: C_6  and  C_7 
REMARK    4  A    between atoms: C_7  and  C_8 
REMARK    5  A    between atoms: C_8  and  C_9 
REMARK    6  A    between atoms: C_9  and  C_11 
REMARK    7  A    between atoms: C_11  and  C_12 
REMARK    8  A    between atoms: C_13  and  C_14 
REMARK    9  A    between atoms: C_16  and  C_17 
REMARK   10  A    between atoms: C_17  and  O_18 
ROOT
HETATM    1  C   UNK N   1      29.332  17.833   8.013  0.00  0.00    -0.015 C 
HETATM    2  C   UNK N   1      28.481  17.822   9.282  0.00  0.00     0.010 C 
ENDROOT
BRANCH   1   3
HETATM    3  C   UNK N   1      30.768  17.390   8.297  0.00  0.00     0.004 C 
BRANCH   3   4
HETATM    4  C   UNK N   1      31.414  16.597   7.170  0.00  0.00     0.003 C 
BRANCH   4   5
HETATM    5  C   UNK N   1      32.836  16.260   7.613  0.00  0.00     0.037 C 
BRANCH   5   6
HETATM    6  C   UNK N   1      33.935  17.078   6.933  0.00  0.00     0.053 C 
HETATM    7  C   UNK N   1      34.334  18.226   7.862  0.00  0.00     0.045 C 
HETATM    8  C   UNK N   1      33.386  17.624   5.612  0.00  0.00     0.045 C 
BRANCH   6   9
HETATM    9  O   UNK N   1      35.019  16.193   6.711  0.00  0.00    -0.386 OA
HETATM   10  C   UNK N   1      34.667  15.206   5.770  0.00  0.00     0.202 C 
ENDBRANCH   6   9
ENDBRANCH   5   6
ENDBRANCH   4   5
ENDBRANCH   3   4
ENDBRANCH   1   3
BRANCH   1  11
HETATM   11  C   UNK N   1      28.685  17.007   6.899  0.00  0.00     0.031 C 
BRANCH  11  12
HETATM   12  C   UNK N   1      27.722  17.883   6.163  0.00  0.00    -0.026 C 
HETATM   13  C   UNK N   1      28.113  18.949   5.463  0.00  0.00     0.003 C 
BRANCH  13  14
HETATM   14  C   UNK N   1      27.108  19.874   4.898  0.00  0.00    -0.056 C 
HETATM   15  C   UNK N   1      26.891  21.212   5.546  0.00  0.00     0.048 C 
HETATM   16  C   UNK N   1      26.440  19.510   3.790  0.00  0.00     0.087 C 
BRANCH  16  17
HETATM   17  C   UNK N   1      25.442  20.342   3.071  0.00  0.00     0.165 C 
HETATM   18  O   UNK N   1      25.809  21.047   2.148  0.00  0.00    -0.647 OA
BRANCH  17  19
HETATM   19  O   UNK N   1      24.143  20.352   3.433  0.00  0.00    -0.773 OA
HETATM   20  H   UNK N   1      23.538  19.730   3.080  0.00  0.00     0.167 HD
ENDBRANCH  17  19
ENDBRANCH  16  17
ENDBRANCH  13  14
ENDBRANCH  11  12
ENDBRANCH   1  11
TORSDOF 10
ENDMDL
MODEL 7
REMARK VINA RESULT:      -4.9     12.895     14.196
REMARK  10 active torsions:
REMARK  status: ('A' for Active; 'I' for Inactive)
REMARK    1  A    between atoms: O_2  and  C_3 
REMARK    2  A    between atoms: C_3  and  C_6 
REMARK    3  A    between atoms: C_6  and  C_7 
REMARK    4  A    between atoms: C_7  and  C_8 
REMARK    5  A    between atoms: C_8  and  C_9 
REMARK    6  A    between atoms: C_9  and  C_11 
REMARK    7  A    between atoms: C_11  and  C_12 
REMARK    8  A    between atoms: C_13  and  C_14 
REMARK    9  A    between atoms: C_16  and  C_17 
REMARK   10  A    between atoms: C_17  and  O_18 
ROOT
HETATM    1  C   UNK N   1      25.483  25.763  -6.185  0.00  0.00    -0.015 C 
HETATM    2  C   UNK N   1      26.760  26.176  -6.915  0.00  0.00     0.010 C 
ENDROOT
BRANCH   1   3
HETATM    3  C   UNK N   1      25.769  24.733  -5.092  0.00  0.00     0.004 C 
BRANCH   3   4
HETATM    4  C   UNK N   1      27.185  24.177  -5.109  0.00  0.00     0.003 C 
BRANCH   4   5
HETATM    5  C   UNK N   1      27.774  24.401  -3.718  0.00  0.00     0.037 C 
BRANCH   5   6
HETATM    6  C   UNK N   1      29.133  23.742  -3.479  0.00  0.00     0.053 C 
HETATM    7  C   UNK N   1      29.097  23.028  -2.126  0.00  0.00     0.045 C 
HETATM    8  C   UNK N   1      30.208  24.831  -3.481  0.00  0.00     0.045 C 
BRANCH   6   9
HETATM    9  O   UNK N   1      29.330  22.825  -4.541  0.00  0.00    -0.386 OA
HETATM   10  C   UNK N   1      30.250  21.827  -4.169  0.00  0.00     0.202 C 
ENDBRANCH   6   9
ENDBRANCH   5   6
ENDBRANCH   4   5
ENDBRANCH   3   4
ENDBRANCH   1   3
BRANCH   1  11
HETATM   11  C   UNK N   1      24.730  26.981  -5.644  0.00  0.00     0.031 C 
BRANCH  11  12
HETATM   12  C   UNK N   1      25.731  27.945  -5.091  0.00  0.00    -0.026 C 
HETATM   13  C   UNK N   1      25.795  28.246  -3.793  0.00  0.00     0.003 C 
BRANCH  13  14
HETATM   14  C   UNK N   1      26.687  29.329  -3.326  0.00  0.00    -0.056 C 
HETATM   15  C   UNK N   1      26.482  30.725  -3.840  0.00  0.00     0.048 C 
HETATM   16  C   UNK N   1      27.637  29.042  -2.420  0.00  0.00     0.087 C 
BRANCH  16  17
HETATM   17  C   UNK N   1      28.575  30.021  -1.814  0.00  0.00     0.165 C 
HETATM   18  O   UNK N   1      29.639  30.245  -2.362  0.00  0.00    -0.647 OA
BRANCH  17  19
HETATM   19  O   UNK N   1      28.284  30.649  -0.656  0.00  0.00    -0.773 OA
HETATM   20  H   UNK N   1      28.954  31.064  -0.150  0.00  0.00     0.167 HD
ENDBRANCH  17  19
ENDBRANCH  16  17
ENDBRANCH  13  14
ENDBRANCH  11  12
ENDBRANCH   1  11
TORSDOF 10
ENDMDL
MODEL 8
REMARK VINA RESULT:      -4.9     11.837     13.835
REMARK  10 active torsions:
REMARK  status: ('A' for Active; 'I' for Inactive)
REMARK    1  A    between atoms: O_2  and  C_3 
REMARK    2  A    between atoms: C_3  and  C_6 
REMARK    3  A    between atoms: C_6  and  C_7 
REMARK    4  A    between atoms: C_7  and  C_8 
REMARK    5  A    between atoms: C_8  and  C_9 
REMARK    6  A    between atoms: C_9  and  C_11 
REMARK    7  A    between atoms: C_11  and  C_12 
REMARK    8  A    between atoms: C_13  and  C_14 
REMARK    9  A    between atoms: C_16  and  C_17 
REMARK   10  A    between atoms: C_17  and  O_18 
ROOT
HETATM    1  C   UNK N   1      26.796  21.902  -7.865  0.00  0.00    -0.015 C 
HETATM    2  C   UNK N   1      25.635  20.973  -8.218  0.00  0.00     0.010 C 
ENDROOT
BRANCH   1   3
HETATM    3  C   UNK N   1      26.489  22.734  -6.620  0.00  0.00     0.004 C 
BRANCH   3   4
HETATM    4  C   UNK N   1      26.201  24.201  -6.901  0.00  0.00     0.003 C 
BRANCH   4   5
HETATM    5  C   UNK N   1      27.052  25.020  -5.933  0.00  0.00     0.037 C 
BRANCH   5   6
HETATM    6  C   UNK N   1      26.260  25.848  -4.919  0.00  0.00     0.053 C 
HETATM    7  C   UNK N   1      25.072  26.491  -5.637  0.00  0.00     0.045 C 
HETATM    8  C   UNK N   1      27.184  26.923  -4.342  0.00  0.00     0.045 C 
BRANCH   6   9
HETATM    9  O   UNK N   1      25.829  24.948  -3.912  0.00  0.00    -0.386 OA
HETATM   10  C   UNK N   1      26.933  24.414  -3.221  0.00  0.00     0.202 C 
ENDBRANCH   6   9
ENDBRANCH   5   6
ENDBRANCH   4   5
ENDBRANCH   3   4
ENDBRANCH   1   3
BRANCH   1  11
HETATM   11  C   UNK N   1      28.110  21.128  -7.731  0.00  0.00     0.031 C 
BRANCH  11  12
HETATM   12  C   UNK N   1      29.008  21.884  -6.804  0.00  0.00    -0.026 C 
HETATM   13  C   UNK N   1      29.820  21.275  -5.938  0.00  0.00     0.003 C 
BRANCH  13  14
HETATM   14  C   UNK N   1      30.557  22.067  -4.931  0.00  0.00    -0.056 C 
HETATM   15  C   UNK N   1      32.004  22.397  -5.168  0.00  0.00     0.048 C 
HETATM   16  C   UNK N   1      29.901  22.509  -3.845  0.00  0.00     0.087 C 
BRANCH  16  17
HETATM   17  C   UNK N   1      30.481  23.357  -2.772  0.00  0.00     0.165 C 
HETATM   18  O   UNK N   1      30.800  22.844  -1.715  0.00  0.00    -0.647 OA
BRANCH  17  19
HETATM   19  O   UNK N   1      30.638  24.687  -2.934  0.00  0.00    -0.773 OA
HETATM   20  H   UNK N   1      30.442  25.100  -3.752  0.00  0.00     0.167 HD
ENDBRANCH  17  19
ENDBRANCH  16  17
ENDBRANCH  13  14
ENDBRANCH  11  12
ENDBRANCH   1  11
TORSDOF 10
ENDMDL
MODEL 9
REMARK VINA RESULT:      -4.9      2.378      5.012
REMARK  10 active torsions:
REMARK  status: ('A' for Active; 'I' for Inactive)
REMARK    1  A    between atoms: O_2  and  C_3 
REMARK    2  A    between atoms: C_3  and  C_6 
REMARK    3  A    between atoms: C_6  and  C_7 
REMARK    4  A    between atoms: C_7  and  C_8 
REMARK    5  A    between atoms: C_8  and  C_9 
REMARK    6  A    between atoms: C_9  and  C_11 
REMARK    7  A    between atoms: C_11  and  C_12 
REMARK    8  A    between atoms: C_13  and  C_14 
REMARK    9  A    between atoms: C_16  and  C_17 
REMARK   10  A    between atoms: C_17  and  O_18 
ROOT
HETATM    1  C   UNK N   1      27.659  17.830   7.031  0.00  0.00    -0.015 C 
HETATM    2  C   UNK N   1      27.716  19.263   6.504  0.00  0.00     0.010 C 
ENDROOT
BRANCH   1   3
HETATM    3  C   UNK N   1      28.449  16.872   6.138  0.00  0.00     0.004 C 
BRANCH   3   4
HETATM    4  C   UNK N   1      28.975  17.500   4.856  0.00  0.00     0.003 C 
BRANCH   4   5
HETATM    5  C   UNK N   1      30.488  17.635   5.007  0.00  0.00     0.037 C 
BRANCH   5   6
HETATM    6  C   UNK N   1      31.310  16.674   4.146  0.00  0.00     0.053 C 
HETATM    7  C   UNK N   1      32.669  17.317   3.862  0.00  0.00     0.045 C 
HETATM    8  C   UNK N   1      30.553  16.423   2.841  0.00  0.00     0.045 C 
BRANCH   6   9
HETATM    9  O   UNK N   1      31.451  15.480   4.895  0.00  0.00    -0.386 OA
HETATM   10  C   UNK N   1      31.020  14.370   4.143  0.00  0.00     0.202 C 
ENDBRANCH   6   9
ENDBRANCH   5   6
ENDBRANCH   4   5
ENDBRANCH   3   4
ENDBRANCH   1   3
BRANCH   1  11
HETATM   11  C   UNK N   1      28.106  17.754   8.493  0.00  0.00     0.031 C 
BRANCH  11  12
HETATM   12  C   UNK N   1      29.524  17.279   8.527  0.00  0.00    -0.026 C 
HETATM   13  C   UNK N   1      30.557  18.115   8.649  0.00  0.00     0.003 C 
BRANCH  13  14
HETATM   14  C   UNK N   1      31.939  17.610   8.506  0.00  0.00    -0.056 C 
HETATM   15  C   UNK N   1      32.192  16.130   8.555  0.00  0.00     0.048 C 
HETATM   16  C   UNK N   1      32.933  18.490   8.295  0.00  0.00     0.087 C 
BRANCH  16  17
HETATM   17  C   UNK N   1      34.361  18.143   8.079  0.00  0.00     0.165 C 
HETATM   18  O   UNK N   1      34.756  17.923   6.948  0.00  0.00    -0.647 OA
BRANCH  17  19
HETATM   19  O   UNK N   1      35.224  18.043   9.110  0.00  0.00    -0.773 OA
HETATM   20  H   UNK N   1      35.894  17.388   9.118  0.00  0.00     0.167 HD
ENDBRANCH  17  19
ENDBRANCH  16  17
ENDBRANCH  13  14
ENDBRANCH  11  12
ENDBRANCH   1  11
TORSDOF 10
ENDMDL
