REMARK  10 active torsions:
REMARK  status: ('A' for Active; 'I' for Inactive)
REMARK    1  A    between atoms: O_2  and  C_3 
REMARK    2  A    between atoms: C_3  and  C_6 
REMARK    3  A    between atoms: C_6  and  C_7 
REMARK    4  A    between atoms: C_7  and  C_8 
REMARK    5  A    between atoms: C_8  and  C_9 
REMARK    6  A    between atoms: C_9  and  C_11 
REMARK    7  A    between atoms: C_11  and  C_12 
REMARK    8  A    between atoms: C_13  and  C_14 
REMARK    9  A    between atoms: C_16  and  C_17 
REMARK   10  A    between atoms: C_17  and  O_18 
ROOT
HETATM    1  C   UNK N   1       0.631  -0.359   0.529  0.00  0.00    -0.015 C 
HETATM    2  C   UNK N   1       0.095   0.935  -0.082  0.00  0.00     0.010 C 
ENDROOT
BRANCH   1   3
HETATM    3  C   UNK N   1      -0.504  -1.297   0.941  0.00  0.00     0.004 C 
BRANCH   3   4
HETATM    4  C   UNK N   1      -1.633  -1.399  -0.074  0.00  0.00     0.003 C 
BRANCH   4   5
HETATM    5  C   UNK N   1      -2.938  -1.145   0.677  0.00  0.00     0.037 C 
BRANCH   5   6
HETATM    6  C   UNK N   1      -4.108  -0.692  -0.198  0.00  0.00     0.053 C 
HETATM    7  C   UNK N   1      -4.399  -1.786  -1.227  0.00  0.00     0.045 C 
HETATM    8  C   UNK N   1      -3.715   0.611  -0.898  0.00  0.00     0.045 C 
BRANCH   6   9
HETATM    9  O   UNK N   1      -5.210  -0.495   0.671  0.00  0.00    -0.386 OA
HETATM   10  C   UNK N   1      -6.340  -0.068  -0.052  0.00  0.00     0.202 C 
ENDBRANCH   6   9
ENDBRANCH   5   6
ENDBRANCH   4   5
ENDBRANCH   3   4
ENDBRANCH   1   3
BRANCH   1  11
HETATM   11  C   UNK N   1       1.633  -1.044  -0.404  0.00  0.00     0.031 C 
BRANCH  11  12
HETATM   12  C   UNK N   1       2.789  -0.118  -0.614  0.00  0.00    -0.026 C 
HETATM   13  C   UNK N   1       4.022  -0.404  -0.193  0.00  0.00     0.003 C 
BRANCH  13  14
HETATM   14  C   UNK N   1       5.088   0.617  -0.275  0.00  0.00    -0.056 C 
HETATM   15  C   UNK N   1       4.741   2.011  -0.715  0.00  0.00     0.048 C 
HETATM   16  C   UNK N   1       6.338   0.282   0.087  0.00  0.00     0.087 C 
BRANCH  16  17
HETATM   17  C   UNK N   1       7.505   1.200   0.113  0.00  0.00     0.165 C 
HETATM   18  O   UNK N   1       8.607   0.755   0.379  0.00  0.00    -0.647 OA
BRANCH  17  19
HETATM   19  O   UNK N   1       7.367   2.520  -0.128  0.00  0.00    -0.773 OA
HETATM   20  H   UNK N   1       8.113   3.061  -0.295  0.00  0.00     0.167 HD
ENDBRANCH  17  19
ENDBRANCH  16  17
ENDBRANCH  13  14
ENDBRANCH  11  12
ENDBRANCH   1  11
TORSDOF 10
