REMARK  2 active torsions:
REMARK  status: ('A' for Active; 'I' for Inactive)
REMARK    1  A    between atoms: C_3  and  O_17 
REMARK    2  A    between atoms: C_4  and  C_13 
REMARK       I    between atoms: N_5  and  C_6 
ROOT
HETATM    1  C   UNK N   1       2.956  -1.502   0.184  0.00  0.00     0.054 A 
HETATM    2  C   UNK N   1       2.922  -2.905   0.056  0.00  0.00     0.092 A 
HETATM    3  C   UNK N   1       1.757  -0.758   0.137  0.00  0.00     0.084 A 
HETATM    4  C   UNK N   1      -0.780  -1.107  -0.134  0.00  0.00     0.023 A 
HETATM    5  C   UNK N   1      -1.498  -2.297  -0.259  0.00  0.00     0.104 A 
HETATM    6  N   UNK N   1      -0.648  -3.352  -0.270  0.00  0.00    -0.351 N 
HETATM    7  C   UNK N   1       0.559  -1.471  -0.044  0.00  0.00     0.055 A 
HETATM    8  C   UNK N   1       0.584  -2.836  -0.142  0.00  0.00     0.119 A 
HETATM    9  N   UNK N   1       1.732  -3.555  -0.098  0.00  0.00    -0.351 N 
ATOM     10  HN  UNK N   1       1.707  -4.572  -0.178  1.00  0.00     0.166 HD
HETATM   11  H   UNK N   1      -0.886  -4.304  -0.354  0.00  0.00     0.166 HD
ENDROOT
BRANCH   4  12
HETATM   12  C   UNK N   1      -1.396   0.240  -0.130  0.00  0.00     0.063 A 
HETATM   13  C   UNK N   1      -2.782   0.379  -0.003  0.00  0.00     0.048 A 
HETATM   14  C   UNK N   1      -3.333   1.660  -0.025  0.00  0.00     0.108 A 
HETATM   15  N   UNK N   1      -2.529   2.741  -0.196  0.00  0.00    -0.202 N 
HETATM   16  C   UNK N   1      -1.187   2.591  -0.337  0.00  0.00     0.676 A 
ATOM     17  HN  UNK N   1      -2.938   3.676  -0.219  1.00  0.00     0.183 HD
HETATM   18  N   UNK N   1      -0.368   3.719  -0.540  0.00  0.00    -0.234 N 
HETATM   19  N   UNK N   1      -0.634   1.352  -0.298  0.00  0.00    -0.191 N 
HETATM   20  H   UNK N   1       0.601   3.617  -0.682  0.00  0.00     0.174 HD
HETATM   21  H   UNK N   1      -0.769   4.618  -0.540  0.00  0.00     0.174 HD
ATOM     22  HN  UNK N   1       0.377   1.253  -0.396  1.00  0.00     0.184 HD
ENDBRANCH   4  12
BRANCH   3  23
HETATM   23  O   UNK N   1       1.757   0.585   0.293  0.00  0.00    -0.355 OA
HETATM   24  C   UNK N   1       2.888   1.317   0.573  0.00  0.00     0.210 C 
ENDBRANCH   3  23
TORSDOF 2
