MODEL 1
REMARK VINA RESULT:      -6.2      0.000      0.000
REMARK  2 active torsions:
REMARK  status: ('A' for Active; 'I' for Inactive)
REMARK    1  A    between atoms: C_3  and  O_17 
REMARK    2  A    between atoms: C_4  and  C_13 
REMARK       I    between atoms: N_5  and  C_6 
ROOT
HETATM    1  C   UNK N   1      36.049  14.259  13.495  0.00  0.00     0.054 A 
HETATM    2  C   UNK N   1      35.346  13.790  12.367  0.00  0.00     0.092 A 
HETATM    3  C   UNK N   1      35.991  13.545  14.712  0.00  0.00     0.084 A 
HETATM    4  C   UNK N   1      34.922  11.428  15.716  0.00  0.00     0.023 A 
HETATM    5  C   UNK N   1      34.125  10.465  15.097  0.00  0.00     0.104 A 
HETATM    6  N   UNK N   1      33.908  10.804  13.803  0.00  0.00    -0.351 N 
HETATM    7  C   UNK N   1      35.213  12.375  14.740  0.00  0.00     0.055 A 
HETATM    8  C   UNK N   1      34.568  11.955  13.607  0.00  0.00     0.119 A 
HETATM    9  N   UNK N   1      34.620  12.637  12.437  0.00  0.00    -0.351 N 
ATOM     10  HN  UNK N   1      34.122  12.292  11.616  1.00  0.00     0.166 HD
HETATM   11  H   UNK N   1      33.376  10.306  13.141  0.00  0.00     0.166 HD
ENDROOT
BRANCH   4  12
HETATM   12  C   UNK N   1      35.317  11.390  17.143  0.00  0.00     0.063 A 
HETATM   13  C   UNK N   1      35.986  10.275  17.658  0.00  0.00     0.048 A 
HETATM   14  C   UNK N   1      36.325  10.260  19.010  0.00  0.00     0.108 A 
HETATM   15  N   UNK N   1      35.979  11.304  19.807  0.00  0.00    -0.202 N 
HETATM   16  C   UNK N   1      35.313  12.373  19.299  0.00  0.00     0.676 A 
ATOM     17  HN  UNK N   1      36.222  11.285  20.798  1.00  0.00     0.183 HD
HETATM   18  N   UNK N   1      34.937  13.437  20.142  0.00  0.00    -0.234 N 
HETATM   19  N   UNK N   1      34.994  12.410  17.980  0.00  0.00    -0.191 N 
HETATM   20  H   UNK N   1      34.420  14.197  19.791  0.00  0.00     0.174 HD
HETATM   21  H   UNK N   1      35.194  13.419  21.092  0.00  0.00     0.174 HD
ATOM     22  HN  UNK N   1      34.501  13.222  17.608  1.00  0.00     0.184 HD
ENDBRANCH   4  12
BRANCH   3  23
HETATM   23  O   UNK N   1      36.684  13.952  15.799  0.00  0.00    -0.355 OA
HETATM   24  C   UNK N   1      37.189  15.224  15.945  0.00  0.00     0.210 C 
ENDBRANCH   3  23
TORSDOF 2
ENDMDL
MODEL 2
REMARK VINA RESULT:      -6.2      8.471     11.444
REMARK  2 active torsions:
REMARK  status: ('A' for Active; 'I' for Inactive)
REMARK    1  A    between atoms: C_3  and  O_17 
REMARK    2  A    between atoms: C_4  and  C_13 
REMARK       I    between atoms: N_5  and  C_6 
ROOT
HETATM    1  C   UNK N   1      28.551  17.860   5.011  0.00  0.00     0.054 A 
HETATM    2  C   UNK N   1      27.350  18.465   5.431  0.00  0.00     0.092 A 
HETATM    3  C   UNK N   1      29.558  17.556   5.953  0.00  0.00     0.084 A 
HETATM    4  C   UNK N   1      30.026  17.742   8.479  0.00  0.00     0.023 A 
HETATM    5  C   UNK N   1      29.199  18.219   9.496  0.00  0.00     0.104 A 
HETATM    6  N   UNK N   1      28.029  18.659   8.974  0.00  0.00    -0.351 N 
HETATM    7  C   UNK N   1      29.307  17.884   7.297  0.00  0.00     0.055 A 
HETATM    8  C   UNK N   1      28.113  18.452   7.651  0.00  0.00     0.119 A 
HETATM    9  N   UNK N   1      27.144  18.747   6.751  0.00  0.00    -0.351 N 
ATOM     10  HN  UNK N   1      26.269  19.173   7.056  1.00  0.00     0.166 HD
HETATM   11  H   UNK N   1      27.271  19.051   9.466  0.00  0.00     0.166 HD
ENDROOT
BRANCH   4  12
HETATM   12  C   UNK N   1      31.397  17.224   8.695  0.00  0.00     0.063 A 
HETATM   13  C   UNK N   1      32.506  18.005   8.353  0.00  0.00     0.048 A 
HETATM   14  C   UNK N   1      33.783  17.480   8.548  0.00  0.00     0.108 A 
HETATM   15  N   UNK N   1      33.931  16.221   9.035  0.00  0.00    -0.202 N 
HETATM   16  C   UNK N   1      32.846  15.466   9.346  0.00  0.00     0.676 A 
ATOM     17  HN  UNK N   1      34.868  15.838   9.169  1.00  0.00     0.183 HD
HETATM   18  N   UNK N   1      33.014  14.152   9.825  0.00  0.00    -0.234 N 
HETATM   19  N   UNK N   1      31.597  15.971   9.179  0.00  0.00    -0.191 N 
HETATM   20  H   UNK N   1      32.233  13.584  10.016  0.00  0.00     0.174 HD
HETATM   21  H   UNK N   1      33.921  13.799   9.971  0.00  0.00     0.174 HD
ATOM     22  HN  UNK N   1      30.789  15.397   9.425  1.00  0.00     0.184 HD
ENDBRANCH   4  12
BRANCH   3  23
HETATM   23  O   UNK N   1      30.705  16.944   5.583  0.00  0.00    -0.355 OA
HETATM   24  C   UNK N   1      31.592  17.477   4.677  0.00  0.00     0.210 C 
ENDBRANCH   3  23
TORSDOF 2
ENDMDL
MODEL 3
REMARK VINA RESULT:      -6.0      1.608      5.742
REMARK  2 active torsions:
REMARK  status: ('A' for Active; 'I' for Inactive)
REMARK    1  A    between atoms: C_3  and  O_17 
REMARK    2  A    between atoms: C_4  and  C_13 
REMARK       I    between atoms: N_5  and  C_6 
ROOT
HETATM    1  C   UNK N   1      35.196   9.743  18.987  0.00  0.00     0.054 A 
HETATM    2  C   UNK N   1      35.046  10.369  20.240  0.00  0.00     0.092 A 
HETATM    3  C   UNK N   1      35.328  10.523  17.817  0.00  0.00     0.084 A 
HETATM    4  C   UNK N   1      35.400  12.989  17.080  0.00  0.00     0.023 A 
HETATM    5  C   UNK N   1      35.352  14.145  17.861  0.00  0.00     0.104 A 
HETATM    6  N   UNK N   1      35.204  13.815  19.167  0.00  0.00    -0.351 N 
HETATM    7  C   UNK N   1      35.299  11.921  17.964  0.00  0.00     0.055 A 
HETATM    8  C   UNK N   1      35.172  12.475  19.209  0.00  0.00     0.119 A 
HETATM    9  N   UNK N   1      35.044  11.731  20.335  0.00  0.00    -0.351 N 
ATOM     10  HN  UNK N   1      34.948  12.184  21.244  1.00  0.00     0.166 HD
HETATM   11  H   UNK N   1      35.135  14.434  19.930  0.00  0.00     0.166 HD
ENDROOT
BRANCH   4  12
HETATM   12  C   UNK N   1      35.515  12.987  15.603  0.00  0.00     0.063 A 
HETATM   13  C   UNK N   1      36.364  13.895  14.963  0.00  0.00     0.048 A 
HETATM   14  C   UNK N   1      36.433  13.883  13.570  0.00  0.00     0.108 A 
HETATM   15  N   UNK N   1      35.662  13.018  12.861  0.00  0.00    -0.202 N 
HETATM   16  C   UNK N   1      34.828  12.154  13.495  0.00  0.00     0.676 A 
ATOM     17  HN  UNK N   1      35.711  13.017  11.842  1.00  0.00     0.183 HD
HETATM   18  N   UNK N   1      34.015  11.280  12.746  0.00  0.00    -0.234 N 
HETATM   19  N   UNK N   1      34.765  12.141  14.850  0.00  0.00    -0.191 N 
HETATM   20  H   UNK N   1      33.379  10.677  13.195  0.00  0.00     0.174 HD
HETATM   21  H   UNK N   1      34.084  11.273  11.764  0.00  0.00     0.174 HD
ATOM     22  HN  UNK N   1      34.141  11.481  15.315  1.00  0.00     0.184 HD
ENDBRANCH   4  12
BRANCH   3  23
HETATM   23  O   UNK N   1      35.509   9.948  16.607  0.00  0.00    -0.355 OA
HETATM   24  C   UNK N   1      36.685   9.349  16.219  0.00  0.00     0.210 C 
ENDBRANCH   3  23
TORSDOF 2
ENDMDL
MODEL 4
REMARK VINA RESULT:      -6.0      8.591     11.710
REMARK  2 active torsions:
REMARK  status: ('A' for Active; 'I' for Inactive)
REMARK    1  A    between atoms: C_3  and  O_17 
REMARK    2  A    between atoms: C_4  and  C_13 
REMARK       I    between atoms: N_5  and  C_6 
ROOT
HETATM    1  C   UNK N   1      27.880  17.580   6.090  0.00  0.00     0.054 A 
HETATM    2  C   UNK N   1      27.723  17.611   4.690  0.00  0.00     0.092 A 
HETATM    3  C   UNK N   1      29.169  17.459   6.654  0.00  0.00     0.084 A 
HETATM    4  C   UNK N   1      31.633  17.249   5.937  0.00  0.00     0.023 A 
HETATM    5  C   UNK N   1      32.182  17.263   4.654  0.00  0.00     0.104 A 
HETATM    6  N   UNK N   1      31.197  17.364   3.729  0.00  0.00    -0.351 N 
HETATM    7  C   UNK N   1      30.258  17.368   5.770  0.00  0.00     0.055 A 
HETATM    8  C   UNK N   1      30.047  17.424   4.419  0.00  0.00     0.119 A 
HETATM    9  N   UNK N   1      28.813  17.540   3.871  0.00  0.00    -0.351 N 
ATOM     10  HN  UNK N   1      28.699  17.575   2.858  1.00  0.00     0.166 HD
HETATM   11  H   UNK N   1      31.303  17.390   2.750  0.00  0.00     0.166 HD
ENDROOT
BRANCH   4  12
HETATM   12  C   UNK N   1      32.426  17.106   7.180  0.00  0.00     0.063 A 
HETATM   13  C   UNK N   1      33.557  17.902   7.387  0.00  0.00     0.048 A 
HETATM   14  C   UNK N   1      34.295  17.728   8.558  0.00  0.00     0.108 A 
HETATM   15  N   UNK N   1      33.925  16.780   9.457  0.00  0.00    -0.202 N 
HETATM   16  C   UNK N   1      32.836  16.001   9.235  0.00  0.00     0.676 A 
ATOM     17  HN  UNK N   1      34.473  16.651  10.309  1.00  0.00     0.183 HD
HETATM   18  N   UNK N   1      32.479  15.004  10.164  0.00  0.00    -0.234 N 
HETATM   19  N   UNK N   1      32.096  16.172   8.109  0.00  0.00    -0.191 N 
HETATM   20  H   UNK N   1      31.714  14.409   9.993  0.00  0.00     0.174 HD
HETATM   21  H   UNK N   1      33.001  14.901  10.992  0.00  0.00     0.174 HD
ATOM     22  HN  UNK N   1      31.274  15.587   7.958  1.00  0.00     0.184 HD
ENDBRANCH   4  12
BRANCH   3  23
HETATM   23  O   UNK N   1      29.352  17.463   7.994  0.00  0.00    -0.355 OA
HETATM   24  C   UNK N   1      28.353  17.748   8.896  0.00  0.00     0.210 C 
ENDBRANCH   3  23
TORSDOF 2
ENDMDL
MODEL 5
REMARK VINA RESULT:      -5.8     10.098     13.569
REMARK  2 active torsions:
REMARK  status: ('A' for Active; 'I' for Inactive)
REMARK    1  A    between atoms: C_3  and  O_17 
REMARK    2  A    between atoms: C_4  and  C_13 
REMARK       I    between atoms: N_5  and  C_6 
ROOT
HETATM    1  C   UNK N   1      31.859  16.445   6.683  0.00  0.00     0.054 A 
HETATM    2  C   UNK N   1      32.318  16.175   7.987  0.00  0.00     0.092 A 
HETATM    3  C   UNK N   1      30.670  17.182   6.490  0.00  0.00     0.084 A 
HETATM    4  C   UNK N   1      28.820  18.348   7.850  0.00  0.00     0.023 A 
HETATM    5  C   UNK N   1      28.702  18.494   9.233  0.00  0.00     0.104 A 
HETATM    6  N   UNK N   1      29.729  17.865   9.855  0.00  0.00    -0.351 N 
HETATM    7  C   UNK N   1      29.984  17.617   7.637  0.00  0.00     0.055 A 
HETATM    8  C   UNK N   1      30.487  17.342   8.880  0.00  0.00     0.119 A 
HETATM    9  N   UNK N   1      31.628  16.635   9.071  0.00  0.00    -0.351 N 
ATOM     10  HN  UNK N   1      31.967  16.449  10.015  1.00  0.00     0.166 HD
HETATM   11  H   UNK N   1      29.886  17.805  10.825  0.00  0.00     0.166 HD
ENDROOT
BRANCH   4  12
HETATM   12  C   UNK N   1      27.843  18.877   6.871  0.00  0.00     0.063 A 
HETATM   13  C   UNK N   1      27.578  20.249   6.813  0.00  0.00     0.048 A 
HETATM   14  C   UNK N   1      26.636  20.713   5.895  0.00  0.00     0.108 A 
HETATM   15  N   UNK N   1      25.976  19.833   5.098  0.00  0.00    -0.202 N 
HETATM   16  C   UNK N   1      26.229  18.502   5.178  0.00  0.00     0.676 A 
ATOM     17  HN  UNK N   1      25.282  20.177   4.433  1.00  0.00     0.183 HD
HETATM   18  N   UNK N   1      25.518  17.599   4.364  0.00  0.00    -0.234 N 
HETATM   19  N   UNK N   1      27.157  18.037   6.053  0.00  0.00    -0.191 N 
HETATM   20  H   UNK N   1      25.666  16.628   4.442  0.00  0.00     0.174 HD
HETATM   21  H   UNK N   1      24.865  17.941   3.711  0.00  0.00     0.174 HD
ATOM     22  HN  UNK N   1      27.344  17.035   6.096  1.00  0.00     0.184 HD
ENDBRANCH   4  12
BRANCH   3  23
HETATM   23  O   UNK N   1      30.226  17.487   5.250  0.00  0.00    -0.355 OA
HETATM   24  C   UNK N   1      30.036  16.551   4.260  0.00  0.00     0.210 C 
ENDBRANCH   3  23
TORSDOF 2
ENDMDL
MODEL 6
REMARK VINA RESULT:      -5.8     10.432     12.920
REMARK  2 active torsions:
REMARK  status: ('A' for Active; 'I' for Inactive)
REMARK    1  A    between atoms: C_3  and  O_17 
REMARK    2  A    between atoms: C_4  and  C_13 
REMARK       I    between atoms: N_5  and  C_6 
ROOT
HETATM    1  C   UNK N   1      28.285  17.892   8.071  0.00  0.00     0.054 A 
HETATM    2  C   UNK N   1      28.735  18.257   9.356  0.00  0.00     0.092 A 
HETATM    3  C   UNK N   1      29.209  17.459   7.095  0.00  0.00     0.084 A 
HETATM    4  C   UNK N   1      31.735  17.050   6.803  0.00  0.00     0.023 A 
HETATM    5  C   UNK N   1      32.762  17.177   7.739  0.00  0.00     0.104 A 
HETATM    6  N   UNK N   1      32.264  17.622   8.917  0.00  0.00    -0.351 N 
HETATM    7  C   UNK N   1      30.565  17.415   7.462  0.00  0.00     0.055 A 
HETATM    8  C   UNK N   1      30.942  17.761   8.731  0.00  0.00     0.119 A 
HETATM    9  N   UNK N   1      30.060  18.179   9.671  0.00  0.00    -0.351 N 
ATOM     10  HN  UNK N   1      30.383  18.431  10.606  1.00  0.00     0.166 HD
HETATM   11  H   UNK N   1      32.768  17.805   9.743  0.00  0.00     0.166 HD
ENDROOT
BRANCH   4  12
HETATM   12  C   UNK N   1      31.936  16.626   5.398  0.00  0.00     0.063 A 
HETATM   13  C   UNK N   1      32.679  17.424   4.522  0.00  0.00     0.048 A 
HETATM   14  C   UNK N   1      32.831  17.008   3.200  0.00  0.00     0.108 A 
HETATM   15  N   UNK N   1      32.239  15.861   2.778  0.00  0.00    -0.202 N 
HETATM   16  C   UNK N   1      31.505  15.104   3.634  0.00  0.00     0.676 A 
ATOM     17  HN  UNK N   1      32.348  15.564   1.807  1.00  0.00     0.183 HD
HETATM   18  N   UNK N   1      30.875  13.931   3.176  0.00  0.00    -0.234 N 
HETATM   19  N   UNK N   1      31.364  15.487   4.929  0.00  0.00    -0.191 N 
HETATM   20  H   UNK N   1      30.309  13.397   3.779  0.00  0.00     0.174 HD
HETATM   21  H   UNK N   1      31.002  13.642   2.244  0.00  0.00     0.174 HD
ATOM     22  HN  UNK N   1      30.817  14.905   5.564  1.00  0.00     0.184 HD
ENDBRANCH   4  12
BRANCH   3  23
HETATM   23  O   UNK N   1      28.801  17.069   5.866  0.00  0.00    -0.355 OA
HETATM   24  C   UNK N   1      28.532  17.947   4.842  0.00  0.00     0.210 C 
ENDBRANCH   3  23
TORSDOF 2
ENDMDL
MODEL 7
REMARK VINA RESULT:      -5.7      7.301     11.529
REMARK  2 active torsions:
REMARK  status: ('A' for Active; 'I' for Inactive)
REMARK    1  A    between atoms: C_3  and  O_17 
REMARK    2  A    between atoms: C_4  and  C_13 
REMARK       I    between atoms: N_5  and  C_6 
ROOT
HETATM    1  C   UNK N   1      33.268  14.170   9.604  0.00  0.00     0.054 A 
HETATM    2  C   UNK N   1      34.105  14.735  10.587  0.00  0.00     0.092 A 
HETATM    3  C   UNK N   1      32.915  14.918   8.460  0.00  0.00     0.084 A 
HETATM    4  C   UNK N   1      33.311  17.235   7.410  0.00  0.00     0.023 A 
HETATM    5  C   UNK N   1      34.108  18.285   7.866  0.00  0.00     0.104 A 
HETATM    6  N   UNK N   1      34.675  17.956   9.052  0.00  0.00    -0.351 N 
HETATM    7  C   UNK N   1      33.425  16.223   8.357  0.00  0.00     0.055 A 
HETATM    8  C   UNK N   1      34.251  16.714   9.332  0.00  0.00     0.119 A 
HETATM    9  N   UNK N   1      34.592  16.000  10.433  0.00  0.00    -0.351 N 
ATOM     10  HN  UNK N   1      35.209  16.405  11.138  1.00  0.00     0.166 HD
HETATM   11  H   UNK N   1      35.276  18.514   9.598  0.00  0.00     0.166 HD
ENDROOT
BRANCH   4  12
HETATM   12  C   UNK N   1      32.513  17.278   6.163  0.00  0.00     0.063 A 
HETATM   13  C   UNK N   1      33.145  17.467   4.929  0.00  0.00     0.048 A 
HETATM   14  C   UNK N   1      32.363  17.524   3.776  0.00  0.00     0.108 A 
HETATM   15  N   UNK N   1      31.012  17.425   3.867  0.00  0.00    -0.202 N 
HETATM   16  C   UNK N   1      30.409  17.260   5.073  0.00  0.00     0.676 A 
ATOM     17  HN  UNK N   1      30.444  17.475   3.021  1.00  0.00     0.183 HD
HETATM   18  N   UNK N   1      29.005  17.186   5.156  0.00  0.00    -0.234 N 
HETATM   19  N   UNK N   1      31.158  17.183   6.202  0.00  0.00    -0.191 N 
HETATM   20  H   UNK N   1      28.557  17.105   6.029  0.00  0.00     0.174 HD
HETATM   21  H   UNK N   1      28.467  17.214   4.332  0.00  0.00     0.174 HD
ATOM     22  HN  UNK N   1      30.694  17.050   7.101  1.00  0.00     0.184 HD
ENDBRANCH   4  12
BRANCH   3  23
HETATM   23  O   UNK N   1      32.142  14.387   7.485  0.00  0.00    -0.355 OA
HETATM   24  C   UNK N   1      32.642  13.639   6.443  0.00  0.00     0.210 C 
ENDBRANCH   3  23
TORSDOF 2
ENDMDL
MODEL 8
REMARK VINA RESULT:      -5.6     10.421     12.780
REMARK  2 active torsions:
REMARK  status: ('A' for Active; 'I' for Inactive)
REMARK    1  A    between atoms: C_3  and  O_17 
REMARK    2  A    between atoms: C_4  and  C_13 
REMARK       I    between atoms: N_5  and  C_6 
ROOT
HETATM    1  C   UNK N   1      32.912  17.468   8.520  0.00  0.00     0.054 A 
HETATM    2  C   UNK N   1      34.119  17.363   7.800  0.00  0.00     0.092 A 
HETATM    3  C   UNK N   1      31.678  17.477   7.834  0.00  0.00     0.084 A 
HETATM    4  C   UNK N   1      30.744  17.354   5.437  0.00  0.00     0.023 A 
HETATM    5  C   UNK N   1      31.428  17.190   4.232  0.00  0.00     0.104 A 
HETATM    6  N   UNK N   1      32.763  17.142   4.459  0.00  0.00    -0.351 N 
HETATM    7  C   UNK N   1      31.715  17.382   6.432  0.00  0.00     0.055 A 
HETATM    8  C   UNK N   1      32.916  17.262   5.787  0.00  0.00     0.119 A 
HETATM    9  N   UNK N   1      34.104  17.253   6.440  0.00  0.00    -0.351 N 
ATOM     10  HN  UNK N   1      34.978  17.164   5.921  1.00  0.00     0.166 HD
HETATM   11  H   UNK N   1      33.475  17.040   3.787  0.00  0.00     0.166 HD
ENDROOT
BRANCH   4  12
HETATM   12  C   UNK N   1      29.273  17.486   5.548  0.00  0.00     0.063 A 
HETATM   13  C   UNK N   1      28.605  18.508   4.864  0.00  0.00     0.048 A 
HETATM   14  C   UNK N   1      27.222  18.618   5.007  0.00  0.00     0.108 A 
HETATM   15  N   UNK N   1      26.554  17.761   5.821  0.00  0.00    -0.202 N 
HETATM   16  C   UNK N   1      27.216  16.785   6.493  0.00  0.00     0.676 A 
ATOM     17  HN  UNK N   1      25.543  17.851   5.928  1.00  0.00     0.183 HD
HETATM   18  N   UNK N   1      26.514  15.919   7.354  0.00  0.00    -0.234 N 
HETATM   19  N   UNK N   1      28.560  16.653   6.349  0.00  0.00    -0.191 N 
HETATM   20  H   UNK N   1      26.991  15.234   7.876  0.00  0.00     0.174 HD
HETATM   21  H   UNK N   1      25.536  16.001   7.435  0.00  0.00     0.174 HD
ATOM     22  HN  UNK N   1      29.045  15.910   6.853  1.00  0.00     0.184 HD
ENDBRANCH   4  12
BRANCH   3  23
HETATM   23  O   UNK N   1      30.503  17.541   8.501  0.00  0.00    -0.355 OA
HETATM   24  C   UNK N   1      30.097  18.641   9.220  0.00  0.00     0.210 C 
ENDBRANCH   3  23
TORSDOF 2
ENDMDL
MODEL 9
REMARK VINA RESULT:      -5.6     10.271     11.991
REMARK  2 active torsions:
REMARK  status: ('A' for Active; 'I' for Inactive)
REMARK    1  A    between atoms: C_3  and  O_17 
REMARK    2  A    between atoms: C_4  and  C_13 
REMARK       I    between atoms: N_5  and  C_6 
ROOT
HETATM    1  C   UNK N   1      32.119  16.464   4.151  0.00  0.00     0.054 A 
HETATM    2  C   UNK N   1      33.506  16.260   4.297  0.00  0.00     0.092 A 
HETATM    3  C   UNK N   1      31.345  16.879   5.256  0.00  0.00     0.084 A 
HETATM    4  C   UNK N   1      31.608  17.467   7.749  0.00  0.00     0.023 A 
HETATM    5  C   UNK N   1      32.766  17.514   8.526  0.00  0.00     0.104 A 
HETATM    6  N   UNK N   1      33.838  17.142   7.785  0.00  0.00    -0.351 N 
HETATM    7  C   UNK N   1      32.011  17.070   6.479  0.00  0.00     0.055 A 
HETATM    8  C   UNK N   1      33.364  16.877   6.558  0.00  0.00     0.119 A 
HETATM    9  N   UNK N   1      34.112  16.478   5.500  0.00  0.00    -0.351 N 
ATOM     10  HN  UNK N   1      35.118  16.342   5.602  1.00  0.00     0.166 HD
HETATM   11  H   UNK N   1      34.774  17.080   8.085  0.00  0.00     0.166 HD
ENDROOT
BRANCH   4  12
HETATM   12  C   UNK N   1      30.252  17.773   8.259  0.00  0.00     0.063 A 
HETATM   13  C   UNK N   1      29.783  17.158   9.425  0.00  0.00     0.048 A 
HETATM   14  C   UNK N   1      28.493  17.450   9.866  0.00  0.00     0.108 A 
HETATM   15  N   UNK N   1      27.707  18.295   9.150  0.00  0.00    -0.202 N 
HETATM   16  C   UNK N   1      28.167  18.871   8.010  0.00  0.00     0.676 A 
ATOM     17  HN  UNK N   1      26.761  18.500   9.473  1.00  0.00     0.183 HD
HETATM   18  N   UNK N   1      27.331  19.725   7.263  0.00  0.00    -0.234 N 
HETATM   19  N   UNK N   1      29.427  18.611   7.578  0.00  0.00    -0.191 N 
HETATM   20  H   UNK N   1      27.642  20.116   6.415  0.00  0.00     0.174 HD
HETATM   21  H   UNK N   1      26.428  19.932   7.594  0.00  0.00     0.174 HD
ATOM     22  HN  UNK N   1      29.765  19.057   6.724  1.00  0.00     0.184 HD
ENDBRANCH   4  12
BRANCH   3  23
HETATM   23  O   UNK N   1      30.019  17.117   5.135  0.00  0.00    -0.355 OA
HETATM   24  C   UNK N   1      29.272  16.721   4.049  0.00  0.00     0.210 C 
ENDBRANCH   3  23
TORSDOF 2
ENDMDL
