MODEL 1
REMARK VINA RESULT:      -7.3      0.000      0.000
REMARK  7 active torsions:
REMARK  status: ('A' for Active; 'I' for Inactive)
REMARK    1  A    between atoms: C_2  and  O_3 
REMARK    2  A    between atoms: C_2  and  C_5 
REMARK    3  A    between atoms: C_6  and  O_7 
REMARK    4  A    between atoms: C_12  and  O_13 
REMARK    5  A    between atoms: O_13  and  C_14 
REMARK    6  A    between atoms: C_16  and  O_17 
REMARK    7  A    between atoms: C_18  and  O_19 
ROOT
HETATM    1  C   UNK N   1      32.676  17.305   6.691  0.00  0.00     0.078 A 
HETATM    2  C   UNK N   1      31.871  17.208   7.859  0.00  0.00     0.085 A 
HETATM    3  C   UNK N   1      30.473  17.199   7.761  0.00  0.00     0.074 A 
HETATM    4  C   UNK N   1      32.025  17.332   5.429  0.00  0.00    -0.040 A 
HETATM    5  C   UNK N   1      32.754  17.393   4.130  0.00  0.00     0.049 C 
HETATM    6  C   UNK N   1      30.642  17.323   5.366  0.00  0.00     0.045 A 
HETATM    7  C   UNK N   1      29.850  17.292   6.516  0.00  0.00     0.079 A 
ENDROOT
BRANCH   7   8
HETATM    8  O   UNK N   1      28.493  17.388   6.436  0.00  0.00    -0.308 OA
BRANCH   8   9
HETATM    9  C   UNK N   1      27.808  18.548   6.195  0.00  0.00     0.112 A 
HETATM   10  C   UNK N   1      27.569  18.991   4.880  0.00  0.00     0.047 A 
HETATM   11  C   UNK N   1      26.877  20.169   4.629  0.00  0.00    -0.057 A 
HETATM   12  C   UNK N   1      26.413  20.937   5.695  0.00  0.00     0.046 A 
HETATM   13  C   UNK N   1      26.632  20.596   3.228  0.00  0.00     0.048 C 
HETATM   14  C   UNK N   1      26.650  20.527   7.011  0.00  0.00     0.102 A 
HETATM   15  C   UNK N   1      27.351  19.334   7.266  0.00  0.00     0.133 A 
BRANCH  14  16
HETATM   16  O   UNK N   1      26.201  21.280   8.028  0.00  0.00    -0.358 OA
HETATM   17  H   UNK N   1      26.556  22.134   8.180  0.00  0.00     0.217 HD
ENDBRANCH  14  16
BRANCH  15  18
HETATM   18  O   UNK N   1      27.577  18.945   8.533  0.00  0.00    -0.356 OA
HETATM   19  H   UNK N   1      27.913  19.550   9.165  0.00  0.00     0.218 HD
ENDBRANCH  15  18
ENDBRANCH   8   9
ENDBRANCH   7   8
BRANCH   2  20
HETATM   20  O   UNK N   1      32.428  17.155   9.083  0.00  0.00    -0.360 OA
HETATM   21  H   UNK N   1      32.932  16.443   9.427  0.00  0.00     0.217 HD
ENDBRANCH   2  20
BRANCH   1  22
HETATM   22  C   UNK N   1      34.169  17.408   6.788  0.00  0.00     0.296 C 
HETATM   23  O   UNK N   1      34.686  18.404   7.283  0.00  0.00    -0.259 OA
BRANCH  22  24
HETATM   24  O   UNK N   1      34.956  16.436   6.264  0.00  0.00    -0.322 OA
HETATM   25  C   UNK N   1      35.016  15.161   6.777  0.00  0.00     0.213 C 
ENDBRANCH  22  24
ENDBRANCH   1  22
TORSDOF 7
ENDMDL
MODEL 2
REMARK VINA RESULT:      -6.9      1.368      2.058
REMARK  7 active torsions:
REMARK  status: ('A' for Active; 'I' for Inactive)
REMARK    1  A    between atoms: C_2  and  O_3 
REMARK    2  A    between atoms: C_2  and  C_5 
REMARK    3  A    between atoms: C_6  and  O_7 
REMARK    4  A    between atoms: C_12  and  O_13 
REMARK    5  A    between atoms: O_13  and  C_14 
REMARK    6  A    between atoms: C_16  and  O_17 
REMARK    7  A    between atoms: C_18  and  O_19 
ROOT
HETATM    1  C   UNK N   1      32.652  17.221   6.700  0.00  0.00     0.078 A 
HETATM    2  C   UNK N   1      31.862  17.028   7.867  0.00  0.00     0.085 A 
HETATM    3  C   UNK N   1      30.465  16.964   7.779  0.00  0.00     0.074 A 
HETATM    4  C   UNK N   1      31.988  17.284   5.446  0.00  0.00    -0.040 A 
HETATM    5  C   UNK N   1      32.702  17.444   4.146  0.00  0.00     0.049 C 
HETATM    6  C   UNK N   1      30.606  17.218   5.392  0.00  0.00     0.045 A 
HETATM    7  C   UNK N   1      29.827  17.093   6.544  0.00  0.00     0.079 A 
ENDROOT
BRANCH   7   8
HETATM    8  O   UNK N   1      28.467  17.134   6.479  0.00  0.00    -0.308 OA
BRANCH   8   9
HETATM    9  C   UNK N   1      27.745  18.141   5.896  0.00  0.00     0.112 A 
HETATM   10  C   UNK N   1      27.769  19.448   6.418  0.00  0.00     0.047 A 
HETATM   11  C   UNK N   1      27.037  20.473   5.832  0.00  0.00    -0.057 A 
HETATM   12  C   UNK N   1      26.255  20.208   4.710  0.00  0.00     0.046 A 
HETATM   13  C   UNK N   1      27.098  21.842   6.404  0.00  0.00     0.048 C 
HETATM   14  C   UNK N   1      26.203  18.915   4.180  0.00  0.00     0.102 A 
HETATM   15  C   UNK N   1      26.945  17.876   4.772  0.00  0.00     0.133 A 
BRANCH  14  16
HETATM   16  O   UNK N   1      25.442  18.673   3.100  0.00  0.00    -0.358 OA
HETATM   17  H   UNK N   1      25.823  18.325   2.318  0.00  0.00     0.217 HD
ENDBRANCH  14  16
BRANCH  15  18
HETATM   18  O   UNK N   1      26.890  16.634   4.260  0.00  0.00    -0.356 OA
HETATM   19  H   UNK N   1      26.761  15.893   4.819  0.00  0.00     0.218 HD
ENDBRANCH  15  18
ENDBRANCH   8   9
ENDBRANCH   7   8
BRANCH   2  20
HETATM   20  O   UNK N   1      32.432  16.937   9.082  0.00  0.00    -0.360 OA
HETATM   21  H   UNK N   1      31.980  16.814   9.894  0.00  0.00     0.217 HD
ENDBRANCH   2  20
BRANCH   1  22
HETATM   22  C   UNK N   1      34.139  17.384   6.792  0.00  0.00     0.296 C 
HETATM   23  O   UNK N   1      34.618  18.401   7.282  0.00  0.00    -0.259 OA
BRANCH  22  24
HETATM   24  O   UNK N   1      34.963  16.442   6.269  0.00  0.00    -0.322 OA
HETATM   25  C   UNK N   1      35.107  15.187   6.811  0.00  0.00     0.213 C 
ENDBRANCH  22  24
ENDBRANCH   1  22
TORSDOF 7
ENDMDL
MODEL 3
REMARK VINA RESULT:      -6.7      7.105     10.177
REMARK  7 active torsions:
REMARK  status: ('A' for Active; 'I' for Inactive)
REMARK    1  A    between atoms: C_2  and  O_3 
REMARK    2  A    between atoms: C_2  and  C_5 
REMARK    3  A    between atoms: C_6  and  O_7 
REMARK    4  A    between atoms: C_12  and  O_13 
REMARK    5  A    between atoms: O_13  and  C_14 
REMARK    6  A    between atoms: C_16  and  O_17 
REMARK    7  A    between atoms: C_18  and  O_19 
ROOT
HETATM    1  C   UNK N   1      35.446  12.777  15.390  0.00  0.00     0.078 A 
HETATM    2  C   UNK N   1      36.282  13.848  14.970  0.00  0.00     0.085 A 
HETATM    3  C   UNK N   1      36.409  14.162  13.611  0.00  0.00     0.074 A 
HETATM    4  C   UNK N   1      34.704  12.080  14.400  0.00  0.00    -0.040 A 
HETATM    5  C   UNK N   1      33.764  10.964  14.711  0.00  0.00     0.049 C 
HETATM    6  C   UNK N   1      34.852  12.413  13.064  0.00  0.00     0.045 A 
HETATM    7  C   UNK N   1      35.721  13.423  12.647  0.00  0.00     0.079 A 
ENDROOT
BRANCH   7   8
HETATM    8  O   UNK N   1      35.930  13.667  11.323  0.00  0.00    -0.308 OA
BRANCH   8   9
HETATM    9  C   UNK N   1      35.229  14.579  10.580  0.00  0.00     0.112 A 
HETATM   10  C   UNK N   1      34.034  14.221   9.928  0.00  0.00     0.047 A 
HETATM   11  C   UNK N   1      33.321  15.141   9.171  0.00  0.00    -0.057 A 
HETATM   12  C   UNK N   1      33.795  16.445   9.043  0.00  0.00     0.046 A 
HETATM   13  C   UNK N   1      32.056  14.729   8.509  0.00  0.00     0.048 C 
HETATM   14  C   UNK N   1      34.987  16.822   9.669  0.00  0.00     0.102 A 
HETATM   15  C   UNK N   1      35.711  15.891  10.436  0.00  0.00     0.133 A 
BRANCH  14  16
HETATM   16  O   UNK N   1      35.434  18.082   9.533  0.00  0.00    -0.358 OA
HETATM   17  H   UNK N   1      35.918  18.491  10.223  0.00  0.00     0.217 HD
ENDBRANCH  14  16
BRANCH  15  18
HETATM   18  O   UNK N   1      36.857  16.259  11.034  0.00  0.00    -0.356 OA
HETATM   19  H   UNK N   1      37.033  17.162  11.214  0.00  0.00     0.218 HD
ENDBRANCH  15  18
ENDBRANCH   8   9
ENDBRANCH   7   8
BRANCH   2  20
HETATM   20  O   UNK N   1      36.993  14.562  15.863  0.00  0.00    -0.360 OA
HETATM   21  H   UNK N   1      37.864  14.370  16.151  0.00  0.00     0.217 HD
ENDBRANCH   2  20
BRANCH   1  22
HETATM   22  C   UNK N   1      35.373  12.372  16.832  0.00  0.00     0.296 C 
HETATM   23  O   UNK N   1      34.876  13.129  17.659  0.00  0.00    -0.259 OA
BRANCH  22  24
HETATM   24  O   UNK N   1      35.921  11.201  17.241  0.00  0.00    -0.322 OA
HETATM   25  C   UNK N   1      35.373  10.423  18.233  0.00  0.00     0.213 C 
ENDBRANCH  22  24
ENDBRANCH   1  22
TORSDOF 7
ENDMDL
MODEL 4
REMARK VINA RESULT:      -6.6     10.763     14.293
REMARK  7 active torsions:
REMARK  status: ('A' for Active; 'I' for Inactive)
REMARK    1  A    between atoms: C_2  and  O_3 
REMARK    2  A    between atoms: C_2  and  C_5 
REMARK    3  A    between atoms: C_6  and  O_7 
REMARK    4  A    between atoms: C_12  and  O_13 
REMARK    5  A    between atoms: O_13  and  C_14 
REMARK    6  A    between atoms: C_16  and  O_17 
REMARK    7  A    between atoms: C_18  and  O_19 
ROOT
HETATM    1  C   UNK N   1      27.706  27.416  -5.039  0.00  0.00     0.078 A 
HETATM    2  C   UNK N   1      29.019  27.093  -4.598  0.00  0.00     0.085 A 
HETATM    3  C   UNK N   1      29.292  25.839  -4.034  0.00  0.00     0.074 A 
HETATM    4  C   UNK N   1      26.703  26.415  -4.946  0.00  0.00    -0.040 A 
HETATM    5  C   UNK N   1      25.299  26.613  -5.409  0.00  0.00     0.049 C 
HETATM    6  C   UNK N   1      27.005  25.186  -4.382  0.00  0.00     0.045 A 
HETATM    7  C   UNK N   1      28.278  24.892  -3.891  0.00  0.00     0.079 A 
ENDROOT
BRANCH   7   8
HETATM    8  O   UNK N   1      28.528  23.717  -3.248  0.00  0.00    -0.308 OA
BRANCH   8   9
HETATM    9  C   UNK N   1      29.532  22.847  -3.579  0.00  0.00     0.112 A 
HETATM   10  C   UNK N   1      29.582  22.242  -4.849  0.00  0.00     0.047 A 
HETATM   11  C   UNK N   1      30.597  21.357  -5.188  0.00  0.00    -0.057 A 
HETATM   12  C   UNK N   1      31.586  21.052  -4.256  0.00  0.00     0.046 A 
HETATM   13  C   UNK N   1      30.623  20.750  -6.543  0.00  0.00     0.048 C 
HETATM   14  C   UNK N   1      31.552  21.628  -2.982  0.00  0.00     0.102 A 
HETATM   15  C   UNK N   1      30.524  22.525  -2.637  0.00  0.00     0.133 A 
BRANCH  14  16
HETATM   16  O   UNK N   1      32.510  21.320  -2.092  0.00  0.00    -0.358 OA
HETATM   17  H   UNK N   1      33.371  21.680  -2.177  0.00  0.00     0.217 HD
ENDBRANCH  14  16
BRANCH  15  18
HETATM   18  O   UNK N   1      30.495  23.074  -1.411  0.00  0.00    -0.356 OA
HETATM   19  H   UNK N   1      31.290  23.318  -0.978  0.00  0.00     0.218 HD
ENDBRANCH  15  18
ENDBRANCH   8   9
ENDBRANCH   7   8
BRANCH   2  20
HETATM   20  O   UNK N   1      30.019  27.990  -4.681  0.00  0.00    -0.360 OA
HETATM   21  H   UNK N   1      29.925  28.899  -4.891  0.00  0.00     0.217 HD
ENDBRANCH   2  20
BRANCH   1  22
HETATM   22  C   UNK N   1      27.381  28.784  -5.559  0.00  0.00     0.296 C 
HETATM   23  O   UNK N   1      27.795  29.139  -6.658  0.00  0.00    -0.259 OA
BRANCH  22  24
HETATM   24  O   UNK N   1      26.691  29.661  -4.789  0.00  0.00    -0.322 OA
HETATM   25  C   UNK N   1      26.774  29.681  -3.417  0.00  0.00     0.213 C 
ENDBRANCH  22  24
ENDBRANCH   1  22
TORSDOF 7
ENDMDL
MODEL 5
REMARK VINA RESULT:      -6.5      2.049      7.012
REMARK  7 active torsions:
REMARK  status: ('A' for Active; 'I' for Inactive)
REMARK    1  A    between atoms: C_2  and  O_3 
REMARK    2  A    between atoms: C_2  and  C_5 
REMARK    3  A    between atoms: C_6  and  O_7 
REMARK    4  A    between atoms: C_12  and  O_13 
REMARK    5  A    between atoms: O_13  and  C_14 
REMARK    6  A    between atoms: C_16  and  O_17 
REMARK    7  A    between atoms: C_18  and  O_19 
ROOT
HETATM    1  C   UNK N   1      26.526  19.459   4.689  0.00  0.00     0.078 A 
HETATM    2  C   UNK N   1      26.688  18.059   4.501  0.00  0.00     0.085 A 
HETATM    3  C   UNK N   1      27.503  17.314   5.365  0.00  0.00     0.074 A 
HETATM    4  C   UNK N   1      27.162  20.063   5.806  0.00  0.00    -0.040 A 
HETATM    5  C   UNK N   1      27.039  21.512   6.136  0.00  0.00     0.049 C 
HETATM    6  C   UNK N   1      27.961  19.300   6.641  0.00  0.00     0.045 A 
HETATM    7  C   UNK N   1      28.171  17.938   6.420  0.00  0.00     0.079 A 
ENDROOT
BRANCH   7   8
HETATM    8  O   UNK N   1      29.042  17.228   7.191  0.00  0.00    -0.308 OA
BRANCH   8   9
HETATM    9  C   UNK N   1      30.405  17.304   7.096  0.00  0.00     0.112 A 
HETATM   10  C   UNK N   1      31.053  17.230   5.849  0.00  0.00     0.047 A 
HETATM   11  C   UNK N   1      32.437  17.305   5.748  0.00  0.00    -0.057 A 
HETATM   12  C   UNK N   1      33.206  17.447   6.901  0.00  0.00     0.046 A 
HETATM   13  C   UNK N   1      33.083  17.237   4.412  0.00  0.00     0.048 C 
HETATM   14  C   UNK N   1      32.588  17.509   8.154  0.00  0.00     0.102 A 
HETATM   15  C   UNK N   1      31.187  17.434   8.257  0.00  0.00     0.133 A 
BRANCH  14  16
HETATM   16  O   UNK N   1      33.343  17.642   9.256  0.00  0.00    -0.358 OA
HETATM   17  H   UNK N   1      34.190  18.039   9.207  0.00  0.00     0.217 HD
ENDBRANCH  14  16
BRANCH  15  18
HETATM   18  O   UNK N   1      30.598  17.492   9.464  0.00  0.00    -0.356 OA
HETATM   19  H   UNK N   1      30.618  16.753  10.041  0.00  0.00     0.218 HD
ENDBRANCH  15  18
ENDBRANCH   8   9
ENDBRANCH   7   8
BRANCH   2  20
HETATM   20  O   UNK N   1      26.093  17.424   3.475  0.00  0.00    -0.360 OA
HETATM   21  H   UNK N   1      25.942  17.780   2.621  0.00  0.00     0.217 HD
ENDBRANCH   2  20
BRANCH   1  22
HETATM   22  C   UNK N   1      25.732  20.282   3.719  0.00  0.00     0.296 C 
HETATM   23  O   UNK N   1      26.284  20.793   2.750  0.00  0.00    -0.259 OA
BRANCH  22  24
HETATM   24  O   UNK N   1      24.417  20.526   3.945  0.00  0.00    -0.322 OA
HETATM   25  C   UNK N   1      23.410  19.746   3.428  0.00  0.00     0.213 C 
ENDBRANCH  22  24
ENDBRANCH   1  22
TORSDOF 7
ENDMDL
MODEL 6
REMARK VINA RESULT:      -6.4     12.691     15.583
REMARK  7 active torsions:
REMARK  status: ('A' for Active; 'I' for Inactive)
REMARK    1  A    between atoms: C_2  and  O_3 
REMARK    2  A    between atoms: C_2  and  C_5 
REMARK    3  A    between atoms: C_6  and  O_7 
REMARK    4  A    between atoms: C_12  and  O_13 
REMARK    5  A    between atoms: O_13  and  C_14 
REMARK    6  A    between atoms: C_16  and  O_17 
REMARK    7  A    between atoms: C_18  and  O_19 
ROOT
HETATM    1  C   UNK N   1      35.534  12.314  16.273  0.00  0.00     0.078 A 
HETATM    2  C   UNK N   1      35.482  10.922  15.984  0.00  0.00     0.085 A 
HETATM    3  C   UNK N   1      35.321   9.986  17.014  0.00  0.00     0.074 A 
HETATM    4  C   UNK N   1      35.359  12.724  17.621  0.00  0.00    -0.040 A 
HETATM    5  C   UNK N   1      35.354  14.152  18.051  0.00  0.00     0.049 C 
HETATM    6  C   UNK N   1      35.204  11.775  18.617  0.00  0.00     0.045 A 
HETATM    7  C   UNK N   1      35.216  10.406  18.341  0.00  0.00     0.079 A 
ENDROOT
BRANCH   7   8
HETATM    8  O   UNK N   1      35.165   9.487  19.346  0.00  0.00    -0.308 OA
BRANCH   8   9
HETATM    9  C   UNK N   1      34.090   9.297  20.172  0.00  0.00     0.112 A 
HETATM   10  C   UNK N   1      32.917   8.672  19.708  0.00  0.00     0.047 A 
HETATM   11  C   UNK N   1      31.823   8.480  20.542  0.00  0.00    -0.057 A 
HETATM   12  C   UNK N   1      31.876   8.918  21.863  0.00  0.00     0.046 A 
HETATM   13  C   UNK N   1      30.608   7.803  20.019  0.00  0.00     0.048 C 
HETATM   14  C   UNK N   1      33.024   9.555  22.345  0.00  0.00     0.102 A 
HETATM   15  C   UNK N   1      34.133   9.750  21.501  0.00  0.00     0.133 A 
BRANCH  14  16
HETATM   16  O   UNK N   1      33.059   9.977  23.619  0.00  0.00    -0.358 OA
HETATM   17  H   UNK N   1      33.756  10.527  23.919  0.00  0.00     0.217 HD
ENDBRANCH  14  16
BRANCH  15  18
HETATM   18  O   UNK N   1      35.233  10.365  21.969  0.00  0.00    -0.356 OA
HETATM   19  H   UNK N   1      35.432  10.356  22.885  0.00  0.00     0.218 HD
ENDBRANCH  15  18
ENDBRANCH   8   9
ENDBRANCH   7   8
BRANCH   2  20
HETATM   20  O   UNK N   1      35.618  10.471  14.723  0.00  0.00    -0.360 OA
HETATM   21  H   UNK N   1      36.378  10.570  14.183  0.00  0.00     0.217 HD
ENDBRANCH   2  20
BRANCH   1  22
HETATM   22  C   UNK N   1      35.798  13.318  15.192  0.00  0.00     0.296 C 
HETATM   23  O   UNK N   1      36.791  14.035  15.247  0.00  0.00    -0.259 OA
BRANCH  22  24
HETATM   24  O   UNK N   1      34.903  13.491  14.187  0.00  0.00    -0.322 OA
HETATM   25  C   UNK N   1      35.259  13.503  12.859  0.00  0.00     0.213 C 
ENDBRANCH  22  24
ENDBRANCH   1  22
TORSDOF 7
ENDMDL
MODEL 7
REMARK VINA RESULT:      -6.3      3.780      8.405
REMARK  7 active torsions:
REMARK  status: ('A' for Active; 'I' for Inactive)
REMARK    1  A    between atoms: C_2  and  O_3 
REMARK    2  A    between atoms: C_2  and  C_5 
REMARK    3  A    between atoms: C_6  and  O_7 
REMARK    4  A    between atoms: C_12  and  O_13 
REMARK    5  A    between atoms: O_13  and  C_14 
REMARK    6  A    between atoms: C_16  and  O_17 
REMARK    7  A    between atoms: C_18  and  O_19 
ROOT
HETATM    1  C   UNK N   1      23.166  19.150   3.754  0.00  0.00     0.078 A 
HETATM    2  C   UNK N   1      23.884  20.300   3.325  0.00  0.00     0.085 A 
HETATM    3  C   UNK N   1      25.274  20.375   3.492  0.00  0.00     0.074 A 
HETATM    4  C   UNK N   1      23.903  18.065   4.297  0.00  0.00    -0.040 A 
HETATM    5  C   UNK N   1      23.275  16.789   4.747  0.00  0.00     0.049 C 
HETATM    6  C   UNK N   1      25.275  18.170   4.450  0.00  0.00     0.045 A 
HETATM    7  C   UNK N   1      25.972  19.324   4.088  0.00  0.00     0.079 A 
ENDROOT
BRANCH   7   8
HETATM    8  O   UNK N   1      27.305  19.447   4.341  0.00  0.00    -0.308 OA
BRANCH   8   9
HETATM    9  C   UNK N   1      27.964  18.820   5.364  0.00  0.00     0.112 A 
HETATM   10  C   UNK N   1      28.891  17.791   5.111  0.00  0.00     0.047 A 
HETATM   11  C   UNK N   1      29.559  17.150   6.145  0.00  0.00    -0.057 A 
HETATM   12  C   UNK N   1      29.308  17.521   7.464  0.00  0.00     0.046 A 
HETATM   13  C   UNK N   1      30.540  16.078   5.836  0.00  0.00     0.048 C 
HETATM   14  C   UNK N   1      28.381  18.530   7.744  0.00  0.00     0.102 A 
HETATM   15  C   UNK N   1      27.703  19.181   6.697  0.00  0.00     0.133 A 
BRANCH  14  16
HETATM   16  O   UNK N   1      28.145  18.875   9.021  0.00  0.00    -0.358 OA
HETATM   17  H   UNK N   1      27.958  19.765   9.247  0.00  0.00     0.217 HD
ENDBRANCH  14  16
BRANCH  15  18
HETATM   18  O   UNK N   1      26.812  20.149   6.972  0.00  0.00    -0.356 OA
HETATM   19  H   UNK N   1      27.076  21.048   6.997  0.00  0.00     0.218 HD
ENDBRANCH  15  18
ENDBRANCH   8   9
ENDBRANCH   7   8
BRANCH   2  20
HETATM   20  O   UNK N   1      23.246  21.353   2.781  0.00  0.00    -0.360 OA
HETATM   21  H   UNK N   1      23.263  22.233   3.104  0.00  0.00     0.217 HD
ENDBRANCH   2  20
BRANCH   1  22
HETATM   22  C   UNK N   1      21.670  19.096   3.665  0.00  0.00     0.296 C 
HETATM   23  O   UNK N   1      20.983  19.757   4.437  0.00  0.00    -0.259 OA
BRANCH  22  24
HETATM   24  O   UNK N   1      21.068  18.262   2.780  0.00  0.00    -0.322 OA
HETATM   25  C   UNK N   1      19.843  17.683   3.011  0.00  0.00     0.213 C 
ENDBRANCH  22  24
ENDBRANCH   1  22
TORSDOF 7
ENDMDL
MODEL 8
REMARK VINA RESULT:      -6.3     13.543     16.351
REMARK  7 active torsions:
REMARK  status: ('A' for Active; 'I' for Inactive)
REMARK    1  A    between atoms: C_2  and  O_3 
REMARK    2  A    between atoms: C_2  and  C_5 
REMARK    3  A    between atoms: C_6  and  O_7 
REMARK    4  A    between atoms: C_12  and  O_13 
REMARK    5  A    between atoms: O_13  and  C_14 
REMARK    6  A    between atoms: C_16  and  O_17 
REMARK    7  A    between atoms: C_18  and  O_19 
ROOT
HETATM    1  C   UNK N   1      35.272  12.326  17.310  0.00  0.00     0.078 A 
HETATM    2  C   UNK N   1      35.269  12.978  18.574  0.00  0.00     0.085 A 
HETATM    3  C   UNK N   1      35.322  12.233  19.760  0.00  0.00     0.074 A 
HETATM    4  C   UNK N   1      35.390  10.911  17.288  0.00  0.00    -0.040 A 
HETATM    5  C   UNK N   1      35.445  10.111  16.030  0.00  0.00     0.049 C 
HETATM    6  C   UNK N   1      35.439  10.203  18.477  0.00  0.00     0.045 A 
HETATM    7  C   UNK N   1      35.372  10.839  19.718  0.00  0.00     0.079 A 
ENDROOT
BRANCH   7   8
HETATM    8  O   UNK N   1      35.318  10.120  20.874  0.00  0.00    -0.308 OA
BRANCH   8   9
HETATM    9  C   UNK N   1      34.177   9.575  21.398  0.00  0.00     0.112 A 
HETATM   10  C   UNK N   1      33.140   9.115  20.564  0.00  0.00     0.047 A 
HETATM   11  C   UNK N   1      31.980   8.564  21.091  0.00  0.00    -0.057 A 
HETATM   12  C   UNK N   1      31.827   8.467  22.472  0.00  0.00     0.046 A 
HETATM   13  C   UNK N   1      30.914   8.078  20.177  0.00  0.00     0.048 C 
HETATM   14  C   UNK N   1      32.836   8.929  23.323  0.00  0.00     0.102 A 
HETATM   15  C   UNK N   1      34.013   9.487  22.791  0.00  0.00     0.133 A 
BRANCH  14  16
HETATM   16  O   UNK N   1      32.673   8.833  24.653  0.00  0.00    -0.358 OA
HETATM   17  H   UNK N   1      33.417   8.789  25.221  0.00  0.00     0.217 HD
ENDBRANCH  14  16
BRANCH  15  18
HETATM   18  O   UNK N   1      34.978   9.931  23.614  0.00  0.00    -0.356 OA
HETATM   19  H   UNK N   1      35.500  10.674  23.381  0.00  0.00     0.218 HD
ENDBRANCH  15  18
ENDBRANCH   8   9
ENDBRANCH   7   8
BRANCH   2  20
HETATM   20  O   UNK N   1      35.183  14.319  18.662  0.00  0.00    -0.360 OA
HETATM   21  H   UNK N   1      35.200  14.820  19.454  0.00  0.00     0.217 HD
ENDBRANCH   2  20
BRANCH   1  22
HETATM   22  C   UNK N   1      35.124  13.105  16.038  0.00  0.00     0.296 C 
HETATM   23  O   UNK N   1      34.095  13.012  15.376  0.00  0.00    -0.259 OA
BRANCH  22  24
HETATM   24  O   UNK N   1      36.152  13.859  15.575  0.00  0.00    -0.322 OA
HETATM   25  C   UNK N   1      36.414  14.027  14.235  0.00  0.00     0.213 C 
ENDBRANCH  22  24
ENDBRANCH   1  22
TORSDOF 7
ENDMDL
MODEL 9
REMARK VINA RESULT:      -6.3     10.636     13.840
REMARK  7 active torsions:
REMARK  status: ('A' for Active; 'I' for Inactive)
REMARK    1  A    between atoms: C_2  and  O_3 
REMARK    2  A    between atoms: C_2  and  C_5 
REMARK    3  A    between atoms: C_6  and  O_7 
REMARK    4  A    between atoms: C_12  and  O_13 
REMARK    5  A    between atoms: O_13  and  C_14 
REMARK    6  A    between atoms: C_16  and  O_17 
REMARK    7  A    between atoms: C_18  and  O_19 
ROOT
HETATM    1  C   UNK N   1      35.709  11.323  19.101  0.00  0.00     0.078 A 
HETATM    2  C   UNK N   1      35.219  12.657  19.153  0.00  0.00     0.085 A 
HETATM    3  C   UNK N   1      34.937  13.359  17.973  0.00  0.00     0.074 A 
HETATM    4  C   UNK N   1      35.845  10.709  17.827  0.00  0.00    -0.040 A 
HETATM    5  C   UNK N   1      36.310   9.305  17.637  0.00  0.00     0.049 C 
HETATM    6  C   UNK N   1      35.559  11.430  16.679  0.00  0.00     0.045 A 
HETATM    7  C   UNK N   1      35.139  12.761  16.729  0.00  0.00     0.079 A 
ENDROOT
BRANCH   7   8
HETATM    8  O   UNK N   1      34.962  13.484  15.587  0.00  0.00    -0.308 OA
BRANCH   8   9
HETATM    9  C   UNK N   1      35.272  13.040  14.330  0.00  0.00     0.112 A 
HETATM   10  C   UNK N   1      34.608  11.936  13.763  0.00  0.00     0.047 A 
HETATM   11  C   UNK N   1      34.921  11.480  12.489  0.00  0.00    -0.057 A 
HETATM   12  C   UNK N   1      35.916  12.119  11.753  0.00  0.00     0.046 A 
HETATM   13  C   UNK N   1      34.188  10.321  11.921  0.00  0.00     0.048 C 
HETATM   14  C   UNK N   1      36.602  13.209  12.298  0.00  0.00     0.102 A 
HETATM   15  C   UNK N   1      36.285  13.672  13.589  0.00  0.00     0.133 A 
BRANCH  14  16
HETATM   16  O   UNK N   1      37.562  13.812  11.579  0.00  0.00    -0.358 OA
HETATM   17  H   UNK N   1      38.461  13.571  11.689  0.00  0.00     0.217 HD
ENDBRANCH  14  16
BRANCH  15  18
HETATM   18  O   UNK N   1      36.948  14.719  14.109  0.00  0.00    -0.356 OA
HETATM   19  H   UNK N   1      37.828  14.906  13.844  0.00  0.00     0.218 HD
ENDBRANCH  15  18
ENDBRANCH   8   9
ENDBRANCH   7   8
BRANCH   2  20
HETATM   20  O   UNK N   1      35.047  13.286  20.330  0.00  0.00    -0.360 OA
HETATM   21  H   UNK N   1      35.728  13.549  20.918  0.00  0.00     0.217 HD
ENDBRANCH   2  20
BRANCH   1  22
HETATM   22  C   UNK N   1      36.101  10.594  20.350  0.00  0.00     0.296 C 
HETATM   23  O   UNK N   1      37.285  10.383  20.594  0.00  0.00    -0.259 OA
BRANCH  22  24
HETATM   24  O   UNK N   1      35.149  10.099  21.180  0.00  0.00    -0.322 OA
HETATM   25  C   UNK N   1      34.009   9.478  20.727  0.00  0.00     0.213 C 
ENDBRANCH  22  24
ENDBRANCH   1  22
TORSDOF 7
ENDMDL
