REMARK  7 active torsions:
REMARK  status: ('A' for Active; 'I' for Inactive)
REMARK    1  A    between atoms: C_2  and  O_3 
REMARK    2  A    between atoms: C_2  and  C_5 
REMARK    3  A    between atoms: C_6  and  O_7 
REMARK    4  A    between atoms: C_12  and  O_13 
REMARK    5  A    between atoms: O_13  and  C_14 
REMARK    6  A    between atoms: C_16  and  O_17 
REMARK    7  A    between atoms: C_18  and  O_19 
ROOT
HETATM    1  C   UNK N   1      -1.061   2.787   0.126  0.00  0.00     0.078 A 
HETATM    2  C   UNK N   1      -2.163   2.095  -0.448  0.00  0.00     0.085 A 
HETATM    3  C   UNK N   1      -2.189   0.694  -0.474  0.00  0.00     0.074 A 
HETATM    4  C   UNK N   1      -0.025   2.019   0.721  0.00  0.00    -0.040 A 
HETATM    5  C   UNK N   1       1.164   2.622   1.390  0.00  0.00     0.049 C 
HETATM    6  C   UNK N   1      -0.079   0.636   0.678  0.00  0.00     0.045 A 
HETATM    7  C   UNK N   1      -1.130  -0.043   0.058  0.00  0.00     0.079 A 
ENDROOT
BRANCH   7   8
HETATM    8  O   UNK N   1      -1.114  -1.400  -0.064  0.00  0.00    -0.308 OA
BRANCH   8   9
HETATM    9  C   UNK N   1       0.021  -2.165  -0.091  0.00  0.00     0.112 A 
HETATM   10  C   UNK N   1       1.286  -1.583  -0.298  0.00  0.00     0.047 A 
HETATM   11  C   UNK N   1       2.440  -2.355  -0.329  0.00  0.00    -0.057 A 
HETATM   12  C   UNK N   1       2.352  -3.735  -0.160  0.00  0.00     0.046 A 
HETATM   13  C   UNK N   1       3.758  -1.702  -0.536  0.00  0.00     0.048 C 
HETATM   14  C   UNK N   1       1.106  -4.340   0.033  0.00  0.00     0.102 A 
HETATM   15  C   UNK N   1      -0.064  -3.559   0.065  0.00  0.00     0.133 A 
BRANCH  14  16
HETATM   16  O   UNK N   1       1.036  -5.672   0.190  0.00  0.00    -0.358 OA
HETATM   17  H   UNK N   1       0.207  -6.095   0.300  0.00  0.00     0.217 HD
ENDBRANCH  14  16
BRANCH  15  18
HETATM   18  O   UNK N   1      -1.259  -4.146   0.249  0.00  0.00    -0.356 OA
HETATM   19  H   UNK N   1      -2.030  -3.629   0.378  0.00  0.00     0.218 HD
ENDBRANCH  15  18
ENDBRANCH   8   9
ENDBRANCH   7   8
BRANCH   2  20
HETATM   20  O   UNK N   1      -3.187   2.766  -1.007  0.00  0.00    -0.360 OA
HETATM   21  H   UNK N   1      -3.139   3.617  -1.397  0.00  0.00     0.217 HD
ENDBRANCH   2  20
BRANCH   1  22
HETATM   22  C   UNK N   1      -0.978   4.283   0.078  0.00  0.00     0.296 C 
HETATM   23  O   UNK N   1      -1.905   4.936  -0.390  0.00  0.00    -0.259 OA
BRANCH  22  24
HETATM   24  O   UNK N   1       0.150   4.918   0.483  0.00  0.00    -0.322 OA
HETATM   25  C   UNK N   1       0.346   6.270   0.328  0.00  0.00     0.213 C 
ENDBRANCH  22  24
ENDBRANCH   1  22
TORSDOF 7
