REMARK  18 active torsions:
REMARK  status: ('A' for Active; 'I' for Inactive)
REMARK    1  A    between atoms: C_4  and  C_5 
REMARK    2  A    between atoms: C_5  and  C_8 
REMARK    3  A    between atoms: C_7  and  C_8 
REMARK    4  A    between atoms: C_9  and  C_10 
REMARK    5  A    between atoms: C_10  and  C_11 
REMARK    6  A    between atoms: C_11  and  C_12 
REMARK    7  A    between atoms: C_14  and  C_15 
REMARK    8  A    between atoms: C_15  and  C_16 
REMARK    9  A    between atoms: C_16  and  N_17 
REMARK   10  A    between atoms: N_17  and  C_19 
REMARK   11  A    between atoms: C_19  and  C_20 
REMARK   12  A    between atoms: C_20  and  O_21 
REMARK   13  A    between atoms: P_22  and  O_21 
REMARK   14  A    between atoms: P_22  and  O_23 
REMARK   15  A    between atoms: P_22  and  O_24 
REMARK   16  A    between atoms: O_24  and  P_26 
REMARK   17  A    between atoms: P_26  and  O_27 
REMARK   18  A    between atoms: P_26  and  O_28 
ROOT
HETATM    1  C   UNK N   1       0.592  -4.702  -0.061  0.00  0.00     0.275 C 
ENDROOT
BRANCH   1   2
HETATM    2  C   UNK N   1      -0.203  -4.104  -1.214  0.00  0.00     0.057 C 
BRANCH   2   3
HETATM    3  C   UNK N   1      -1.350  -3.331  -0.643  0.00  0.00    -0.023 C 
HETATM    4  C   UNK N   1      -1.536  -2.028  -0.872  0.00  0.00    -0.087 C 
HETATM    5  C   UNK N   1      -0.614  -1.247  -1.759  0.00  0.00     0.043 C 
BRANCH   4   6
HETATM    6  C   UNK N   1      -2.698  -1.346  -0.233  0.00  0.00     0.037 C 
BRANCH   6   7
HETATM    7  C   UNK N   1      -2.221  -0.237   0.686  0.00  0.00     0.031 C 
BRANCH   7   8
HETATM    8  C   UNK N   1      -3.041   0.981   0.416  0.00  0.00    -0.024 C 
HETATM    9  C   UNK N   1      -2.518   2.098  -0.107  0.00  0.00    -0.087 C 
HETATM   10  C   UNK N   1      -1.069   2.188  -0.466  0.00  0.00     0.043 C 
BRANCH   9  11
HETATM   11  C   UNK N   1      -3.404   3.262  -0.399  0.00  0.00     0.037 C 
BRANCH  11  12
HETATM   12  C   UNK N   1      -3.997   3.839   0.877  0.00  0.00     0.031 C 
BRANCH  12  13
HETATM   13  C   UNK N   1      -4.833   5.041   0.559  0.00  0.00    -0.024 C 
HETATM   14  C   UNK N   1      -4.316   6.208   0.152  0.00  0.00    -0.091 C 
HETATM   15  C   UNK N   1      -5.232   7.343  -0.148  0.00  0.00     0.042 C 
HETATM   16  C   UNK N   1      -2.841   6.406  -0.006  0.00  0.00     0.042 C 
ENDBRANCH  12  13
ENDBRANCH  11  12
ENDBRANCH   9  11
ENDBRANCH   7   8
ENDBRANCH   6   7
ENDBRANCH   4   6
ENDBRANCH   2   3
ENDBRANCH   1   2
BRANCH   1  17
HETATM   17  N   UNK N   1       1.779  -3.914   0.257  0.00  0.00     0.086 N 
HETATM   18  C   UNK N   1       2.428  -4.607   1.356  0.00  0.00     0.310 C 
BRANCH  17  19
HETATM   19  C   UNK N   1       1.376  -2.607   0.762  0.00  0.00     0.298 C 
BRANCH  19  20
HETATM   20  C   UNK N   1       2.289  -1.523   0.212  0.00  0.00     0.211 C 
BRANCH  20  21
HETATM   21  O   UNK N   1       3.448  -1.447   0.990  0.00  0.00    -0.295 OA
BRANCH  21  22
HETATM   22  P   UNK N   1       4.778  -1.508  -0.132  0.00  0.00     0.401 P 
HETATM   23  O   UNK N   1       5.068  -0.219   0.687  0.00  0.00    -0.631 OA
BRANCH  22  24
HETATM   24  O   UNK N   1       4.804  -2.913   0.887  0.00  0.00    -0.307 OA
HETATM   25  H   UNK N   1       4.132  -3.318   1.457  0.00  0.00     0.222 HD
ENDBRANCH  22  24
BRANCH  22  26
HETATM   26  O   UNK N   1       6.374  -1.812   0.497  0.00  0.00    -0.195 OA
BRANCH  26  27
HETATM   27  P   UNK N   1       7.464  -1.576  -0.840  0.00  0.00     0.399 P 
HETATM   28  O   UNK N   1       8.028  -0.621   0.247  0.00  0.00    -0.631 OA
BRANCH  27  29
HETATM   29  O   UNK N   1       9.120  -2.075  -0.691  0.00  0.00    -0.307 OA
HETATM   30  H   UNK N   1       9.341  -3.016  -0.608  0.00  0.00     0.222 HD
ENDBRANCH  27  29
BRANCH  27  31
HETATM   31  O   UNK N   1       7.559  -3.226  -0.303  0.00  0.00    -0.307 OA
HETATM   32  H   UNK N   1       6.788  -3.732  -0.003  0.00  0.00     0.222 HD
ENDBRANCH  27  31
ENDBRANCH  26  27
ENDBRANCH  22  26
ENDBRANCH  21  22
ENDBRANCH  20  21
ENDBRANCH  19  20
ENDBRANCH  17  19
ENDBRANCH   1  17
TORSDOF 18
