MODEL 1
REMARK VINA RESULT:      -6.6      0.000      0.000
REMARK  5 active torsions:
REMARK  status: ('A' for Active; 'I' for Inactive)
REMARK    1  A    between atoms: C_1  and  N_15 
REMARK    2  A    between atoms: C_2  and  C_13 
REMARK    3  A    between atoms: C_7  and  N_17 
REMARK    4  A    between atoms: C_10  and  O_21 
REMARK    5  A    between atoms: C_13  and  O_20 
ROOT
HETATM    1  N   UNK N   1      29.054  24.451  -4.546  0.00  0.00    -0.299 N 
ATOM      2  HN  UNK N   1      29.680  25.254  -4.471  1.00  0.00     0.187 HD
HETATM    3  N   UNK N   1      27.825  24.654  -4.508  0.00  0.00    -0.300 N 
ATOM      4  HN  UNK N   1      27.172  23.874  -4.581  1.00  0.00     0.187 HD
ENDROOT
BRANCH   1   5
HETATM    5  C   UNK N   1      29.628  23.165  -4.688  0.00  0.00     0.065 A 
HETATM    6  C   UNK N   1      29.877  22.381  -3.536  0.00  0.00     0.065 A 
HETATM    7  C   UNK N   1      30.446  21.106  -3.688  0.00  0.00     0.021 A 
HETATM    8  C   UNK N   1      30.763  20.613  -4.954  0.00  0.00     0.001 A 
HETATM    9  C   UNK N   1      30.517  21.388  -6.088  0.00  0.00     0.002 A 
HETATM   10  C   UNK N   1      29.951  22.659  -5.959  0.00  0.00     0.032 A 
BRANCH   6  11
HETATM   11  C   UNK N   1      29.554  22.865  -2.163  0.00  0.00     0.178 C 
HETATM   12  O   UNK N   1      30.451  23.054  -1.357  0.00  0.00    -0.646 OA
BRANCH  11  13
HETATM   13  O   UNK N   1      28.281  23.101  -1.787  0.00  0.00    -0.773 OA
HETATM   14  H   UNK N   1      27.723  22.388  -1.549  0.00  0.00     0.167 HD
ENDBRANCH  11  13
ENDBRANCH   6  11
ENDBRANCH   1   5
BRANCH   3  15
HETATM   15  C   UNK N   1      27.342  25.980  -4.364  0.00  0.00     0.048 A 
HETATM   16  C   UNK N   1      27.803  26.995  -5.207  0.00  0.00     0.040 A 
HETATM   17  C   UNK N   1      27.322  28.303  -5.060  0.00  0.00    -0.027 A 
HETATM   18  C   UNK N   1      26.375  28.595  -4.063  0.00  0.00     0.071 A 
HETATM   19  C   UNK N   1      27.824  29.374  -5.966  0.00  0.00     0.051 C 
HETATM   20  C   UNK N   1      25.915  27.583  -3.223  0.00  0.00     0.039 A 
HETATM   21  C   UNK N   1      26.395  26.283  -3.371  0.00  0.00     0.034 A 
BRANCH  18  22
HETATM   22  O   UNK N   1      25.904  29.845  -3.909  0.00  0.00    -0.360 OA
HETATM   23  H   UNK N   1      26.491  30.574  -3.940  0.00  0.00     0.217 HD
ENDBRANCH  18  22
ENDBRANCH   3  15
TORSDOF 5
ENDMDL
MODEL 2
REMARK VINA RESULT:      -6.4     10.186     12.284
REMARK  5 active torsions:
REMARK  status: ('A' for Active; 'I' for Inactive)
REMARK    1  A    between atoms: C_1  and  N_15 
REMARK    2  A    between atoms: C_2  and  C_13 
REMARK    3  A    between atoms: C_7  and  N_17 
REMARK    4  A    between atoms: C_10  and  O_21 
REMARK    5  A    between atoms: C_13  and  O_20 
ROOT
HETATM    1  N   UNK N   1      28.192  18.008   5.825  0.00  0.00    -0.299 N 
ATOM      2  HN  UNK N   1      27.392  17.378   5.757  1.00  0.00     0.187 HD
HETATM    3  N   UNK N   1      28.118  19.120   5.268  0.00  0.00    -0.300 N 
ATOM      4  HN  UNK N   1      28.900  19.773   5.317  1.00  0.00     0.187 HD
ENDROOT
BRANCH   1   5
HETATM    5  C   UNK N   1      29.330  17.572   6.547  0.00  0.00     0.065 A 
HETATM    6  C   UNK N   1      29.296  17.563   7.962  0.00  0.00     0.065 A 
HETATM    7  C   UNK N   1      30.429  17.130   8.669  0.00  0.00     0.021 A 
HETATM    8  C   UNK N   1      31.575  16.712   7.992  0.00  0.00     0.001 A 
HETATM    9  C   UNK N   1      31.606  16.722   6.597  0.00  0.00     0.002 A 
HETATM   10  C   UNK N   1      30.489  17.150   5.875  0.00  0.00     0.032 A 
BRANCH   6  11
HETATM   11  C   UNK N   1      28.094  18.000   8.729  0.00  0.00     0.178 C 
HETATM   12  O   UNK N   1      27.652  17.296   9.623  0.00  0.00    -0.646 OA
BRANCH  11  13
HETATM   13  O   UNK N   1      27.478  19.168   8.456  0.00  0.00    -0.773 OA
HETATM   14  H   UNK N   1      27.101  19.672   9.149  0.00  0.00     0.167 HD
ENDBRANCH  11  13
ENDBRANCH   6  11
ENDBRANCH   1   5
BRANCH   3  15
HETATM   15  C   UNK N   1      26.937  19.470   4.566  0.00  0.00     0.048 A 
HETATM   16  C   UNK N   1      25.717  18.870   4.893  0.00  0.00     0.040 A 
HETATM   17  C   UNK N   1      24.552  19.219   4.196  0.00  0.00    -0.027 A 
HETATM   18  C   UNK N   1      24.610  20.174   3.166  0.00  0.00     0.071 A 
HETATM   19  C   UNK N   1      23.260  18.571   4.557  0.00  0.00     0.051 C 
HETATM   20  C   UNK N   1      25.827  20.772   2.840  0.00  0.00     0.039 A 
HETATM   21  C   UNK N   1      26.983  20.423   3.534  0.00  0.00     0.034 A 
BRANCH  18  22
HETATM   22  O   UNK N   1      23.502  20.521   2.487  0.00  0.00    -0.360 OA
HETATM   23  H   UNK N   1      23.100  19.908   1.904  0.00  0.00     0.217 HD
ENDBRANCH  18  22
ENDBRANCH   3  15
TORSDOF 5
ENDMDL
MODEL 3
REMARK VINA RESULT:      -6.3     12.333     15.098
REMARK  5 active torsions:
REMARK  status: ('A' for Active; 'I' for Inactive)
REMARK    1  A    between atoms: C_1  and  N_15 
REMARK    2  A    between atoms: C_2  and  C_13 
REMARK    3  A    between atoms: C_7  and  N_17 
REMARK    4  A    between atoms: C_10  and  O_21 
REMARK    5  A    between atoms: C_13  and  O_20 
ROOT
HETATM    1  N   UNK N   1      32.897  16.227   7.783  0.00  0.00    -0.299 N 
ATOM      2  HN  UNK N   1      33.268  15.830   6.919  1.00  0.00     0.187 HD
HETATM    3  N   UNK N   1      31.783  16.782   7.748  0.00  0.00    -0.300 N 
ATOM      4  HN  UNK N   1      31.383  17.189   8.593  1.00  0.00     0.187 HD
ENDROOT
BRANCH   1   5
HETATM    5  C   UNK N   1      33.676  16.117   8.961  0.00  0.00     0.065 A 
HETATM    6  C   UNK N   1      34.649  17.104   9.248  0.00  0.00     0.065 A 
HETATM    7  C   UNK N   1      35.416  16.987  10.418  0.00  0.00     0.021 A 
HETATM    8  C   UNK N   1      35.227  15.913  11.290  0.00  0.00     0.001 A 
HETATM    9  C   UNK N   1      34.267  14.942  11.004  0.00  0.00     0.002 A 
HETATM   10  C   UNK N   1      33.493  15.040   9.845  0.00  0.00     0.032 A 
BRANCH   6  11
HETATM   11  C   UNK N   1      34.887  18.268   8.346  0.00  0.00     0.178 C 
HETATM   12  O   UNK N   1      35.422  19.276   8.781  0.00  0.00    -0.646 OA
BRANCH  11  13
HETATM   13  O   UNK N   1      34.523  18.233   7.049  0.00  0.00    -0.773 OA
HETATM   14  H   UNK N   1      34.000  17.525   6.728  0.00  0.00     0.167 HD
ENDBRANCH  11  13
ENDBRANCH   6  11
ENDBRANCH   1   5
BRANCH   3  15
HETATM   15  C   UNK N   1      31.074  16.844   6.521  0.00  0.00     0.048 A 
HETATM   16  C   UNK N   1      31.766  16.855   5.305  0.00  0.00     0.040 A 
HETATM   17  C   UNK N   1      31.061  16.916   4.096  0.00  0.00    -0.027 A 
HETATM   18  C   UNK N   1      29.656  16.967   4.103  0.00  0.00     0.071 A 
HETATM   19  C   UNK N   1      31.813  16.927   2.810  0.00  0.00     0.051 C 
HETATM   20  C   UNK N   1      28.967  16.956   5.315  0.00  0.00     0.039 A 
HETATM   21  C   UNK N   1      29.670  16.895   6.517  0.00  0.00     0.034 A 
BRANCH  18  22
HETATM   22  O   UNK N   1      28.965  17.026   2.951  0.00  0.00    -0.360 OA
HETATM   23  H   UNK N   1      28.182  16.524   2.850  0.00  0.00     0.217 HD
ENDBRANCH  18  22
ENDBRANCH   3  15
TORSDOF 5
ENDMDL
MODEL 4
REMARK VINA RESULT:      -6.3      2.624      7.021
REMARK  5 active torsions:
REMARK  status: ('A' for Active; 'I' for Inactive)
REMARK    1  A    between atoms: C_1  and  N_15 
REMARK    2  A    between atoms: C_2  and  C_13 
REMARK    3  A    between atoms: C_7  and  N_17 
REMARK    4  A    between atoms: C_10  and  O_21 
REMARK    5  A    between atoms: C_13  and  O_20 
ROOT
HETATM    1  N   UNK N   1      27.563  24.270  -4.507  0.00  0.00    -0.299 N 
ATOM      2  HN  UNK N   1      27.128  23.382  -4.254  1.00  0.00     0.187 HD
HETATM    3  N   UNK N   1      28.795  24.293  -4.691  0.00  0.00    -0.300 N 
ATOM      4  HN  UNK N   1      29.261  25.164  -4.944  1.00  0.00     0.187 HD
ENDROOT
BRANCH   1   5
HETATM    5  C   UNK N   1      26.735  25.412  -4.630  0.00  0.00     0.065 A 
HETATM    6  C   UNK N   1      26.055  25.652  -5.848  0.00  0.00     0.065 A 
HETATM    7  C   UNK N   1      25.236  26.787  -5.960  0.00  0.00     0.021 A 
HETATM    8  C   UNK N   1      25.091  27.670  -4.889  0.00  0.00     0.001 A 
HETATM    9  C   UNK N   1      25.763  27.431  -3.690  0.00  0.00     0.002 A 
HETATM   10  C   UNK N   1      26.582  26.307  -3.558  0.00  0.00     0.032 A 
BRANCH   6  11
HETATM   11  C   UNK N   1      26.179  24.737  -7.019  0.00  0.00     0.178 C 
HETATM   12  O   UNK N   1      25.176  24.282  -7.546  0.00  0.00    -0.646 OA
BRANCH  11  13
HETATM   13  O   UNK N   1      27.385  24.398  -7.515  0.00  0.00    -0.773 OA
HETATM   14  H   UNK N   1      27.974  23.881  -7.003  0.00  0.00     0.167 HD
ENDBRANCH  11  13
ENDBRANCH   6  11
ENDBRANCH   1   5
BRANCH   3  15
HETATM   15  C   UNK N   1      29.544  23.098  -4.545  0.00  0.00     0.048 A 
HETATM   16  C   UNK N   1      29.651  22.197  -5.609  0.00  0.00     0.040 A 
HETATM   17  C   UNK N   1      30.392  21.017  -5.460  0.00  0.00    -0.027 A 
HETATM   18  C   UNK N   1      31.029  20.738  -4.238  0.00  0.00     0.071 A 
HETATM   19  C   UNK N   1      30.497  20.068  -6.604  0.00  0.00     0.051 C 
HETATM   20  C   UNK N   1      30.922  21.636  -3.177  0.00  0.00     0.039 A 
HETATM   21  C   UNK N   1      30.185  22.808  -3.328  0.00  0.00     0.034 A 
BRANCH  18  22
HETATM   22  O   UNK N   1      31.744  19.610  -4.079  0.00  0.00    -0.360 OA
HETATM   23  H   UNK N   1      31.584  19.055  -3.341  0.00  0.00     0.217 HD
ENDBRANCH  18  22
ENDBRANCH   3  15
TORSDOF 5
ENDMDL
MODEL 5
REMARK VINA RESULT:      -6.3     13.237     14.911
REMARK  5 active torsions:
REMARK  status: ('A' for Active; 'I' for Inactive)
REMARK    1  A    between atoms: C_1  and  N_15 
REMARK    2  A    between atoms: C_2  and  C_13 
REMARK    3  A    between atoms: C_7  and  N_17 
REMARK    4  A    between atoms: C_10  and  O_21 
REMARK    5  A    between atoms: C_13  and  O_20 
ROOT
HETATM    1  N   UNK N   1      21.755  16.423   6.390  0.00  0.00    -0.299 N 
ATOM      2  HN  UNK N   1      20.929  16.500   5.795  1.00  0.00     0.187 HD
HETATM    3  N   UNK N   1      22.709  17.198   6.180  0.00  0.00    -0.300 N 
ATOM      4  HN  UNK N   1      23.549  17.148   6.757  1.00  0.00     0.187 HD
ENDROOT
BRANCH   1   5
HETATM    5  C   UNK N   1      21.759  15.441   7.410  0.00  0.00     0.065 A 
HETATM    6  C   UNK N   1      20.831  15.538   8.474  0.00  0.00     0.065 A 
HETATM    7  C   UNK N   1      20.842  14.559   9.481  0.00  0.00     0.021 A 
HETATM    8  C   UNK N   1      21.754  13.503   9.438  0.00  0.00     0.001 A 
HETATM    9  C   UNK N   1      22.668  13.411   8.388  0.00  0.00     0.002 A 
HETATM   10  C   UNK N   1      22.673  14.374   7.377  0.00  0.00     0.032 A 
BRANCH   6  11
HETATM   11  C   UNK N   1      19.838  16.647   8.562  0.00  0.00     0.178 C 
HETATM   12  O   UNK N   1      20.199  17.803   8.404  0.00  0.00    -0.646 OA
BRANCH  11  13
HETATM   13  O   UNK N   1      18.537  16.401   8.814  0.00  0.00    -0.773 OA
HETATM   14  H   UNK N   1      18.182  15.548   8.656  0.00  0.00     0.167 HD
ENDBRANCH  11  13
ENDBRANCH   6  11
ENDBRANCH   1   5
BRANCH   3  15
HETATM   15  C   UNK N   1      22.615  18.151   5.134  0.00  0.00     0.048 A 
HETATM   16  C   UNK N   1      23.773  18.691   4.566  0.00  0.00     0.040 A 
HETATM   17  C   UNK N   1      23.675  19.633   3.532  0.00  0.00    -0.027 A 
HETATM   18  C   UNK N   1      22.412  20.034   3.065  0.00  0.00     0.071 A 
HETATM   19  C   UNK N   1      24.918  20.199   2.938  0.00  0.00     0.051 C 
HETATM   20  C   UNK N   1      21.258  19.495   3.632  0.00  0.00     0.039 A 
HETATM   21  C   UNK N   1      21.357  18.560   4.660  0.00  0.00     0.034 A 
BRANCH  18  22
HETATM   22  O   UNK N   1      22.301  20.936   2.074  0.00  0.00    -0.360 OA
HETATM   23  H   UNK N   1      22.142  20.650   1.197  0.00  0.00     0.217 HD
ENDBRANCH  18  22
ENDBRANCH   3  15
TORSDOF 5
ENDMDL
MODEL 6
REMARK VINA RESULT:      -6.2     21.320     24.330
REMARK  5 active torsions:
REMARK  status: ('A' for Active; 'I' for Inactive)
REMARK    1  A    between atoms: C_1  and  N_15 
REMARK    2  A    between atoms: C_2  and  C_13 
REMARK    3  A    between atoms: C_7  and  N_17 
REMARK    4  A    between atoms: C_10  and  O_21 
REMARK    5  A    between atoms: C_13  and  O_20 
ROOT
HETATM    1  N   UNK N   1      34.878  12.413  14.334  0.00  0.00    -0.299 N 
ATOM      2  HN  UNK N   1      34.113  12.988  14.689  1.00  0.00     0.187 HD
HETATM    3  N   UNK N   1      35.692  11.942  15.152  0.00  0.00    -0.300 N 
ATOM      4  HN  UNK N   1      36.467  11.362  14.831  1.00  0.00     0.187 HD
ENDROOT
BRANCH   1   5
HETATM    5  C   UNK N   1      34.958  12.190  12.938  0.00  0.00     0.065 A 
HETATM    6  C   UNK N   1      35.524  13.184  12.105  0.00  0.00     0.065 A 
HETATM    7  C   UNK N   1      35.600  12.954  10.722  0.00  0.00     0.021 A 
HETATM    8  C   UNK N   1      35.125  11.763  10.171  0.00  0.00     0.001 A 
HETATM    9  C   UNK N   1      34.567  10.785  10.995  0.00  0.00     0.002 A 
HETATM   10  C   UNK N   1      34.483  10.994  12.373  0.00  0.00     0.032 A 
BRANCH   6  11
HETATM   11  C   UNK N   1      36.045  14.472  12.648  0.00  0.00     0.178 C 
HETATM   12  O   UNK N   1      35.786  15.521  12.081  0.00  0.00    -0.646 OA
BRANCH  11  13
HETATM   13  O   UNK N   1      36.803  14.503  13.763  0.00  0.00    -0.773 OA
HETATM   14  H   UNK N   1      36.401  14.625  14.600  0.00  0.00     0.167 HD
ENDBRANCH  11  13
ENDBRANCH   6  11
ENDBRANCH   1   5
BRANCH   3  15
HETATM   15  C   UNK N   1      35.531  12.219  16.534  0.00  0.00     0.048 A 
HETATM   16  C   UNK N   1      35.569  11.181  17.471  0.00  0.00     0.040 A 
HETATM   17  C   UNK N   1      35.409  11.460  18.835  0.00  0.00    -0.027 A 
HETATM   18  C   UNK N   1      35.210  12.784  19.262  0.00  0.00     0.071 A 
HETATM   19  C   UNK N   1      35.453  10.344  19.820  0.00  0.00     0.051 C 
HETATM   20  C   UNK N   1      35.172  13.818  18.328  0.00  0.00     0.039 A 
HETATM   21  C   UNK N   1      35.331  13.539  16.972  0.00  0.00     0.034 A 
BRANCH  18  22
HETATM   22  O   UNK N   1      35.055  13.069  20.567  0.00  0.00    -0.360 OA
HETATM   23  H   UNK N   1      34.651  12.445  21.137  0.00  0.00     0.217 HD
ENDBRANCH  18  22
ENDBRANCH   3  15
TORSDOF 5
ENDMDL
MODEL 7
REMARK VINA RESULT:      -6.2     11.828     14.361
REMARK  5 active torsions:
REMARK  status: ('A' for Active; 'I' for Inactive)
REMARK    1  A    between atoms: C_1  and  N_15 
REMARK    2  A    between atoms: C_2  and  C_13 
REMARK    3  A    between atoms: C_7  and  N_17 
REMARK    4  A    between atoms: C_10  and  O_21 
REMARK    5  A    between atoms: C_13  and  O_20 
ROOT
HETATM    1  N   UNK N   1      23.659  18.296   5.450  0.00  0.00    -0.299 N 
ATOM      2  HN  UNK N   1      23.009  18.811   6.044  1.00  0.00     0.187 HD
HETATM    3  N   UNK N   1      23.600  17.051   5.449  0.00  0.00    -0.300 N 
ATOM      4  HN  UNK N   1      24.236  16.506   4.867  1.00  0.00     0.187 HD
ENDROOT
BRANCH   1   5
HETATM    5  C   UNK N   1      24.582  19.033   4.669  0.00  0.00     0.065 A 
HETATM    6  C   UNK N   1      24.114  19.801   3.577  0.00  0.00     0.065 A 
HETATM    7  C   UNK N   1      25.037  20.529   2.808  0.00  0.00     0.021 A 
HETATM    8  C   UNK N   1      26.399  20.498   3.113  0.00  0.00     0.001 A 
HETATM    9  C   UNK N   1      26.858  19.739   4.190  0.00  0.00     0.002 A 
HETATM   10  C   UNK N   1      25.956  19.009   4.967  0.00  0.00     0.032 A 
BRANCH   6  11
HETATM   11  C   UNK N   1      22.669  19.865   3.213  0.00  0.00     0.178 C 
HETATM   12  O   UNK N   1      21.978  18.861   3.282  0.00  0.00    -0.646 OA
BRANCH  11  13
HETATM   13  O   UNK N   1      22.102  21.019   2.807  0.00  0.00    -0.773 OA
HETATM   14  H   UNK N   1      21.477  21.013   2.110  0.00  0.00     0.167 HD
ENDBRANCH  11  13
ENDBRANCH   6  11
ENDBRANCH   1   5
BRANCH   3  15
HETATM   15  C   UNK N   1      22.642  16.398   6.265  0.00  0.00     0.048 A 
HETATM   16  C   UNK N   1      22.888  15.111   6.752  0.00  0.00     0.040 A 
HETATM   17  C   UNK N   1      21.938  14.470   7.559  0.00  0.00    -0.027 A 
HETATM   18  C   UNK N   1      20.734  15.122   7.878  0.00  0.00     0.071 A 
HETATM   19  C   UNK N   1      22.216  13.099   8.070  0.00  0.00     0.051 C 
HETATM   20  C   UNK N   1      20.489  16.406   7.392  0.00  0.00     0.039 A 
HETATM   21  C   UNK N   1      21.435  17.041   6.591  0.00  0.00     0.034 A 
BRANCH  18  22
HETATM   22  O   UNK N   1      19.812  14.521   8.650  0.00  0.00    -0.360 OA
HETATM   23  H   UNK N   1      19.163  13.970   8.261  0.00  0.00     0.217 HD
ENDBRANCH  18  22
ENDBRANCH   3  15
TORSDOF 5
ENDMDL
MODEL 8
REMARK VINA RESULT:      -6.2     16.126     19.561
REMARK  5 active torsions:
REMARK  status: ('A' for Active; 'I' for Inactive)
REMARK    1  A    between atoms: C_1  and  N_15 
REMARK    2  A    between atoms: C_2  and  C_13 
REMARK    3  A    between atoms: C_7  and  N_17 
REMARK    4  A    between atoms: C_10  and  O_21 
REMARK    5  A    between atoms: C_13  and  O_20 
ROOT
HETATM    1  N   UNK N   1      34.323  15.093   9.539  0.00  0.00    -0.299 N 
ATOM      2  HN  UNK N   1      35.256  14.916   9.163  1.00  0.00     0.187 HD
HETATM    3  N   UNK N   1      34.058  14.674  10.682  0.00  0.00    -0.300 N 
ATOM      4  HN  UNK N   1      33.136  14.834  11.088  1.00  0.00     0.187 HD
ENDROOT
BRANCH   1   5
HETATM    5  C   UNK N   1      33.399  15.802   8.735  0.00  0.00     0.065 A 
HETATM    6  C   UNK N   1      33.614  17.176   8.470  0.00  0.00     0.065 A 
HETATM    7  C   UNK N   1      32.691  17.870   7.671  0.00  0.00     0.021 A 
HETATM    8  C   UNK N   1      31.574  17.220   7.144  0.00  0.00     0.001 A 
HETATM    9  C   UNK N   1      31.365  15.866   7.407  0.00  0.00     0.002 A 
HETATM   10  C   UNK N   1      32.271  15.158   8.198  0.00  0.00     0.032 A 
BRANCH   6  11
HETATM   11  C   UNK N   1      34.792  17.913   9.012  0.00  0.00     0.178 C 
HETATM   12  O   UNK N   1      35.196  18.916   8.446  0.00  0.00    -0.646 OA
BRANCH  11  13
HETATM   13  O   UNK N   1      35.427  17.492  10.124  0.00  0.00    -0.773 OA
HETATM   14  H   UNK N   1      35.579  16.578  10.259  0.00  0.00     0.167 HD
ENDBRANCH  11  13
ENDBRANCH   6  11
ENDBRANCH   1   5
BRANCH   3  15
HETATM   15  C   UNK N   1      35.050  13.973  11.415  0.00  0.00     0.048 A 
HETATM   16  C   UNK N   1      35.397  14.384  12.705  0.00  0.00     0.040 A 
HETATM   17  C   UNK N   1      36.378  13.688  13.425  0.00  0.00    -0.027 A 
HETATM   18  C   UNK N   1      37.012  12.574  12.849  0.00  0.00     0.071 A 
HETATM   19  C   UNK N   1      36.737  14.139  14.798  0.00  0.00     0.051 C 
HETATM   20  C   UNK N   1      36.665  12.164  11.563  0.00  0.00     0.039 A 
HETATM   21  C   UNK N   1      35.690  12.857  10.849  0.00  0.00     0.034 A 
BRANCH  18  22
HETATM   22  O   UNK N   1      37.955  11.895  13.526  0.00  0.00    -0.360 OA
HETATM   23  H   UNK N   1      38.449  12.323  14.196  0.00  0.00     0.217 HD
ENDBRANCH  18  22
ENDBRANCH   3  15
TORSDOF 5
ENDMDL
MODEL 9
REMARK VINA RESULT:      -5.9     21.016     23.835
REMARK  5 active torsions:
REMARK  status: ('A' for Active; 'I' for Inactive)
REMARK    1  A    between atoms: C_1  and  N_15 
REMARK    2  A    between atoms: C_2  and  C_13 
REMARK    3  A    between atoms: C_7  and  N_17 
REMARK    4  A    between atoms: C_10  and  O_21 
REMARK    5  A    between atoms: C_13  and  O_20 
ROOT
HETATM    1  N   UNK N   1      35.551  12.931  15.203  0.00  0.00    -0.299 N 
ATOM      2  HN  UNK N   1      34.727  12.758  14.625  1.00  0.00     0.187 HD
HETATM    3  N   UNK N   1      36.562  13.416  14.661  0.00  0.00    -0.300 N 
ATOM      4  HN  UNK N   1      37.401  13.602  15.210  1.00  0.00     0.187 HD
ENDROOT
BRANCH   1   5
HETATM    5  C   UNK N   1      35.484  12.608  16.580  0.00  0.00     0.065 A 
HETATM    6  C   UNK N   1      35.719  11.276  16.996  0.00  0.00     0.065 A 
HETATM    7  C   UNK N   1      35.651  10.965  18.364  0.00  0.00     0.021 A 
HETATM    8  C   UNK N   1      35.356  11.952  19.305  0.00  0.00     0.001 A 
HETATM    9  C   UNK N   1      35.125  13.265  18.892  0.00  0.00     0.002 A 
HETATM   10  C   UNK N   1      35.188  13.594  17.537  0.00  0.00     0.032 A 
BRANCH   6  11
HETATM   11  C   UNK N   1      36.037  10.187  16.027  0.00  0.00     0.178 C 
HETATM   12  O   UNK N   1      36.900  10.357  15.181  0.00  0.00    -0.646 OA
BRANCH  11  13
HETATM   13  O   UNK N   1      35.386   9.007  16.065  0.00  0.00    -0.773 OA
HETATM   14  H   UNK N   1      35.259   8.517  15.278  0.00  0.00     0.167 HD
ENDBRANCH  11  13
ENDBRANCH   6  11
ENDBRANCH   1   5
BRANCH   3  15
HETATM   15  C   UNK N   1      36.536  13.709  13.273  0.00  0.00     0.048 A 
HETATM   16  C   UNK N   1      35.987  14.910  12.815  0.00  0.00     0.040 A 
HETATM   17  C   UNK N   1      35.964  15.194  11.443  0.00  0.00    -0.027 A 
HETATM   18  C   UNK N   1      36.493  14.270  10.526  0.00  0.00     0.071 A 
HETATM   19  C   UNK N   1      35.375  16.479  10.971  0.00  0.00     0.051 C 
HETATM   20  C   UNK N   1      37.040  13.073  10.983  0.00  0.00     0.039 A 
HETATM   21  C   UNK N   1      37.063  12.792  12.347  0.00  0.00     0.034 A 
BRANCH  18  22
HETATM   22  O   UNK N   1      36.478  14.528   9.206  0.00  0.00    -0.360 OA
HETATM   23  H   UNK N   1      35.817  14.148   8.663  0.00  0.00     0.217 HD
ENDBRANCH  18  22
ENDBRANCH   3  15
TORSDOF 5
ENDMDL
