MODEL 1
REMARK VINA RESULT:      -6.3      0.000      0.000
REMARK  4 active torsions:
REMARK  status: ('A' for Active; 'I' for Inactive)
REMARK    1  A    between atoms: C_3  and  O_20 
REMARK    2  A    between atoms: C_4  and  C_13 
REMARK       I    between atoms: N_5  and  C_6 
REMARK    3  A    between atoms: O_20  and  C_21 
REMARK    4  A    between atoms: C_21  and  C_22 
ROOT
HETATM    1  C   UNK N   1      28.255  16.890   5.202  0.00  0.00     0.055 A 
HETATM    2  C   UNK N   1      28.330  17.028   3.803  0.00  0.00     0.092 A 
HETATM    3  C   UNK N   1      29.425  16.935   5.981  0.00  0.00     0.085 A 
HETATM    4  C   UNK N   1      32.004  17.169   5.700  0.00  0.00     0.023 A 
HETATM    5  C   UNK N   1      32.729  17.362   4.521  0.00  0.00     0.104 A 
HETATM    6  N   UNK N   1      31.900  17.400   3.458  0.00  0.00    -0.351 N 
HETATM    7  C   UNK N   1      30.661  17.236   3.945  0.00  0.00     0.119 A 
HETATM    8  N   UNK N   1      29.537  17.207   3.194  0.00  0.00    -0.351 N 
ATOM      9  HN  UNK N   1      29.590  17.317   2.182  1.00  0.00     0.166 HD
HETATM   10  C   UNK N   1      30.660  17.100   5.314  0.00  0.00     0.055 A 
HETATM   11  H   UNK N   1      32.153  17.523   2.515  0.00  0.00     0.166 HD
ENDROOT
BRANCH   4  12
HETATM   12  C   UNK N   1      32.680  17.056   7.022  0.00  0.00     0.063 A 
HETATM   13  C   UNK N   1      33.754  17.909   7.306  0.00  0.00     0.048 A 
HETATM   14  C   UNK N   1      34.395  17.809   8.536  0.00  0.00     0.108 A 
HETATM   15  N   UNK N   1      33.980  16.887   9.439  0.00  0.00    -0.202 N 
HETATM   16  C   UNK N   1      32.944  16.055   9.156  0.00  0.00     0.676 A 
ATOM     17  HN  UNK N   1      34.448  16.819  10.343  1.00  0.00     0.183 HD
HETATM   18  N   UNK N   1      32.535  15.102  10.109  0.00  0.00    -0.234 N 
HETATM   19  N   UNK N   1      32.305  16.139   7.954  0.00  0.00    -0.191 N 
HETATM   20  H   UNK N   1      31.798  14.479   9.913  0.00  0.00     0.174 HD
HETATM   21  H   UNK N   1      32.991  15.058  10.981  0.00  0.00     0.174 HD
ATOM     22  HN  UNK N   1      31.533  15.505   7.751  1.00  0.00     0.184 HD
ENDBRANCH   4  12
BRANCH   3  23
HETATM   23  O   UNK N   1      29.321  16.839   7.319  0.00  0.00    -0.350 OA
BRANCH  23  24
HETATM   24  C   UNK N   1      28.213  17.333   7.966  0.00  0.00     0.175 C 
BRANCH  24  25
HETATM   25  C   UNK N   1      28.555  18.638   8.659  0.00  0.00     0.022 C 
HETATM   26  C   UNK N   1      29.934  18.558   9.281  0.00  0.00     0.007 C 
ENDBRANCH  24  25
ENDBRANCH  23  24
ENDBRANCH   3  23
TORSDOF 4
ENDMDL
MODEL 2
REMARK VINA RESULT:      -6.3      2.020      3.604
REMARK  4 active torsions:
REMARK  status: ('A' for Active; 'I' for Inactive)
REMARK    1  A    between atoms: C_3  and  O_20 
REMARK    2  A    between atoms: C_4  and  C_13 
REMARK       I    between atoms: N_5  and  C_6 
REMARK    3  A    between atoms: O_20  and  C_21 
REMARK    4  A    between atoms: C_21  and  C_22 
ROOT
HETATM    1  C   UNK N   1      28.578  17.881   5.104  0.00  0.00     0.055 A 
HETATM    2  C   UNK N   1      27.409  18.478   5.614  0.00  0.00     0.092 A 
HETATM    3  C   UNK N   1      29.638  17.552   5.967  0.00  0.00     0.085 A 
HETATM    4  C   UNK N   1      30.294  17.723   8.482  0.00  0.00     0.023 A 
HETATM    5  C   UNK N   1      29.529  18.219   9.541  0.00  0.00     0.104 A 
HETATM    6  N   UNK N   1      28.332  18.651   9.095  0.00  0.00    -0.351 N 
HETATM    7  C   UNK N   1      28.325  18.435   7.772  0.00  0.00     0.119 A 
HETATM    8  N   UNK N   1      27.298  18.741   6.947  0.00  0.00    -0.351 N 
ATOM      9  HN  UNK N   1      26.447  19.164   7.318  1.00  0.00     0.166 HD
HETATM   10  C   UNK N   1      29.497  17.858   7.339  0.00  0.00     0.055 A 
HETATM   11  H   UNK N   1      27.608  19.047   9.633  0.00  0.00     0.166 HD
ENDROOT
BRANCH   4  12
HETATM   12  C   UNK N   1      31.677  17.210   8.692  0.00  0.00     0.063 A 
HETATM   13  C   UNK N   1      32.760  18.009   8.307  0.00  0.00     0.048 A 
HETATM   14  C   UNK N   1      34.054  17.537   8.495  0.00  0.00     0.108 A 
HETATM   15  N   UNK N   1      34.252  16.312   9.040  0.00  0.00    -0.202 N 
HETATM   16  C   UNK N   1      33.199  15.535   9.402  0.00  0.00     0.676 A 
ATOM     17  HN  UNK N   1      35.202  15.970   9.181  1.00  0.00     0.183 HD
HETATM   18  N   UNK N   1      33.431  14.264   9.961  0.00  0.00    -0.234 N 
HETATM   19  N   UNK N   1      31.922  15.982   9.224  0.00  0.00    -0.191 N 
HETATM   20  H   UNK N   1      32.678  13.680  10.213  0.00  0.00     0.174 HD
HETATM   21  H   UNK N   1      34.355  13.954  10.103  0.00  0.00     0.174 HD
ATOM     22  HN  UNK N   1      31.140  15.387   9.495  1.00  0.00     0.184 HD
ENDBRANCH   4  12
BRANCH   3  23
HETATM   23  O   UNK N   1      30.727  16.946   5.459  0.00  0.00    -0.350 OA
BRANCH  23  24
HETATM   24  C   UNK N   1      31.368  17.475   4.364  0.00  0.00     0.175 C 
BRANCH  24  25
HETATM   25  C   UNK N   1      32.860  17.554   4.623  0.00  0.00     0.022 C 
HETATM   26  C   UNK N   1      33.387  16.209   5.078  0.00  0.00     0.007 C 
ENDBRANCH  24  25
ENDBRANCH  23  24
ENDBRANCH   3  23
TORSDOF 4
ENDMDL
MODEL 3
REMARK VINA RESULT:      -6.0      1.699      4.804
REMARK  4 active torsions:
REMARK  status: ('A' for Active; 'I' for Inactive)
REMARK    1  A    between atoms: C_3  and  O_20 
REMARK    2  A    between atoms: C_4  and  C_13 
REMARK       I    between atoms: N_5  and  C_6 
REMARK    3  A    between atoms: O_20  and  C_21 
REMARK    4  A    between atoms: C_21  and  C_22 
ROOT
HETATM    1  C   UNK N   1      28.129  17.903   8.611  0.00  0.00     0.055 A 
HETATM    2  C   UNK N   1      28.787  18.006   9.851  0.00  0.00     0.092 A 
HETATM    3  C   UNK N   1      28.862  17.622   7.443  0.00  0.00     0.085 A 
HETATM    4  C   UNK N   1      31.317  17.224   6.672  0.00  0.00     0.023 A 
HETATM    5  C   UNK N   1      32.472  17.180   7.459  0.00  0.00     0.104 A 
HETATM    6  N   UNK N   1      32.168  17.400   8.755  0.00  0.00    -0.351 N 
HETATM    7  C   UNK N   1      30.840  17.580   8.802  0.00  0.00     0.119 A 
HETATM    8  N   UNK N   1      30.138  17.836   9.929  0.00  0.00    -0.351 N 
ATOM      9  HN  UNK N   1      30.613  17.902  10.829  1.00  0.00     0.166 HD
HETATM   10  C   UNK N   1      30.262  17.473   7.558  0.00  0.00     0.055 A 
HETATM   11  H   UNK N   1      32.795  17.425   9.513  0.00  0.00     0.166 HD
ENDROOT
BRANCH   4  12
HETATM   12  C   UNK N   1      31.373  17.044   5.195  0.00  0.00     0.063 A 
HETATM   13  C   UNK N   1      32.540  17.412   4.514  0.00  0.00     0.048 A 
HETATM   14  C   UNK N   1      32.600  17.252   3.134  0.00  0.00     0.108 A 
HETATM   15  N   UNK N   1      31.533  16.751   2.466  0.00  0.00    -0.202 N 
HETATM   16  C   UNK N   1      30.399  16.405   3.129  0.00  0.00     0.676 A 
ATOM     17  HN  UNK N   1      31.581  16.630   1.454  1.00  0.00     0.183 HD
HETATM   18  N   UNK N   1      29.301  15.891   2.412  0.00  0.00    -0.234 N 
HETATM   19  N   UNK N   1      30.322  16.556   4.483  0.00  0.00    -0.191 N 
HETATM   20  H   UNK N   1      28.466  15.652   2.875  0.00  0.00     0.174 HD
HETATM   21  H   UNK N   1      29.370  15.769   1.437  0.00  0.00     0.174 HD
ATOM     22  HN  UNK N   1      29.464  16.298   4.969  1.00  0.00     0.184 HD
ENDBRANCH   4  12
BRANCH   3  23
HETATM   23  O   UNK N   1      28.203  17.489   6.277  0.00  0.00    -0.350 OA
BRANCH  23  24
HETATM   24  C   UNK N   1      27.370  18.489   5.832  0.00  0.00     0.175 C 
BRANCH  24  25
HETATM   25  C   UNK N   1      28.124  19.415   4.898  0.00  0.00     0.022 C 
HETATM   26  C   UNK N   1      27.193  19.964   3.836  0.00  0.00     0.007 C 
ENDBRANCH  24  25
ENDBRANCH  23  24
ENDBRANCH   3  23
TORSDOF 4
ENDMDL
MODEL 4
REMARK VINA RESULT:      -5.9      9.614     13.180
REMARK  4 active torsions:
REMARK  status: ('A' for Active; 'I' for Inactive)
REMARK    1  A    between atoms: C_3  and  O_20 
REMARK    2  A    between atoms: C_4  and  C_13 
REMARK       I    between atoms: N_5  and  C_6 
REMARK    3  A    between atoms: O_20  and  C_21 
REMARK    4  A    between atoms: C_21  and  C_22 
ROOT
HETATM    1  C   UNK N   1      34.912   9.754  19.136  0.00  0.00     0.055 A 
HETATM    2  C   UNK N   1      34.923  10.458  20.354  0.00  0.00     0.092 A 
HETATM    3  C   UNK N   1      35.062  10.444  17.919  0.00  0.00     0.085 A 
HETATM    4  C   UNK N   1      35.340  12.872  17.021  0.00  0.00     0.023 A 
HETATM    5  C   UNK N   1      35.443  14.057  17.756  0.00  0.00     0.104 A 
HETATM    6  N   UNK N   1      35.360  13.801  19.078  0.00  0.00    -0.351 N 
HETATM    7  C   UNK N   1      35.208  12.474  19.192  0.00  0.00     0.119 A 
HETATM    8  N   UNK N   1      35.077  11.812  20.365  0.00  0.00    -0.351 N 
ATOM      9  HN  UNK N   1      35.095  12.321  21.248  1.00  0.00     0.166 HD
HETATM   10  C   UNK N   1      35.199  11.849  17.966  0.00  0.00     0.055 A 
HETATM   11  H   UNK N   1      35.401  14.457  19.811  0.00  0.00     0.166 HD
ENDROOT
BRANCH   4  12
HETATM   12  C   UNK N   1      35.370  12.873  15.532  0.00  0.00     0.063 A 
HETATM   13  C   UNK N   1      36.142  13.837  14.873  0.00  0.00     0.048 A 
HETATM   14  C   UNK N   1      36.172  13.849  13.482  0.00  0.00     0.108 A 
HETATM   15  N   UNK N   1      35.453  12.936  12.785  0.00  0.00    -0.202 N 
HETATM   16  C   UNK N   1      34.698  12.009  13.429  0.00  0.00     0.676 A 
ATOM     17  HN  UNK N   1      35.481  12.944  11.766  1.00  0.00     0.183 HD
HETATM   18  N   UNK N   1      33.955  11.075  12.681  0.00  0.00    -0.234 N 
HETATM   19  N   UNK N   1      34.655  11.983  14.792  0.00  0.00    -0.191 N 
HETATM   20  H   UNK N   1      33.388  10.407  13.131  0.00  0.00     0.174 HD
HETATM   21  H   UNK N   1      34.004  11.088  11.697  0.00  0.00     0.174 HD
ATOM     22  HN  UNK N   1      34.080  11.286  15.263  1.00  0.00     0.184 HD
ENDBRANCH   4  12
BRANCH   3  23
HETATM   23  O   UNK N   1      35.088   9.742  16.772  0.00  0.00    -0.350 OA
BRANCH  23  24
HETATM   24  C   UNK N   1      36.024   8.752  16.584  0.00  0.00     0.175 C 
BRANCH  24  25
HETATM   25  C   UNK N   1      37.380   9.367  16.295  0.00  0.00     0.022 C 
HETATM   26  C   UNK N   1      37.458   9.813  14.849  0.00  0.00     0.007 C 
ENDBRANCH  24  25
ENDBRANCH  23  24
ENDBRANCH   3  23
TORSDOF 4
ENDMDL
MODEL 5
REMARK VINA RESULT:      -5.7      2.366      6.204
REMARK  4 active torsions:
REMARK  status: ('A' for Active; 'I' for Inactive)
REMARK    1  A    between atoms: C_3  and  O_20 
REMARK    2  A    between atoms: C_4  and  C_13 
REMARK       I    between atoms: N_5  and  C_6 
REMARK    3  A    between atoms: O_20  and  C_21 
REMARK    4  A    between atoms: C_21  and  C_22 
ROOT
HETATM    1  C   UNK N   1      32.112  16.355   6.864  0.00  0.00     0.055 A 
HETATM    2  C   UNK N   1      32.465  16.118   8.206  0.00  0.00     0.092 A 
HETATM    3  C   UNK N   1      30.955  17.093   6.557  0.00  0.00     0.085 A 
HETATM    4  C   UNK N   1      28.968  18.282   7.749  0.00  0.00     0.023 A 
HETATM    5  C   UNK N   1      28.745  18.422   9.122  0.00  0.00     0.104 A 
HETATM    6  N   UNK N   1      29.726  17.817   9.823  0.00  0.00    -0.351 N 
HETATM    7  C   UNK N   1      30.568  17.300   8.917  0.00  0.00     0.119 A 
HETATM    8  N   UNK N   1      31.687  16.602   9.217  0.00  0.00    -0.351 N 
ATOM      9  HN  UNK N   1      31.948  16.439  10.189  1.00  0.00     0.166 HD
HETATM   10  C   UNK N   1      30.162  17.561   7.628  0.00  0.00     0.055 A 
HETATM   11  H   UNK N   1      29.808  17.766  10.802  0.00  0.00     0.166 HD
ENDROOT
BRANCH   4  12
HETATM   12  C   UNK N   1      28.015  18.830   6.744  0.00  0.00     0.063 A 
HETATM   13  C   UNK N   1      27.523  20.129   6.918  0.00  0.00     0.048 A 
HETATM   14  C   UNK N   1      26.630  20.649   5.988  0.00  0.00     0.108 A 
HETATM   15  N   UNK N   1      26.242  19.893   4.931  0.00  0.00    -0.202 N 
HETATM   16  C   UNK N   1      26.714  18.630   4.772  0.00  0.00     0.676 A 
ATOM     17  HN  UNK N   1      25.591  20.278   4.248  1.00  0.00     0.183 HD
HETATM   18  N   UNK N   1      26.292  17.863   3.668  0.00  0.00    -0.234 N 
HETATM   19  N   UNK N   1      27.591  18.104   5.675  0.00  0.00    -0.191 N 
HETATM   20  H   UNK N   1      26.610  16.939   3.547  0.00  0.00     0.174 HD
HETATM   21  H   UNK N   1      25.672  18.255   3.011  0.00  0.00     0.174 HD
ATOM     22  HN  UNK N   1      27.933  17.152   5.547  1.00  0.00     0.184 HD
ENDBRANCH   4  12
BRANCH   3  23
HETATM   23  O   UNK N   1      30.663  17.339   5.266  0.00  0.00    -0.350 OA
BRANCH  23  24
HETATM   24  C   UNK N   1      30.970  16.413   4.297  0.00  0.00     0.175 C 
BRANCH  24  25
HETATM   25  C   UNK N   1      31.820  17.054   3.217  0.00  0.00     0.022 C 
HETATM   26  C   UNK N   1      33.134  16.314   3.073  0.00  0.00     0.007 C 
ENDBRANCH  24  25
ENDBRANCH  23  24
ENDBRANCH   3  23
TORSDOF 4
ENDMDL
MODEL 6
REMARK VINA RESULT:      -5.6      2.311      4.458
REMARK  4 active torsions:
REMARK  status: ('A' for Active; 'I' for Inactive)
REMARK    1  A    between atoms: C_3  and  O_20 
REMARK    2  A    between atoms: C_4  and  C_13 
REMARK       I    between atoms: N_5  and  C_6 
REMARK    3  A    between atoms: O_20  and  C_21 
REMARK    4  A    between atoms: C_21  and  C_22 
ROOT
HETATM    1  C   UNK N   1      33.183  16.682   4.881  0.00  0.00     0.055 A 
HETATM    2  C   UNK N   1      33.195  16.145   3.579  0.00  0.00     0.092 A 
HETATM    3  C   UNK N   1      31.990  17.190   5.425  0.00  0.00     0.085 A 
HETATM    4  C   UNK N   1      29.499  17.574   4.767  0.00  0.00     0.023 A 
HETATM    5  C   UNK N   1      28.859  17.227   3.574  0.00  0.00     0.104 A 
HETATM    6  N   UNK N   1      29.729  16.646   2.723  0.00  0.00    -0.351 N 
HETATM    7  C   UNK N   1      30.909  16.617   3.359  0.00  0.00     0.119 A 
HETATM    8  N   UNK N   1      32.052  16.115   2.837  0.00  0.00    -0.351 N 
ATOM      9  HN  UNK N   1      32.059  15.717   1.898  1.00  0.00     0.166 HD
HETATM   10  C   UNK N   1      30.829  17.162   4.620  0.00  0.00     0.055 A 
HETATM   11  H   UNK N   1      29.537  16.311   1.818  0.00  0.00     0.166 HD
ENDROOT
BRANCH   4  12
HETATM   12  C   UNK N   1      28.773  18.262   5.870  0.00  0.00     0.063 A 
HETATM   13  C   UNK N   1      27.934  19.339   5.559  0.00  0.00     0.048 A 
HETATM   14  C   UNK N   1      27.255  19.991   6.582  0.00  0.00     0.108 A 
HETATM   15  N   UNK N   1      27.417  19.582   7.865  0.00  0.00    -0.202 N 
HETATM   16  C   UNK N   1      28.239  18.544   8.164  0.00  0.00     0.676 A 
ATOM     17  HN  UNK N   1      26.914  20.059   8.613  1.00  0.00     0.183 HD
HETATM   18  N   UNK N   1      28.394  18.142   9.505  0.00  0.00    -0.234 N 
HETATM   19  N   UNK N   1      28.913  17.893   7.173  0.00  0.00    -0.191 N 
HETATM   20  H   UNK N   1      29.000  17.403   9.741  0.00  0.00     0.174 HD
HETATM   21  H   UNK N   1      27.891  18.605  10.214  0.00  0.00     0.174 HD
ATOM     22  HN  UNK N   1      29.532  17.119   7.411  1.00  0.00     0.184 HD
ENDBRANCH   4  12
BRANCH   3  23
HETATM   23  O   UNK N   1      31.997  17.660   6.685  0.00  0.00    -0.350 OA
BRANCH  23  24
HETATM   24  C   UNK N   1      32.676  16.987   7.673  0.00  0.00     0.175 C 
BRANCH  24  25
HETATM   25  C   UNK N   1      31.714  16.131   8.474  0.00  0.00     0.022 C 
HETATM   26  C   UNK N   1      32.475  15.118   9.303  0.00  0.00     0.007 C 
ENDBRANCH  24  25
ENDBRANCH  23  24
ENDBRANCH   3  23
TORSDOF 4
ENDMDL
MODEL 7
REMARK VINA RESULT:      -5.5      2.387      3.938
REMARK  4 active torsions:
REMARK  status: ('A' for Active; 'I' for Inactive)
REMARK    1  A    between atoms: C_3  and  O_20 
REMARK    2  A    between atoms: C_4  and  C_13 
REMARK       I    between atoms: N_5  and  C_6 
REMARK    3  A    between atoms: O_20  and  C_21 
REMARK    4  A    between atoms: C_21  and  C_22 
ROOT
HETATM    1  C   UNK N   1      28.065  18.891   4.640  0.00  0.00     0.055 A 
HETATM    2  C   UNK N   1      26.974  19.529   5.259  0.00  0.00     0.092 A 
HETATM    3  C   UNK N   1      29.041  18.244   5.419  0.00  0.00     0.085 A 
HETATM    4  C   UNK N   1      29.630  17.797   7.916  0.00  0.00     0.023 A 
HETATM    5  C   UNK N   1      28.905  18.167   9.053  0.00  0.00     0.104 A 
HETATM    6  N   UNK N   1      27.794  18.847   8.703  0.00  0.00    -0.351 N 
HETATM    7  C   UNK N   1      27.802  18.912   7.364  0.00  0.00     0.119 A 
HETATM    8  N   UNK N   1      26.855  19.524   6.617  0.00  0.00    -0.351 N 
ATOM      9  HN  UNK N   1      26.059  19.977   7.065  1.00  0.00     0.166 HD
HETATM   10  C   UNK N   1      28.897  18.277   6.825  0.00  0.00     0.055 A 
HETATM   11  H   UNK N   1      27.115  19.222   9.309  0.00  0.00     0.166 HD
ENDROOT
BRANCH   4  12
HETATM   12  C   UNK N   1      30.920  17.061   8.020  0.00  0.00     0.063 A 
HETATM   13  C   UNK N   1      31.039  15.815   7.393  0.00  0.00     0.048 A 
HETATM   14  C   UNK N   1      32.239  15.118   7.488  0.00  0.00     0.108 A 
HETATM   15  N   UNK N   1      33.273  15.647   8.187  0.00  0.00    -0.202 N 
HETATM   16  C   UNK N   1      33.150  16.851   8.802  0.00  0.00     0.676 A 
ATOM     17  HN  UNK N   1      34.153  15.136   8.251  1.00  0.00     0.183 HD
HETATM   18  N   UNK N   1      34.236  17.377   9.527  0.00  0.00    -0.234 N 
HETATM   19  N   UNK N   1      31.980  17.549   8.720  0.00  0.00    -0.191 N 
HETATM   20  H   UNK N   1      34.159  18.241   9.994  0.00  0.00     0.174 HD
HETATM   21  H   UNK N   1      35.084  16.876   9.568  0.00  0.00     0.174 HD
ATOM     22  HN  UNK N   1      31.898  18.449   9.192  1.00  0.00     0.184 HD
ENDBRANCH   4  12
BRANCH   3  23
HETATM   23  O   UNK N   1      30.053  17.608   4.800  0.00  0.00    -0.350 OA
BRANCH  23  24
HETATM   24  C   UNK N   1      29.796  16.723   3.780  0.00  0.00     0.175 C 
BRANCH  24  25
HETATM   25  C   UNK N   1      29.187  15.451   4.336  0.00  0.00     0.022 C 
HETATM   26  C   UNK N   1      30.125  14.281   4.120  0.00  0.00     0.007 C 
ENDBRANCH  24  25
ENDBRANCH  23  24
ENDBRANCH   3  23
TORSDOF 4
ENDMDL
MODEL 8
REMARK VINA RESULT:      -5.4      8.325     10.549
REMARK  4 active torsions:
REMARK  status: ('A' for Active; 'I' for Inactive)
REMARK    1  A    between atoms: C_3  and  O_20 
REMARK    2  A    between atoms: C_4  and  C_13 
REMARK       I    between atoms: N_5  and  C_6 
REMARK    3  A    between atoms: O_20  and  C_21 
REMARK    4  A    between atoms: C_21  and  C_22 
ROOT
HETATM    1  C   UNK N   1      20.737  12.863  10.537  0.00  0.00     0.055 A 
HETATM    2  C   UNK N   1      21.698  12.113  11.240  0.00  0.00     0.092 A 
HETATM    3  C   UNK N   1      21.083  13.509   9.336  0.00  0.00     0.085 A 
HETATM    4  C   UNK N   1      23.148  13.885   7.794  0.00  0.00     0.023 A 
HETATM    5  C   UNK N   1      24.439  13.369   7.940  0.00  0.00     0.104 A 
HETATM    6  N   UNK N   1      24.522  12.613   9.055  0.00  0.00    -0.351 N 
HETATM    7  C   UNK N   1      23.304  12.641   9.615  0.00  0.00     0.119 A 
HETATM    8  N   UNK N   1      22.971  12.007  10.764  0.00  0.00    -0.351 N 
ATOM      9  HN  UNK N   1      23.664  11.456  11.268  1.00  0.00     0.166 HD
HETATM   10  C   UNK N   1      22.417  13.395   8.883  0.00  0.00     0.055 A 
HETATM   11  H   UNK N   1      25.316  12.138   9.390  0.00  0.00     0.166 HD
ENDROOT
BRANCH   4  12
HETATM   12  C   UNK N   1      22.791  14.782   6.661  0.00  0.00     0.063 A 
HETATM   13  C   UNK N   1      21.941  14.298   5.658  0.00  0.00     0.048 A 
HETATM   14  C   UNK N   1      21.605  15.127   4.594  0.00  0.00     0.108 A 
HETATM   15  N   UNK N   1      22.105  16.385   4.535  0.00  0.00    -0.202 N 
HETATM   16  C   UNK N   1      22.937  16.847   5.504  0.00  0.00     0.676 A 
ATOM     17  HN  UNK N   1      21.854  16.993   3.756  1.00  0.00     0.183 HD
HETATM   18  N   UNK N   1      23.448  18.157   5.417  0.00  0.00    -0.234 N 
HETATM   19  N   UNK N   1      23.278  16.048   6.555  0.00  0.00    -0.191 N 
HETATM   20  H   UNK N   1      24.067  18.501   6.102  0.00  0.00     0.174 HD
HETATM   21  H   UNK N   1      23.185  18.734   4.664  0.00  0.00     0.174 HD
ATOM     22  HN  UNK N   1      23.908  16.404   7.273  1.00  0.00     0.184 HD
ENDBRANCH   4  12
BRANCH   3  23
HETATM   23  O   UNK N   1      20.135  14.186   8.664  0.00  0.00    -0.350 OA
BRANCH  23  24
HETATM   24  C   UNK N   1      19.611  15.346   9.183  0.00  0.00     0.175 C 
BRANCH  24  25
HETATM   25  C   UNK N   1      19.957  16.519   8.286  0.00  0.00     0.022 C 
HETATM   26  C   UNK N   1      19.582  17.824   8.957  0.00  0.00     0.007 C 
ENDBRANCH  24  25
ENDBRANCH  23  24
ENDBRANCH   3  23
TORSDOF 4
ENDMDL
MODEL 9
REMARK VINA RESULT:      -5.4     15.706     17.567
REMARK  4 active torsions:
REMARK  status: ('A' for Active; 'I' for Inactive)
REMARK    1  A    between atoms: C_3  and  O_20 
REMARK    2  A    between atoms: C_4  and  C_13 
REMARK       I    between atoms: N_5  and  C_6 
REMARK    3  A    between atoms: O_20  and  C_21 
REMARK    4  A    between atoms: C_21  and  C_22 
ROOT
HETATM    1  C   UNK N   1      28.524  30.142  -6.314  0.00  0.00     0.055 A 
HETATM    2  C   UNK N   1      28.244  31.011  -5.243  0.00  0.00     0.092 A 
HETATM    3  C   UNK N   1      27.872  28.899  -6.405  0.00  0.00     0.085 A 
HETATM    4  C   UNK N   1      26.151  27.445  -5.098  0.00  0.00     0.023 A 
HETATM    5  C   UNK N   1      25.467  27.767  -3.923  0.00  0.00     0.104 A 
HETATM    6  N   UNK N   1      25.827  28.992  -3.488  0.00  0.00    -0.351 N 
HETATM    7  C   UNK N   1      26.726  29.452  -4.370  0.00  0.00     0.119 A 
HETATM    8  N   UNK N   1      27.341  30.654  -4.286  0.00  0.00    -0.351 N 
ATOM      9  HN  UNK N   1      27.131  31.288  -3.516  1.00  0.00     0.166 HD
HETATM   10  C   UNK N   1      26.958  28.553  -5.384  0.00  0.00     0.055 A 
HETATM   11  H   UNK N   1      25.496  29.455  -2.684  0.00  0.00     0.166 HD
ENDROOT
BRANCH   4  12
HETATM   12  C   UNK N   1      25.964  26.132  -5.775  0.00  0.00     0.063 A 
HETATM   13  C   UNK N   1      25.975  24.965  -5.000  0.00  0.00     0.048 A 
HETATM   14  C   UNK N   1      25.805  23.734  -5.623  0.00  0.00     0.108 A 
HETATM   15  N   UNK N   1      25.638  23.676  -6.967  0.00  0.00    -0.202 N 
HETATM   16  C   UNK N   1      25.638  24.809  -7.716  0.00  0.00     0.676 A 
ATOM     17  HN  UNK N   1      25.509  22.772  -7.421  1.00  0.00     0.183 HD
HETATM   18  N   UNK N   1      25.468  24.722  -9.111  0.00  0.00    -0.234 N 
HETATM   19  N   UNK N   1      25.804  26.025  -7.122  0.00  0.00    -0.191 N 
HETATM   20  H   UNK N   1      25.484  25.532  -9.671  0.00  0.00     0.174 HD
HETATM   21  H   UNK N   1      25.332  23.841  -9.532  0.00  0.00     0.174 HD
ATOM     22  HN  UNK N   1      25.809  26.868  -7.695  1.00  0.00     0.184 HD
ENDBRANCH   4  12
BRANCH   3  23
HETATM   23  O   UNK N   1      28.129  28.105  -7.460  0.00  0.00    -0.350 OA
BRANCH  23  24
HETATM   24  C   UNK N   1      29.382  27.567  -7.636  0.00  0.00     0.175 C 
BRANCH  24  25
HETATM   25  C   UNK N   1      29.658  26.530  -6.564  0.00  0.00     0.022 C 
HETATM   26  C   UNK N   1      29.349  25.141  -7.084  0.00  0.00     0.007 C 
ENDBRANCH  24  25
ENDBRANCH  23  24
ENDBRANCH   3  23
TORSDOF 4
ENDMDL
