REMARK  3 active torsions:
REMARK  status: ('A' for Active; 'I' for Inactive)
REMARK    1  A    between atoms: C_4  and  C_6 
REMARK    2  A    between atoms: C_15  and  C_17 
REMARK    3  A    between atoms: C_17  and  N_20 
ROOT
HETATM    1  C   UNK N   1       1.312  -0.623   0.205  0.00  0.00    -0.006 A 
HETATM    2  C   UNK N   1       1.317   0.741   0.254  0.00  0.00     0.043 A 
HETATM    3  N   UNK N   1       0.065   1.225   0.272  0.00  0.00    -0.355 N 
HETATM    4  C   UNK N   1      -0.741   0.130   0.230  0.00  0.00     0.044 A 
HETATM    5  C   UNK N   1       0.011  -1.043   0.193  0.00  0.00     0.044 A 
HETATM    6  C   UNK N   1       2.508   1.465   0.249  0.00  0.00     0.031 A 
HETATM    7  C   UNK N   1       3.716   0.739   0.178  0.00  0.00     0.017 A 
HETATM    8  C   UNK N   1       3.705  -0.681   0.120  0.00  0.00     0.008 A 
HETATM    9  C   UNK N   1       2.477  -1.368   0.141  0.00  0.00     0.029 A 
HETATM   10  H   UNK N   1      -0.210   2.170   0.308  0.00  0.00     0.166 HD
ENDROOT
BRANCH   4  11
HETATM   11  C   UNK N   1      -2.222   0.154   0.147  0.00  0.00    -0.004 A 
HETATM   12  C   UNK N   1      -2.893  -1.078   0.058  0.00  0.00     0.014 A 
HETATM   13  C   UNK N   1      -4.280  -1.135  -0.061  0.00  0.00     0.001 A 
HETATM   14  C   UNK N   1      -5.023   0.043  -0.095  0.00  0.00     0.001 A 
HETATM   15  C   UNK N   1      -4.378   1.278  -0.003  0.00  0.00     0.007 A 
HETATM   16  C   UNK N   1      -2.985   1.348   0.118  0.00  0.00    -0.050 A 
HETATM   17  C   UNK N   1      -2.359   2.699   0.199  0.00  0.00     0.049 C 
ENDBRANCH   4  11
BRANCH   8  18
HETATM   18  C   UNK N   1       4.960  -1.452   0.014  0.00  0.00     0.102 C 
HETATM   19  N   UNK N   1       6.090  -0.850  -0.061  0.00  0.00    -0.385 N 
HETATM   20  H   UNK N   1       6.924  -1.371  -0.118  0.00  0.00     0.157 HD
ATOM     21  HN  UNK N   1       6.125   0.169  -0.061  1.00  0.00     0.157 HD
BRANCH  18  22
HETATM   22  N   UNK N   1       4.921  -2.865  -0.043  0.00  0.00    -0.385 N 
HETATM   23  H   UNK N   1       4.056  -3.334  -0.083  0.00  0.00     0.157 HD
HETATM   24  H   UNK N   1       5.760  -3.381  -0.043  0.00  0.00     0.157 HD
ENDBRANCH  18  22
ENDBRANCH   8  18
TORSDOF 3
