MODEL 1
REMARK VINA RESULT:      -6.5      0.000      0.000
REMARK  3 active torsions:
REMARK  status: ('A' for Active; 'I' for Inactive)
REMARK    1  A    between atoms: C_4  and  C_6 
REMARK    2  A    between atoms: C_15  and  C_17 
REMARK    3  A    between atoms: C_17  and  N_20 
ROOT
HETATM    1  C   UNK N   1      29.127  17.553   6.799  0.00  0.00    -0.006 A 
HETATM    2  C   UNK N   1      28.452  18.324   7.700  0.00  0.00     0.043 A 
HETATM    3  N   UNK N   1      27.437  18.975   7.110  0.00  0.00    -0.355 N 
HETATM    4  C   UNK N   1      27.485  18.600   5.803  0.00  0.00     0.044 A 
HETATM    5  C   UNK N   1      28.530  17.705   5.578  0.00  0.00     0.044 A 
HETATM    6  C   UNK N   1      28.847  18.399   9.035  0.00  0.00     0.031 A 
HETATM    7  C   UNK N   1      29.983  17.657   9.424  0.00  0.00     0.017 A 
HETATM    8  C   UNK N   1      30.687  16.861   8.480  0.00  0.00     0.008 A 
HETATM    9  C   UNK N   1      30.241  16.808   7.146  0.00  0.00     0.029 A 
HETATM   10  H   UNK N   1      26.796  19.592   7.533  0.00  0.00     0.166 HD
ENDROOT
BRANCH   4  11
HETATM   11  C   UNK N   1      26.610  19.122   4.725  0.00  0.00    -0.004 A 
HETATM   12  C   UNK N   1      27.055  20.246   4.007  0.00  0.00     0.014 A 
HETATM   13  C   UNK N   1      26.273  20.816   3.006  0.00  0.00     0.001 A 
HETATM   14  C   UNK N   1      25.026  20.272   2.704  0.00  0.00     0.001 A 
HETATM   15  C   UNK N   1      24.566  19.153   3.401  0.00  0.00     0.007 A 
HETATM   16  C   UNK N   1      25.344  18.570   4.408  0.00  0.00    -0.050 A 
HETATM   17  C   UNK N   1      24.787  17.385   5.121  0.00  0.00     0.049 C 
ENDBRANCH   4  11
BRANCH   8  18
HETATM   18  C   UNK N   1      31.895  16.105   8.866  0.00  0.00     0.102 C 
HETATM   19  N   UNK N   1      32.959  16.169   8.153  0.00  0.00    -0.385 N 
HETATM   20  H   UNK N   1      33.765  15.672   8.424  0.00  0.00     0.157 HD
ATOM     21  HN  UNK N   1      32.971  16.735   7.305  1.00  0.00     0.157 HD
BRANCH  18  22
HETATM   22  N   UNK N   1      31.874  15.272  10.010  0.00  0.00    -0.385 N 
HETATM   23  H   UNK N   1      31.952  15.666  10.909  0.00  0.00     0.157 HD
HETATM   24  H   UNK N   1      31.781  14.297   9.907  0.00  0.00     0.157 HD
ENDBRANCH  18  22
ENDBRANCH   8  18
TORSDOF 3
ENDMDL
MODEL 2
REMARK VINA RESULT:      -6.5      1.619      2.328
REMARK  3 active torsions:
REMARK  status: ('A' for Active; 'I' for Inactive)
REMARK    1  A    between atoms: C_4  and  C_6 
REMARK    2  A    between atoms: C_15  and  C_17 
REMARK    3  A    between atoms: C_17  and  N_20 
ROOT
HETATM    1  C   UNK N   1      30.195  17.391   6.750  0.00  0.00    -0.006 A 
HETATM    2  C   UNK N   1      30.843  17.292   5.553  0.00  0.00     0.043 A 
HETATM    3  N   UNK N   1      30.063  17.723   4.549  0.00  0.00    -0.355 N 
HETATM    4  C   UNK N   1      28.896  18.097   5.138  0.00  0.00     0.044 A 
HETATM    5  C   UNK N   1      28.950  17.906   6.518  0.00  0.00     0.044 A 
HETATM    6  C   UNK N   1      32.132  16.771   5.465  0.00  0.00     0.031 A 
HETATM    7  C   UNK N   1      32.746  16.333   6.658  0.00  0.00     0.017 A 
HETATM    8  C   UNK N   1      32.064  16.431   7.901  0.00  0.00     0.008 A 
HETATM    9  C   UNK N   1      30.767  16.978   7.941  0.00  0.00     0.029 A 
HETATM   10  H   UNK N   1      30.289  17.760   3.591  0.00  0.00     0.166 HD
ENDROOT
BRANCH   4  11
HETATM   11  C   UNK N   1      27.683  18.567   4.425  0.00  0.00    -0.004 A 
HETATM   12  C   UNK N   1      27.540  19.950   4.218  0.00  0.00     0.014 A 
HETATM   13  C   UNK N   1      26.411  20.470   3.589  0.00  0.00     0.001 A 
HETATM   14  C   UNK N   1      25.400  19.614   3.157  0.00  0.00     0.001 A 
HETATM   15  C   UNK N   1      25.523  18.236   3.348  0.00  0.00     0.007 A 
HETATM   16  C   UNK N   1      26.654  17.702   3.977  0.00  0.00    -0.050 A 
HETATM   17  C   UNK N   1      26.716  16.223   4.161  0.00  0.00     0.049 C 
ENDBRANCH   4  11
BRANCH   8  18
HETATM   18  C   UNK N   1      32.681  15.948   9.152  0.00  0.00     0.102 C 
HETATM   19  N   UNK N   1      32.110  15.036   9.850  0.00  0.00    -0.385 N 
HETATM   20  H   UNK N   1      32.534  14.709  10.677  0.00  0.00     0.157 HD
ATOM     21  HN  UNK N   1      31.217  14.648   9.549  1.00  0.00     0.157 HD
BRANCH  18  22
HETATM   22  N   UNK N   1      33.892  16.518   9.611  0.00  0.00    -0.385 N 
HETATM   23  H   UNK N   1      33.971  16.828  10.542  0.00  0.00     0.157 HD
HETATM   24  H   UNK N   1      34.659  16.603   8.998  0.00  0.00     0.157 HD
ENDBRANCH  18  22
ENDBRANCH   8  18
TORSDOF 3
ENDMDL
MODEL 3
REMARK VINA RESULT:      -6.4      2.304      3.381
REMARK  3 active torsions:
REMARK  status: ('A' for Active; 'I' for Inactive)
REMARK    1  A    between atoms: C_4  and  C_6 
REMARK    2  A    between atoms: C_15  and  C_17 
REMARK    3  A    between atoms: C_17  and  N_20 
ROOT
HETATM    1  C   UNK N   1      31.152  17.211   6.341  0.00  0.00    -0.006 A 
HETATM    2  C   UNK N   1      31.654  17.466   5.098  0.00  0.00     0.043 A 
HETATM    3  N   UNK N   1      30.665  17.685   4.217  0.00  0.00    -0.355 N 
HETATM    4  C   UNK N   1      29.516  17.558   4.933  0.00  0.00     0.044 A 
HETATM    5  C   UNK N   1      29.788  17.266   6.268  0.00  0.00     0.044 A 
HETATM    6  C   UNK N   1      33.026  17.451   4.849  0.00  0.00     0.031 A 
HETATM    7  C   UNK N   1      33.884  17.149   5.928  0.00  0.00     0.017 A 
HETATM    8  C   UNK N   1      33.356  16.876   7.219  0.00  0.00     0.008 A 
HETATM    9  C   UNK N   1      31.964  16.916   7.423  0.00  0.00     0.029 A 
HETATM   10  H   UNK N   1      30.754  17.892   3.258  0.00  0.00     0.166 HD
ENDROOT
BRANCH   4  11
HETATM   11  C   UNK N   1      28.142  17.630   4.376  0.00  0.00    -0.004 A 
HETATM   12  C   UNK N   1      27.576  16.445   3.874  0.00  0.00     0.014 A 
HETATM   13  C   UNK N   1      26.306  16.441   3.302  0.00  0.00     0.001 A 
HETATM   14  C   UNK N   1      25.578  17.626   3.219  0.00  0.00     0.001 A 
HETATM   15  C   UNK N   1      26.118  18.814   3.715  0.00  0.00     0.007 A 
HETATM   16  C   UNK N   1      27.393  18.830   4.294  0.00  0.00    -0.050 A 
HETATM   17  C   UNK N   1      27.916  20.135   4.793  0.00  0.00     0.049 C 
ENDBRANCH   4  11
BRANCH   8  18
HETATM   18  C   UNK N   1      34.240  16.527   8.349  0.00  0.00     0.102 C 
HETATM   19  N   UNK N   1      35.021  15.513   8.276  0.00  0.00    -0.385 N 
HETATM   20  H   UNK N   1      35.618  15.294   9.028  0.00  0.00     0.157 HD
ATOM     21  HN  UNK N   1      35.025  14.932   7.437  1.00  0.00     0.157 HD
BRANCH  18  22
HETATM   22  N   UNK N   1      34.204  17.291   9.539  0.00  0.00    -0.385 N 
HETATM   23  H   UNK N   1      34.917  17.943   9.729  0.00  0.00     0.157 HD
HETATM   24  H   UNK N   1      33.464  17.172  10.178  0.00  0.00     0.157 HD
ENDBRANCH  18  22
ENDBRANCH   8  18
TORSDOF 3
ENDMDL
MODEL 4
REMARK VINA RESULT:      -6.4     10.395     13.869
REMARK  3 active torsions:
REMARK  status: ('A' for Active; 'I' for Inactive)
REMARK    1  A    between atoms: C_4  and  C_6 
REMARK    2  A    between atoms: C_15  and  C_17 
REMARK    3  A    between atoms: C_17  and  N_20 
ROOT
HETATM    1  C   UNK N   1      35.907  13.413  13.710  0.00  0.00    -0.006 A 
HETATM    2  C   UNK N   1      35.065  12.356  13.524  0.00  0.00     0.043 A 
HETATM    3  N   UNK N   1      34.735  11.793  14.697  0.00  0.00    -0.355 N 
HETATM    4  C   UNK N   1      35.393  12.521  15.639  0.00  0.00     0.044 A 
HETATM    5  C   UNK N   1      36.132  13.546  15.052  0.00  0.00     0.044 A 
HETATM    6  C   UNK N   1      34.673  11.954  12.248  0.00  0.00     0.031 A 
HETATM    7  C   UNK N   1      35.187  12.672  11.148  0.00  0.00     0.017 A 
HETATM    8  C   UNK N   1      36.070  13.768  11.347  0.00  0.00     0.008 A 
HETATM    9  C   UNK N   1      36.427  14.144  12.655  0.00  0.00     0.029 A 
HETATM   10  H   UNK N   1      34.142  11.020  14.843  0.00  0.00     0.166 HD
ENDROOT
BRANCH   4  11
HETATM   11  C   UNK N   1      35.409  12.231  17.094  0.00  0.00    -0.004 A 
HETATM   12  C   UNK N   1      35.067  13.274  17.973  0.00  0.00     0.014 A 
HETATM   13  C   UNK N   1      35.096  13.089  19.354  0.00  0.00     0.001 A 
HETATM   14  C   UNK N   1      35.470  11.856  19.882  0.00  0.00     0.001 A 
HETATM   15  C   UNK N   1      35.809  10.804  19.027  0.00  0.00     0.007 A 
HETATM   16  C   UNK N   1      35.783  10.977  17.638  0.00  0.00    -0.050 A 
HETATM   17  C   UNK N   1      36.168   9.817  16.784  0.00  0.00     0.049 C 
ENDBRANCH   4  11
BRANCH   8  18
HETATM   18  C   UNK N   1      36.640  14.508  10.204  0.00  0.00     0.102 C 
HETATM   19  N   UNK N   1      37.904  14.712  10.125  0.00  0.00    -0.385 N 
HETATM   20  H   UNK N   1      38.279  15.195   9.352  0.00  0.00     0.157 HD
ATOM     21  HN  UNK N   1      38.521  14.372  10.862  1.00  0.00     0.157 HD
BRANCH  18  22
HETATM   22  N   UNK N   1      35.789  15.033   9.203  0.00  0.00    -0.385 N 
HETATM   23  H   UNK N   1      35.715  16.007   9.077  0.00  0.00     0.157 HD
HETATM   24  H   UNK N   1      35.269  14.423   8.630  0.00  0.00     0.157 HD
ENDBRANCH  18  22
ENDBRANCH   8  18
TORSDOF 3
ENDMDL
MODEL 5
REMARK VINA RESULT:      -6.4      3.046      3.979
REMARK  3 active torsions:
REMARK  status: ('A' for Active; 'I' for Inactive)
REMARK    1  A    between atoms: C_4  and  C_6 
REMARK    2  A    between atoms: C_15  and  C_17 
REMARK    3  A    between atoms: C_17  and  N_20 
ROOT
HETATM    1  C   UNK N   1      30.928  17.141   5.887  0.00  0.00    -0.006 A 
HETATM    2  C   UNK N   1      31.563  17.286   4.688  0.00  0.00     0.043 A 
HETATM    3  N   UNK N   1      30.711  17.098   3.668  0.00  0.00    -0.355 N 
HETATM    4  C   UNK N   1      29.512  16.826   4.251  0.00  0.00     0.044 A 
HETATM    5  C   UNK N   1      29.615  16.851   5.641  0.00  0.00     0.044 A 
HETATM    6  C   UNK N   1      32.928  17.560   4.615  0.00  0.00     0.031 A 
HETATM    7  C   UNK N   1      33.640  17.670   5.829  0.00  0.00     0.017 A 
HETATM    8  C   UNK N   1      32.975  17.512   7.075  0.00  0.00     0.008 A 
HETATM    9  C   UNK N   1      31.593  17.249   7.097  0.00  0.00     0.029 A 
HETATM   10  H   UNK N   1      30.911  17.147   2.705  0.00  0.00     0.166 HD
ENDROOT
BRANCH   4  11
HETATM   11  C   UNK N   1      28.267  16.463   3.530  0.00  0.00    -0.004 A 
HETATM   12  C   UNK N   1      27.139  17.280   3.720  0.00  0.00     0.014 A 
HETATM   13  C   UNK N   1      25.924  16.983   3.107  0.00  0.00     0.001 A 
HETATM   14  C   UNK N   1      25.814  15.858   2.292  0.00  0.00     0.001 A 
HETATM   15  C   UNK N   1      26.923  15.034   2.086  0.00  0.00     0.007 A 
HETATM   16  C   UNK N   1      28.150  15.324   2.696  0.00  0.00    -0.050 A 
HETATM   17  C   UNK N   1      29.290  14.397   2.443  0.00  0.00     0.049 C 
ENDBRANCH   4  11
BRANCH   8  18
HETATM   18  C   UNK N   1      33.713  17.594   8.352  0.00  0.00     0.102 C 
HETATM   19  N   UNK N   1      33.387  16.847   9.342  0.00  0.00    -0.385 N 
HETATM   20  H   UNK N   1      33.892  16.898  10.186  0.00  0.00     0.157 HD
ATOM     21  HN  UNK N   1      32.604  16.200   9.255  1.00  0.00     0.157 HD
BRANCH  18  22
HETATM   22  N   UNK N   1      34.766  18.527   8.503  0.00  0.00    -0.385 N 
HETATM   23  H   UNK N   1      35.698  18.250   8.347  0.00  0.00     0.157 HD
HETATM   24  H   UNK N   1      34.567  19.455   8.765  0.00  0.00     0.157 HD
ENDBRANCH  18  22
ENDBRANCH   8  18
TORSDOF 3
ENDMDL
MODEL 6
REMARK VINA RESULT:      -6.4      7.534     10.036
REMARK  3 active torsions:
REMARK  status: ('A' for Active; 'I' for Inactive)
REMARK    1  A    between atoms: C_4  and  C_6 
REMARK    2  A    between atoms: C_15  and  C_17 
REMARK    3  A    between atoms: C_17  and  N_20 
ROOT
HETATM    1  C   UNK N   1      20.988  17.909   4.629  0.00  0.00    -0.006 A 
HETATM    2  C   UNK N   1      20.513  16.784   4.019  0.00  0.00     0.043 A 
HETATM    3  N   UNK N   1      20.570  15.729   4.847  0.00  0.00    -0.355 N 
HETATM    4  C   UNK N   1      21.099  16.212   6.004  0.00  0.00     0.044 A 
HETATM    5  C   UNK N   1      21.367  17.576   5.900  0.00  0.00     0.044 A 
HETATM    6  C   UNK N   1      20.074  16.803   2.697  0.00  0.00     0.031 A 
HETATM    7  C   UNK N   1      20.150  18.028   1.999  0.00  0.00     0.017 A 
HETATM    8  C   UNK N   1      20.653  19.194   2.636  0.00  0.00     0.008 A 
HETATM    9  C   UNK N   1      21.071  19.128   3.978  0.00  0.00     0.029 A 
HETATM   10  H   UNK N   1      20.289  14.804   4.658  0.00  0.00     0.166 HD
ENDROOT
BRANCH   4  11
HETATM   11  C   UNK N   1      21.437  15.402   7.200  0.00  0.00    -0.004 A 
HETATM   12  C   UNK N   1      22.548  14.545   7.119  0.00  0.00     0.014 A 
HETATM   13  C   UNK N   1      22.905  13.726   8.187  0.00  0.00     0.001 A 
HETATM   14  C   UNK N   1      22.153  13.747   9.360  0.00  0.00     0.001 A 
HETATM   15  C   UNK N   1      21.047  14.594   9.465  0.00  0.00     0.007 A 
HETATM   16  C   UNK N   1      20.680  15.423   8.398  0.00  0.00    -0.050 A 
HETATM   17  C   UNK N   1      19.482  16.293   8.572  0.00  0.00     0.049 C 
ENDBRANCH   4  11
BRANCH   8  18
HETATM   18  C   UNK N   1      20.767  20.474   1.908  0.00  0.00     0.102 C 
HETATM   19  N   UNK N   1      21.085  21.550   2.529  0.00  0.00    -0.385 N 
HETATM   20  H   UNK N   1      21.173  22.398   2.035  0.00  0.00     0.157 HD
ATOM     21  HN  UNK N   1      21.248  21.528   3.536  1.00  0.00     0.157 HD
BRANCH  18  22
HETATM   22  N   UNK N   1      20.490  20.529   0.522  0.00  0.00    -0.385 N 
HETATM   23  H   UNK N   1      21.132  20.156  -0.125  0.00  0.00     0.157 HD
HETATM   24  H   UNK N   1      19.653  20.940   0.204  0.00  0.00     0.157 HD
ENDBRANCH  18  22
ENDBRANCH   8  18
TORSDOF 3
ENDMDL
MODEL 7
REMARK VINA RESULT:      -6.3      2.766      7.369
REMARK  3 active torsions:
REMARK  status: ('A' for Active; 'I' for Inactive)
REMARK    1  A    between atoms: C_4  and  C_6 
REMARK    2  A    between atoms: C_15  and  C_17 
REMARK    3  A    between atoms: C_17  and  N_20 
ROOT
HETATM    1  C   UNK N   1      25.798  18.676   4.448  0.00  0.00    -0.006 A 
HETATM    2  C   UNK N   1      26.601  19.594   3.835  0.00  0.00     0.043 A 
HETATM    3  N   UNK N   1      27.884  19.421   4.189  0.00  0.00    -0.355 N 
HETATM    4  C   UNK N   1      27.878  18.367   5.049  0.00  0.00     0.044 A 
HETATM    5  C   UNK N   1      26.586  17.875   5.227  0.00  0.00     0.044 A 
HETATM    6  C   UNK N   1      26.076  20.572   2.992  0.00  0.00     0.031 A 
HETATM    7  C   UNK N   1      24.678  20.592   2.801  0.00  0.00     0.017 A 
HETATM    8  C   UNK N   1      23.846  19.638   3.447  0.00  0.00     0.008 A 
HETATM    9  C   UNK N   1      24.424  18.661   4.279  0.00  0.00     0.029 A 
HETATM   10  H   UNK N   1      28.662  19.945   3.889  0.00  0.00     0.166 HD
ENDROOT
BRANCH   4  11
HETATM   11  C   UNK N   1      29.059  17.845   5.779  0.00  0.00    -0.004 A 
HETATM   12  C   UNK N   1      30.011  17.114   5.048  0.00  0.00     0.014 A 
HETATM   13  C   UNK N   1      31.127  16.560   5.671  0.00  0.00     0.001 A 
HETATM   14  C   UNK N   1      31.310  16.726   7.042  0.00  0.00     0.001 A 
HETATM   15  C   UNK N   1      30.380  17.452   7.788  0.00  0.00     0.007 A 
HETATM   16  C   UNK N   1      29.255  18.015   7.172  0.00  0.00    -0.050 A 
HETATM   17  C   UNK N   1      28.294  18.767   8.029  0.00  0.00     0.049 C 
ENDBRANCH   4  11
BRANCH   8  18
HETATM   18  C   UNK N   1      22.379  19.666   3.281  0.00  0.00     0.102 C 
HETATM   19  N   UNK N   1      21.651  18.721   3.754  0.00  0.00    -0.385 N 
HETATM   20  H   UNK N   1      20.672  18.753   3.651  0.00  0.00     0.157 HD
ATOM     21  HN  UNK N   1      22.087  17.936   4.236  1.00  0.00     0.157 HD
BRANCH  18  22
HETATM   22  N   UNK N   1      21.767  20.722   2.565  0.00  0.00    -0.385 N 
HETATM   23  H   UNK N   1      20.994  20.540   1.982  0.00  0.00     0.157 HD
HETATM   24  H   UNK N   1      22.113  21.640   2.649  0.00  0.00     0.157 HD
ENDBRANCH  18  22
ENDBRANCH   8  18
TORSDOF 3
ENDMDL
MODEL 8
REMARK VINA RESULT:      -6.3     11.106     14.477
REMARK  3 active torsions:
REMARK  status: ('A' for Active; 'I' for Inactive)
REMARK    1  A    between atoms: C_4  and  C_6 
REMARK    2  A    between atoms: C_15  and  C_17 
REMARK    3  A    between atoms: C_17  and  N_20 
ROOT
HETATM    1  C   UNK N   1      28.113  26.757  -4.188  0.00  0.00    -0.006 A 
HETATM    2  C   UNK N   1      26.945  26.063  -4.065  0.00  0.00     0.043 A 
HETATM    3  N   UNK N   1      27.167  24.739  -4.105  0.00  0.00    -0.355 N 
HETATM    4  C   UNK N   1      28.512  24.609  -4.261  0.00  0.00     0.044 A 
HETATM    5  C   UNK N   1      29.133  25.855  -4.311  0.00  0.00     0.044 A 
HETATM    6  C   UNK N   1      25.718  26.715  -3.950  0.00  0.00     0.031 A 
HETATM    7  C   UNK N   1      25.722  28.126  -3.979  0.00  0.00     0.017 A 
HETATM    8  C   UNK N   1      26.940  28.845  -4.115  0.00  0.00     0.008 A 
HETATM    9  C   UNK N   1      28.155  28.141  -4.214  0.00  0.00     0.029 A 
HETATM   10  H   UNK N   1      26.499  24.019  -4.036  0.00  0.00     0.166 HD
ENDROOT
BRANCH   4  11
HETATM   11  C   UNK N   1      29.237  23.327  -4.442  0.00  0.00    -0.004 A 
HETATM   12  C   UNK N   1      29.321  22.800  -5.742  0.00  0.00     0.014 A 
HETATM   13  C   UNK N   1      29.952  21.582  -5.986  0.00  0.00     0.001 A 
HETATM   14  C   UNK N   1      30.512  20.867  -4.930  0.00  0.00     0.001 A 
HETATM   15  C   UNK N   1      30.446  21.374  -3.631  0.00  0.00     0.007 A 
HETATM   16  C   UNK N   1      29.814  22.597  -3.373  0.00  0.00    -0.050 A 
HETATM   17  C   UNK N   1      29.768  23.074  -1.961  0.00  0.00     0.049 C 
ENDBRANCH   4  11
BRANCH   8  18
HETATM   18  C   UNK N   1      26.955  30.320  -4.178  0.00  0.00     0.102 C 
HETATM   19  N   UNK N   1      26.062  31.007  -3.565  0.00  0.00    -0.385 N 
HETATM   20  H   UNK N   1      26.086  31.991  -3.601  0.00  0.00     0.157 HD
ATOM     21  HN  UNK N   1      25.327  30.534  -3.041  1.00  0.00     0.157 HD
BRANCH  18  22
HETATM   22  N   UNK N   1      27.937  30.986  -4.947  0.00  0.00    -0.385 N 
HETATM   23  H   UNK N   1      27.682  31.738  -5.531  0.00  0.00     0.157 HD
HETATM   24  H   UNK N   1      28.878  30.699  -4.900  0.00  0.00     0.157 HD
ENDBRANCH  18  22
ENDBRANCH   8  18
TORSDOF 3
ENDMDL
MODEL 9
REMARK VINA RESULT:      -6.2     11.461     13.178
REMARK  3 active torsions:
REMARK  status: ('A' for Active; 'I' for Inactive)
REMARK    1  A    between atoms: C_4  and  C_6 
REMARK    2  A    between atoms: C_15  and  C_17 
REMARK    3  A    between atoms: C_17  and  N_20 
ROOT
HETATM    1  C   UNK N   1      34.810  11.960  15.198  0.00  0.00    -0.006 A 
HETATM    2  C   UNK N   1      35.769  12.396  14.330  0.00  0.00     0.043 A 
HETATM    3  N   UNK N   1      35.738  11.691  13.188  0.00  0.00    -0.355 N 
HETATM    4  C   UNK N   1      34.733  10.789  13.353  0.00  0.00     0.044 A 
HETATM    5  C   UNK N   1      34.129  10.936  14.600  0.00  0.00     0.044 A 
HETATM    6  C   UNK N   1      36.648  13.421  14.672  0.00  0.00     0.031 A 
HETATM    7  C   UNK N   1      36.524  13.990  15.958  0.00  0.00     0.017 A 
HETATM    8  C   UNK N   1      35.528  13.527  16.861  0.00  0.00     0.008 A 
HETATM    9  C   UNK N   1      34.655  12.498  16.464  0.00  0.00     0.029 A 
HETATM   10  H   UNK N   1      36.319  11.803  12.401  0.00  0.00     0.166 HD
ENDROOT
BRANCH   4  11
HETATM   11  C   UNK N   1      34.365   9.725  12.387  0.00  0.00    -0.004 A 
HETATM   12  C   UNK N   1      33.393  10.028  11.417  0.00  0.00     0.014 A 
HETATM   13  C   UNK N   1      32.968   9.070  10.500  0.00  0.00     0.001 A 
HETATM   14  C   UNK N   1      33.507   7.786  10.538  0.00  0.00     0.001 A 
HETATM   15  C   UNK N   1      34.477   7.463  11.489  0.00  0.00     0.007 A 
HETATM   16  C   UNK N   1      34.913   8.418  12.415  0.00  0.00    -0.050 A 
HETATM   17  C   UNK N   1      35.942   8.004  13.412  0.00  0.00     0.049 C 
ENDBRANCH   4  11
BRANCH   8  18
HETATM   18  C   UNK N   1      35.406  14.092  18.220  0.00  0.00     0.102 C 
HETATM   19  N   UNK N   1      35.144  13.332  19.219  0.00  0.00    -0.385 N 
HETATM   20  H   UNK N   1      35.078  13.713  20.125  0.00  0.00     0.157 HD
ATOM     21  HN  UNK N   1      35.005  12.332  19.076  1.00  0.00     0.157 HD
BRANCH  18  22
HETATM   22  N   UNK N   1      35.543  15.485  18.424  0.00  0.00    -0.385 N 
HETATM   23  H   UNK N   1      35.727  16.080  17.661  0.00  0.00     0.157 HD
HETATM   24  H   UNK N   1      35.453  15.861  19.330  0.00  0.00     0.157 HD
ENDBRANCH  18  22
ENDBRANCH   8  18
TORSDOF 3
ENDMDL
