MODEL 1
REMARK VINA RESULT:      -6.9      0.000      0.000
REMARK  13 active torsions:
REMARK  status: ('A' for Active; 'I' for Inactive)
REMARK    1  A    between atoms: O_1  and  P_2 
REMARK    2  A    between atoms: P_2  and  O_4 
REMARK    3  A    between atoms: P_2  and  O_5 
REMARK    4  A    between atoms: O_5  and  C_6 
REMARK    5  A    between atoms: C_7  and  C_6 
REMARK    6  A    between atoms: C_9  and  O_10 
REMARK    7  A    between atoms: C_11  and  O_12 
REMARK    8  A    between atoms: C_13  and  N_14 
REMARK    9  A    between atoms: C_19  and  N_20 
REMARK   10  A    between atoms: N_20  and  C_29 
REMARK   11  A    between atoms: C_23  and  S_27 
REMARK   12  A    between atoms: C_29  and  C_30 
REMARK   13  A    between atoms: C_30  and  C_31 
ROOT
HETATM    1  N   UNK N   1      32.377  16.778   6.287  0.00  0.00    -0.297 N 
HETATM    2  C   UNK N   1      32.541  16.997   4.955  0.00  0.00     0.188 A 
HETATM    3  N   UNK N   1      31.391  17.415   4.372  0.00  0.00    -0.346 N 
ATOM      4  HN  UNK N   1      31.231  17.639   3.389  1.00  0.00     0.167 HD
HETATM    5  C   UNK N   1      30.508  17.465   5.383  0.00  0.00     0.122 A 
HETATM    6  C   UNK N   1      29.206  17.898   5.367  0.00  0.00     0.134 A 
HETATM    7  N   UNK N   1      28.522  17.920   6.555  0.00  0.00    -0.321 N 
ATOM      8  HN  UNK N   1      27.556  18.249   6.574  1.00  0.00     0.169 HD
HETATM    9  C   UNK N   1      29.122  17.502   7.722  0.00  0.00     0.147 A 
HETATM   10  N   UNK N   1      30.434  17.096   7.714  0.00  0.00    -0.321 N 
ATOM     11  HN  UNK N   1      30.898  16.809   8.576  1.00  0.00     0.169 HD
HETATM   12  C   UNK N   1      31.095  17.087   6.531  0.00  0.00     0.143 A 
ENDROOT
BRANCH   1  13
HETATM   13  C   UNK N   1      33.472  16.420   7.188  0.00  0.00     0.262 C 
HETATM   14  O   UNK N   1      33.053  15.382   8.042  0.00  0.00    -0.353 OA
HETATM   15  C   UNK N   1      34.023  15.338   9.063  0.00  0.00     0.180 C 
HETATM   16  C   UNK N   1      34.743  16.701   9.088  0.00  0.00     0.182 C 
HETATM   17  C   UNK N   1      33.912  17.517   8.137  0.00  0.00     0.198 C 
BRANCH  15  18
HETATM   18  C   UNK N   1      33.380  14.886  10.386  0.00  0.00     0.215 C 
BRANCH  18  19
HETATM   19  O   UNK N   1      34.228  14.944  11.521  0.00  0.00    -0.294 OA
BRANCH  19  20
HETATM   20  P   UNK N   1      35.439  13.669  11.467  0.00  0.00     0.390 P 
HETATM   21  O   UNK N   1      36.273  14.947  11.747  0.00  0.00    -0.632 OA
BRANCH  20  22
HETATM   22  O   UNK N   1      36.396  13.241  12.847  0.00  0.00    -0.307 OA
HETATM   23  H   UNK N   1      35.984  13.169  13.722  0.00  0.00     0.222 HD
ENDBRANCH  20  22
BRANCH  20  24
HETATM   24  O   UNK N   1      34.420  13.326  12.832  0.00  0.00    -0.307 OA
HETATM   25  H   UNK N   1      34.375  13.716  13.718  0.00  0.00     0.222 HD
ENDBRANCH  20  24
ENDBRANCH  19  20
ENDBRANCH  18  19
ENDBRANCH  15  18
BRANCH  16  26
HETATM   26  O   UNK N   1      34.834  17.302  10.347  0.00  0.00    -0.390 OA
HETATM   27  H   UNK N   1      35.573  17.627  10.884  0.00  0.00     0.210 HD
ENDBRANCH  16  26
BRANCH  17  28
HETATM   28  O   UNK N   1      34.674  18.517   7.528  0.00  0.00    -0.388 OA
HETATM   29  H   UNK N   1      34.459  19.453   7.394  0.00  0.00     0.210 HD
ENDBRANCH  17  28
ENDBRANCH   1  13
BRANCH   6  30
HETATM   30  N   UNK N   1      28.645  18.385   4.167  0.00  0.00    -0.374 N 
HETATM   31  H   UNK N   1      28.999  19.211   3.762  0.00  0.00     0.161 HD
BRANCH  30  32
HETATM   32  C   UNK N   1      27.561  17.686   3.535  0.00  0.00     0.121 C 
BRANCH  32  33
HETATM   33  C   UNK N   1      26.257  18.415   3.743  0.00  0.00     0.023 C 
BRANCH  33  34
HETATM   34  C   UNK N   1      26.516  19.907   3.725  0.00  0.00    -0.021 C 
HETATM   35  C   UNK N   1      25.611  20.559   2.705  0.00  0.00     0.009 C 
HETATM   36  C   UNK N   1      26.238  20.504   5.093  0.00  0.00     0.009 C 
ENDBRANCH  33  34
ENDBRANCH  32  33
ENDBRANCH  30  32
ENDBRANCH   6  30
BRANCH   9  37
HETATM   37  S   UNK N   1      28.188  17.558   9.261  0.00  0.00    -0.098 SA
HETATM   38  C   UNK N   1      29.467  16.798  10.311  0.00  0.00     0.099 C 
ENDBRANCH   9  37
TORSDOF 13
ENDMDL
MODEL 2
REMARK VINA RESULT:      -6.7      2.350      3.332
REMARK  13 active torsions:
REMARK  status: ('A' for Active; 'I' for Inactive)
REMARK    1  A    between atoms: O_1  and  P_2 
REMARK    2  A    between atoms: P_2  and  O_4 
REMARK    3  A    between atoms: P_2  and  O_5 
REMARK    4  A    between atoms: O_5  and  C_6 
REMARK    5  A    between atoms: C_7  and  C_6 
REMARK    6  A    between atoms: C_9  and  O_10 
REMARK    7  A    between atoms: C_11  and  O_12 
REMARK    8  A    between atoms: C_13  and  N_14 
REMARK    9  A    between atoms: C_19  and  N_20 
REMARK   10  A    between atoms: N_20  and  C_29 
REMARK   11  A    between atoms: C_23  and  S_27 
REMARK   12  A    between atoms: C_29  and  C_30 
REMARK   13  A    between atoms: C_30  and  C_31 
ROOT
HETATM    1  N   UNK N   1      30.899  15.919   5.124  0.00  0.00    -0.297 N 
HETATM    2  C   UNK N   1      30.935  16.319   3.824  0.00  0.00     0.188 A 
HETATM    3  N   UNK N   1      30.078  17.342   3.592  0.00  0.00    -0.346 N 
ATOM      4  HN  UNK N   1      29.898  17.821   2.709  1.00  0.00     0.167 HD
HETATM    5  C   UNK N   1      29.516  17.580   4.789  0.00  0.00     0.122 A 
HETATM    6  C   UNK N   1      28.629  18.565   5.141  0.00  0.00     0.134 A 
HETATM    7  N   UNK N   1      28.250  18.648   6.456  0.00  0.00    -0.321 N 
ATOM      8  HN  UNK N   1      27.600  19.378   6.748  1.00  0.00     0.169 HD
HETATM    9  C   UNK N   1      28.735  17.756   7.387  0.00  0.00     0.147 A 
HETATM   10  N   UNK N   1      29.640  16.794   7.012  0.00  0.00    -0.321 N 
ATOM     11  HN  UNK N   1      30.027  16.144   7.697  1.00  0.00     0.169 HD
HETATM   12  C   UNK N   1      30.007  16.733   5.708  0.00  0.00     0.143 A 
ENDROOT
BRANCH   1  13
HETATM   13  C   UNK N   1      31.791  14.903   5.683  0.00  0.00     0.262 C 
HETATM   14  O   UNK N   1      32.000  15.168   7.050  0.00  0.00    -0.353 OA
HETATM   15  C   UNK N   1      33.101  14.366   7.410  0.00  0.00     0.180 C 
HETATM   16  C   UNK N   1      33.869  14.013   6.121  0.00  0.00     0.182 C 
HETATM   17  C   UNK N   1      33.189  14.880   5.098  0.00  0.00     0.198 C 
BRANCH  15  18
HETATM   18  C   UNK N   1      33.917  15.053   8.519  0.00  0.00     0.215 C 
BRANCH  18  19
HETATM   19  O   UNK N   1      34.753  16.114   8.086  0.00  0.00    -0.294 OA
BRANCH  19  20
HETATM   20  P   UNK N   1      34.057  17.674   8.502  0.00  0.00     0.390 P 
HETATM   21  O   UNK N   1      35.229  17.523   9.507  0.00  0.00    -0.632 OA
BRANCH  20  22
HETATM   22  O   UNK N   1      34.937  19.157   8.332  0.00  0.00    -0.307 OA
HETATM   23  H   UNK N   1      35.563  19.270   7.600  0.00  0.00     0.222 HD
ENDBRANCH  20  22
BRANCH  20  24
HETATM   24  O   UNK N   1      34.685  17.828   6.889  0.00  0.00    -0.307 OA
HETATM   25  H   UNK N   1      35.589  17.788   6.543  0.00  0.00     0.222 HD
ENDBRANCH  20  24
ENDBRANCH  19  20
ENDBRANCH  18  19
ENDBRANCH  15  18
BRANCH  16  26
HETATM   26  O   UNK N   1      35.247  14.246   6.167  0.00  0.00    -0.390 OA
HETATM   27  H   UNK N   1      35.847  14.584   6.849  0.00  0.00     0.210 HD
ENDBRANCH  16  26
BRANCH  17  28
HETATM   28  O   UNK N   1      33.258  14.311   3.824  0.00  0.00    -0.388 OA
HETATM   29  H   UNK N   1      32.954  13.438   3.528  0.00  0.00     0.210 HD
ENDBRANCH  17  28
ENDBRANCH   1  13
BRANCH   6  30
HETATM   30  N   UNK N   1      28.207  19.506   4.177  0.00  0.00    -0.374 N 
HETATM   31  H   UNK N   1      28.716  19.610   3.340  0.00  0.00     0.161 HD
BRANCH  30  32
HETATM   32  C   UNK N   1      27.041  20.312   4.409  0.00  0.00     0.121 C 
BRANCH  32  33
HETATM   33  C   UNK N   1      26.252  20.495   3.136  0.00  0.00     0.023 C 
BRANCH  33  34
HETATM   34  C   UNK N   1      24.963  19.706   3.236  0.00  0.00    -0.021 C 
HETATM   35  C   UNK N   1      24.827  19.145   4.632  0.00  0.00     0.009 C 
HETATM   36  C   UNK N   1      23.776  20.604   2.941  0.00  0.00     0.009 C 
ENDBRANCH  33  34
ENDBRANCH  32  33
ENDBRANCH  30  32
ENDBRANCH   6  30
BRANCH   9  37
HETATM   37  S   UNK N   1      28.217  17.909   9.105  0.00  0.00    -0.098 SA
HETATM   38  C   UNK N   1      29.754  18.669   9.720  0.00  0.00     0.099 C 
ENDBRANCH   9  37
TORSDOF 13
ENDMDL
MODEL 3
REMARK VINA RESULT:      -6.7      1.860      2.696
REMARK  13 active torsions:
REMARK  status: ('A' for Active; 'I' for Inactive)
REMARK    1  A    between atoms: O_1  and  P_2 
REMARK    2  A    between atoms: P_2  and  O_4 
REMARK    3  A    between atoms: P_2  and  O_5 
REMARK    4  A    between atoms: O_5  and  C_6 
REMARK    5  A    between atoms: C_7  and  C_6 
REMARK    6  A    between atoms: C_9  and  O_10 
REMARK    7  A    between atoms: C_11  and  O_12 
REMARK    8  A    between atoms: C_13  and  N_14 
REMARK    9  A    between atoms: C_19  and  N_20 
REMARK   10  A    between atoms: N_20  and  C_29 
REMARK   11  A    between atoms: C_23  and  S_27 
REMARK   12  A    between atoms: C_29  and  C_30 
REMARK   13  A    between atoms: C_30  and  C_31 
ROOT
HETATM    1  N   UNK N   1      30.418  15.831   5.015  0.00  0.00    -0.297 N 
HETATM    2  C   UNK N   1      29.865  15.502   3.817  0.00  0.00     0.188 A 
HETATM    3  N   UNK N   1      28.526  15.715   3.808  0.00  0.00    -0.346 N 
ATOM      4  HN  UNK N   1      27.869  15.544   3.047  1.00  0.00     0.167 HD
HETATM    5  C   UNK N   1      28.262  16.203   5.032  0.00  0.00     0.122 A 
HETATM    6  C   UNK N   1      27.071  16.660   5.537  0.00  0.00     0.134 A 
HETATM    7  N   UNK N   1      27.069  17.181   6.805  0.00  0.00    -0.321 N 
ATOM      8  HN  UNK N   1      26.200  17.539   7.200  1.00  0.00     0.169 HD
HETATM    9  C   UNK N   1      28.226  17.224   7.552  0.00  0.00     0.147 A 
HETATM   10  N   UNK N   1      29.409  16.781   7.014  0.00  0.00    -0.321 N 
ATOM     11  HN  UNK N   1      30.277  16.831   7.547  1.00  0.00     0.169 HD
HETATM   12  C   UNK N   1      29.392  16.275   5.756  0.00  0.00     0.143 A 
ENDROOT
BRANCH   1  13
HETATM   13  C   UNK N   1      31.856  15.799   5.278  0.00  0.00     0.262 C 
HETATM   14  O   UNK N   1      32.079  15.373   6.601  0.00  0.00    -0.353 OA
HETATM   15  C   UNK N   1      33.428  15.690   6.862  0.00  0.00     0.180 C 
HETATM   16  C   UNK N   1      33.859  16.777   5.858  0.00  0.00     0.182 C 
HETATM   17  C   UNK N   1      32.555  17.143   5.205  0.00  0.00     0.198 C 
BRANCH  15  18
HETATM   18  C   UNK N   1      33.615  16.028   8.351  0.00  0.00     0.215 C 
BRANCH  18  19
HETATM   19  O   UNK N   1      34.937  16.371   8.732  0.00  0.00    -0.294 OA
BRANCH  19  20
HETATM   20  P   UNK N   1      35.302  15.774  10.345  0.00  0.00     0.390 P 
HETATM   21  O   UNK N   1      36.307  15.011   9.442  0.00  0.00    -0.632 OA
BRANCH  20  22
HETATM   22  O   UNK N   1      36.833  16.048  11.110  0.00  0.00    -0.307 OA
HETATM   23  H   UNK N   1      36.956  15.825  12.045  0.00  0.00     0.222 HD
ENDBRANCH  20  22
BRANCH  20  24
HETATM   24  O   UNK N   1      35.688  17.468  10.346  0.00  0.00    -0.307 OA
HETATM   25  H   UNK N   1      35.803  18.103  11.069  0.00  0.00     0.222 HD
ENDBRANCH  20  24
ENDBRANCH  19  20
ENDBRANCH  18  19
ENDBRANCH  15  18
BRANCH  16  26
HETATM   26  O   UNK N   1      34.488  17.890   6.423  0.00  0.00    -0.390 OA
HETATM   27  H   UNK N   1      34.224  18.813   6.559  0.00  0.00     0.210 HD
ENDBRANCH  16  26
BRANCH  17  28
HETATM   28  O   UNK N   1      32.753  17.604   3.902  0.00  0.00    -0.388 OA
HETATM   29  H   UNK N   1      32.573  18.483   3.531  0.00  0.00     0.210 HD
ENDBRANCH  17  28
ENDBRANCH   1  13
BRANCH   6  30
HETATM   30  N   UNK N   1      25.921  16.666   4.719  0.00  0.00    -0.374 N 
HETATM   31  H   UNK N   1      25.259  15.941   4.802  0.00  0.00     0.161 HD
BRANCH  30  32
HETATM   32  C   UNK N   1      25.710  17.723   3.769  0.00  0.00     0.121 C 
BRANCH  32  33
HETATM   33  C   UNK N   1      24.976  18.878   4.404  0.00  0.00     0.023 C 
BRANCH  33  34
HETATM   34  C   UNK N   1      25.599  20.177   3.936  0.00  0.00    -0.021 C 
HETATM   35  C   UNK N   1      27.105  20.051   3.972  0.00  0.00     0.009 C 
HETATM   36  C   UNK N   1      25.159  20.487   2.517  0.00  0.00     0.009 C 
ENDBRANCH  33  34
ENDBRANCH  32  33
ENDBRANCH  30  32
ENDBRANCH   6  30
BRANCH   9  37
HETATM   37  S   UNK N   1      28.177  17.926   9.210  0.00  0.00    -0.098 SA
HETATM   38  C   UNK N   1      29.876  18.583   9.210  0.00  0.00     0.099 C 
ENDBRANCH   9  37
TORSDOF 13
ENDMDL
MODEL 4
REMARK VINA RESULT:      -6.6      5.317      9.691
REMARK  13 active torsions:
REMARK  status: ('A' for Active; 'I' for Inactive)
REMARK    1  A    between atoms: O_1  and  P_2 
REMARK    2  A    between atoms: P_2  and  O_4 
REMARK    3  A    between atoms: P_2  and  O_5 
REMARK    4  A    between atoms: O_5  and  C_6 
REMARK    5  A    between atoms: C_7  and  C_6 
REMARK    6  A    between atoms: C_9  and  O_10 
REMARK    7  A    between atoms: C_11  and  O_12 
REMARK    8  A    between atoms: C_13  and  N_14 
REMARK    9  A    between atoms: C_19  and  N_20 
REMARK   10  A    between atoms: N_20  and  C_29 
REMARK   11  A    between atoms: C_23  and  S_27 
REMARK   12  A    between atoms: C_29  and  C_30 
REMARK   13  A    between atoms: C_30  and  C_31 
ROOT
HETATM    1  N   UNK N   1      34.613  15.951  10.208  0.00  0.00    -0.297 N 
HETATM    2  C   UNK N   1      35.536  16.536  11.018  0.00  0.00     0.188 A 
HETATM    3  N   UNK N   1      36.200  15.618  11.764  0.00  0.00    -0.346 N 
ATOM      4  HN  UNK N   1      36.930  15.783  12.456  1.00  0.00     0.167 HD
HETATM    5  C   UNK N   1      35.675  14.442  11.382  0.00  0.00     0.122 A 
HETATM    6  C   UNK N   1      36.036  13.175  11.766  0.00  0.00     0.134 A 
HETATM    7  N   UNK N   1      35.391  12.118  11.178  0.00  0.00    -0.321 N 
ATOM      8  HN  UNK N   1      35.648  11.165  11.435  1.00  0.00     0.169 HD
HETATM    9  C   UNK N   1      34.400  12.327  10.244  0.00  0.00     0.147 A 
HETATM   10  N   UNK N   1      34.074  13.605   9.861  0.00  0.00    -0.321 N 
ATOM     11  HN  UNK N   1      33.360  13.773   9.152  1.00  0.00     0.169 HD
HETATM   12  C   UNK N   1      34.727  14.637  10.450  0.00  0.00     0.143 A 
ENDROOT
BRANCH   1  13
HETATM   13  C   UNK N   1      33.822  16.686   9.221  0.00  0.00     0.262 C 
HETATM   14  O   UNK N   1      33.123  15.772   8.410  0.00  0.00    -0.353 OA
HETATM   15  C   UNK N   1      32.673  16.533   7.312  0.00  0.00     0.180 C 
HETATM   16  C   UNK N   1      33.552  17.796   7.222  0.00  0.00     0.182 C 
HETATM   17  C   UNK N   1      34.626  17.510   8.234  0.00  0.00     0.198 C 
BRANCH  15  18
HETATM   18  C   UNK N   1      32.612  15.656   6.049  0.00  0.00     0.215 C 
BRANCH  18  19
HETATM   19  O   UNK N   1      31.697  16.089   5.056  0.00  0.00    -0.294 OA
BRANCH  19  20
HETATM   20  P   UNK N   1      32.510  16.338   3.517  0.00  0.00     0.390 P 
HETATM   21  O   UNK N   1      31.327  15.403   3.152  0.00  0.00    -0.632 OA
BRANCH  20  22
HETATM   22  O   UNK N   1      31.747  17.141   2.184  0.00  0.00    -0.307 OA
HETATM   23  H   UNK N   1      31.036  16.701   1.694  0.00  0.00     0.222 HD
ENDBRANCH  20  22
BRANCH  20  24
HETATM   24  O   UNK N   1      31.901  17.888   4.009  0.00  0.00    -0.307 OA
HETATM   25  H   UNK N   1      31.208  18.456   3.639  0.00  0.00     0.222 HD
ENDBRANCH  20  24
ENDBRANCH  19  20
ENDBRANCH  18  19
ENDBRANCH  15  18
BRANCH  16  26
HETATM   26  O   UNK N   1      34.086  18.058   5.956  0.00  0.00    -0.390 OA
HETATM   27  H   UNK N   1      33.766  18.544   5.181  0.00  0.00     0.210 HD
ENDBRANCH  16  26
BRANCH  17  28
HETATM   28  O   UNK N   1      35.142  18.690   8.774  0.00  0.00    -0.388 OA
HETATM   29  H   UNK N   1      35.625  18.822   9.605  0.00  0.00     0.210 HD
ENDBRANCH  17  28
ENDBRANCH   1  13
BRANCH   6  30
HETATM   30  N   UNK N   1      37.104  12.995  12.671  0.00  0.00    -0.374 N 
HETATM   31  H   UNK N   1      38.014  13.273  12.415  0.00  0.00     0.161 HD
BRANCH  30  32
HETATM   32  C   UNK N   1      36.872  12.409  13.961  0.00  0.00     0.121 C 
BRANCH  32  33
HETATM   33  C   UNK N   1      36.104  13.355  14.851  0.00  0.00     0.023 C 
BRANCH  33  34
HETATM   34  C   UNK N   1      35.378  12.555  15.913  0.00  0.00    -0.021 C 
HETATM   35  C   UNK N   1      36.171  11.308  16.230  0.00  0.00     0.009 C 
HETATM   36  C   UNK N   1      35.222  13.382  17.176  0.00  0.00     0.009 C 
ENDBRANCH  33  34
ENDBRANCH  32  33
ENDBRANCH  30  32
ENDBRANCH   6  30
BRANCH   9  37
HETATM   37  S   UNK N   1      33.587  10.908   9.490  0.00  0.00    -0.098 SA
HETATM   38  C   UNK N   1      33.418   9.928  11.016  0.00  0.00     0.099 C 
ENDBRANCH   9  37
TORSDOF 13
ENDMDL
MODEL 5
REMARK VINA RESULT:      -6.5      5.315      9.283
REMARK  13 active torsions:
REMARK  status: ('A' for Active; 'I' for Inactive)
REMARK    1  A    between atoms: O_1  and  P_2 
REMARK    2  A    between atoms: P_2  and  O_4 
REMARK    3  A    between atoms: P_2  and  O_5 
REMARK    4  A    between atoms: O_5  and  C_6 
REMARK    5  A    between atoms: C_7  and  C_6 
REMARK    6  A    between atoms: C_9  and  O_10 
REMARK    7  A    between atoms: C_11  and  O_12 
REMARK    8  A    between atoms: C_13  and  N_14 
REMARK    9  A    between atoms: C_19  and  N_20 
REMARK   10  A    between atoms: N_20  and  C_29 
REMARK   11  A    between atoms: C_23  and  S_27 
REMARK   12  A    between atoms: C_29  and  C_30 
REMARK   13  A    between atoms: C_30  and  C_31 
ROOT
HETATM    1  N   UNK N   1      34.701  15.837  10.427  0.00  0.00    -0.297 N 
HETATM    2  C   UNK N   1      35.575  16.449  11.270  0.00  0.00     0.188 A 
HETATM    3  N   UNK N   1      36.246  15.552  12.033  0.00  0.00    -0.346 N 
ATOM      4  HN  UNK N   1      36.946  15.738  12.751  1.00  0.00     0.167 HD
HETATM    5  C   UNK N   1      35.775  14.360  11.630  0.00  0.00     0.122 A 
HETATM    6  C   UNK N   1      36.167  13.104  12.020  0.00  0.00     0.134 A 
HETATM    7  N   UNK N   1      35.580  12.028  11.407  0.00  0.00    -0.321 N 
ATOM      8  HN  UNK N   1      35.861  11.083  11.669  1.00  0.00     0.169 HD
HETATM    9  C   UNK N   1      34.612  12.208  10.442  0.00  0.00     0.147 A 
HETATM   10  N   UNK N   1      34.256  13.476  10.054  0.00  0.00    -0.321 N 
ATOM     11  HN  UNK N   1      33.560  13.622   9.322  1.00  0.00     0.169 HD
HETATM   12  C   UNK N   1      34.853  14.526  10.668  0.00  0.00     0.143 A 
ENDROOT
BRANCH   1  13
HETATM   13  C   UNK N   1      33.918  16.549   9.418  0.00  0.00     0.262 C 
HETATM   14  O   UNK N   1      33.270  15.616   8.586  0.00  0.00    -0.353 OA
HETATM   15  C   UNK N   1      32.830  16.364   7.476  0.00  0.00     0.180 C 
HETATM   16  C   UNK N   1      33.673  17.652   7.411  0.00  0.00     0.182 C 
HETATM   17  C   UNK N   1      34.725  17.398   8.455  0.00  0.00     0.198 C 
BRANCH  15  18
HETATM   18  C   UNK N   1      32.832  15.487   6.212  0.00  0.00     0.215 C 
BRANCH  18  19
HETATM   19  O   UNK N   1      33.362  14.182   6.382  0.00  0.00    -0.294 OA
BRANCH  19  20
HETATM   20  P   UNK N   1      34.871  13.996   5.498  0.00  0.00     0.390 P 
HETATM   21  O   UNK N   1      34.303  15.336   4.962  0.00  0.00    -0.632 OA
BRANCH  20  22
HETATM   22  O   UNK N   1      36.192  15.103   5.676  0.00  0.00    -0.307 OA
HETATM   23  H   UNK N   1      37.008  14.973   5.169  0.00  0.00     0.222 HD
ENDBRANCH  20  22
BRANCH  20  24
HETATM   24  O   UNK N   1      35.297  14.170   7.173  0.00  0.00    -0.307 OA
HETATM   25  H   UNK N   1      35.647  13.537   7.820  0.00  0.00     0.222 HD
ENDBRANCH  20  24
ENDBRANCH  19  20
ENDBRANCH  18  19
ENDBRANCH  15  18
BRANCH  16  26
HETATM   26  O   UNK N   1      34.236  17.932   6.162  0.00  0.00    -0.390 OA
HETATM   27  H   UNK N   1      34.424  17.397   5.376  0.00  0.00     0.210 HD
ENDBRANCH  16  26
BRANCH  17  28
HETATM   28  O   UNK N   1      35.190  18.592   9.009  0.00  0.00    -0.388 OA
HETATM   29  H   UNK N   1      36.027  18.769   9.467  0.00  0.00     0.210 HD
ENDBRANCH  17  28
ENDBRANCH   1  13
BRANCH   6  30
HETATM   30  N   UNK N   1      37.210  12.956  12.960  0.00  0.00    -0.374 N 
HETATM   31  H   UNK N   1      38.092  13.357  12.778  0.00  0.00     0.161 HD
BRANCH  30  32
HETATM   32  C   UNK N   1      36.994  12.226  14.177  0.00  0.00     0.121 C 
BRANCH  32  33
HETATM   33  C   UNK N   1      36.616  13.157  15.303  0.00  0.00     0.023 C 
BRANCH  33  34
HETATM   34  C   UNK N   1      35.585  12.479  16.180  0.00  0.00    -0.021 C 
HETATM   35  C   UNK N   1      35.142  13.437  17.263  0.00  0.00     0.009 C 
HETATM   36  C   UNK N   1      34.381  12.070  15.352  0.00  0.00     0.009 C 
ENDBRANCH  33  34
ENDBRANCH  32  33
ENDBRANCH  30  32
ENDBRANCH   6  30
BRANCH   9  37
HETATM   37  S   UNK N   1      33.875  10.765   9.656  0.00  0.00    -0.098 SA
HETATM   38  C   UNK N   1      35.159   9.574  10.157  0.00  0.00     0.099 C 
ENDBRANCH   9  37
TORSDOF 13
ENDMDL
MODEL 6
REMARK VINA RESULT:      -6.5      9.937     13.516
REMARK  13 active torsions:
REMARK  status: ('A' for Active; 'I' for Inactive)
REMARK    1  A    between atoms: O_1  and  P_2 
REMARK    2  A    between atoms: P_2  and  O_4 
REMARK    3  A    between atoms: P_2  and  O_5 
REMARK    4  A    between atoms: O_5  and  C_6 
REMARK    5  A    between atoms: C_7  and  C_6 
REMARK    6  A    between atoms: C_9  and  O_10 
REMARK    7  A    between atoms: C_11  and  O_12 
REMARK    8  A    between atoms: C_13  and  N_14 
REMARK    9  A    between atoms: C_19  and  N_20 
REMARK   10  A    between atoms: N_20  and  C_29 
REMARK   11  A    between atoms: C_23  and  S_27 
REMARK   12  A    between atoms: C_29  and  C_30 
REMARK   13  A    between atoms: C_30  and  C_31 
ROOT
HETATM    1  N   UNK N   1      35.264  13.051  16.992  0.00  0.00    -0.297 N 
HETATM    2  C   UNK N   1      35.202  13.820  18.111  0.00  0.00     0.188 A 
HETATM    3  N   UNK N   1      35.204  13.065  19.237  0.00  0.00    -0.346 N 
ATOM      4  HN  UNK N   1      35.155  13.383  20.205  1.00  0.00     0.167 HD
HETATM    5  C   UNK N   1      35.286  11.802  18.787  0.00  0.00     0.122 A 
HETATM    6  C   UNK N   1      35.398  10.639  19.506  0.00  0.00     0.134 A 
HETATM    7  N   UNK N   1      35.538   9.466  18.810  0.00  0.00    -0.321 N 
ATOM      8  HN  UNK N   1      35.636   8.587  19.319  1.00  0.00     0.169 HD
HETATM    9  C   UNK N   1      35.546   9.459  17.432  0.00  0.00     0.147 A 
HETATM   10  N   UNK N   1      35.455  10.640  16.738  0.00  0.00    -0.321 N 
ATOM     11  HN  UNK N   1      35.486  10.651  15.718  1.00  0.00     0.169 HD
HETATM   12  C   UNK N   1      35.324  11.790  17.444  0.00  0.00     0.143 A 
ENDROOT
BRANCH   1  13
HETATM   13  C   UNK N   1      35.378  13.599  15.640  0.00  0.00     0.262 C 
HETATM   14  O   UNK N   1      34.607  12.821  14.755  0.00  0.00    -0.353 OA
HETATM   15  C   UNK N   1      35.036  13.205  13.468  0.00  0.00     0.180 C 
HETATM   16  C   UNK N   1      36.431  13.843  13.607  0.00  0.00     0.182 C 
HETATM   17  C   UNK N   1      36.772  13.557  15.043  0.00  0.00     0.198 C 
BRANCH  15  18
HETATM   18  C   UNK N   1      34.926  12.017  12.497  0.00  0.00     0.215 C 
BRANCH  18  19
HETATM   19  O   UNK N   1      34.902  10.736  13.107  0.00  0.00    -0.294 OA
BRANCH  19  20
HETATM   20  P   UNK N   1      36.243   9.747  12.547  0.00  0.00     0.390 P 
HETATM   21  O   UNK N   1      36.149  10.867  11.476  0.00  0.00    -0.632 OA
BRANCH  20  22
HETATM   22  O   UNK N   1      37.863  10.354  12.443  0.00  0.00    -0.307 OA
HETATM   23  H   UNK N   1      38.589   9.764  12.190  0.00  0.00     0.222 HD
ENDBRANCH  20  22
BRANCH  20  24
HETATM   24  O   UNK N   1      36.735  10.430  14.066  0.00  0.00    -0.307 OA
HETATM   25  H   UNK N   1      37.429  10.176  14.694  0.00  0.00     0.222 HD
ENDBRANCH  20  24
ENDBRANCH  19  20
ENDBRANCH  18  19
ENDBRANCH  15  18
BRANCH  16  26
HETATM   26  O   UNK N   1      37.402  13.344  12.733  0.00  0.00    -0.390 OA
HETATM   27  H   UNK N   1      37.591  13.479  11.792  0.00  0.00     0.210 HD
ENDBRANCH  16  26
BRANCH  17  28
HETATM   28  O   UNK N   1      37.635  14.524  15.562  0.00  0.00    -0.388 OA
HETATM   29  H   UNK N   1      37.774  15.439  15.270  0.00  0.00     0.210 HD
ENDBRANCH  17  28
ENDBRANCH   1  13
BRANCH   6  30
HETATM   30  N   UNK N   1      35.458  10.689  20.915  0.00  0.00    -0.374 N 
HETATM   31  H   UNK N   1      36.118  11.273  21.355  0.00  0.00     0.161 HD
BRANCH  30  32
HETATM   32  C   UNK N   1      34.564   9.894  21.709  0.00  0.00     0.121 C 
BRANCH  32  33
HETATM   33  C   UNK N   1      33.222  10.570  21.847  0.00  0.00     0.023 C 
BRANCH  33  34
HETATM   34  C   UNK N   1      32.129   9.531  21.707  0.00  0.00    -0.021 C 
HETATM   35  C   UNK N   1      32.301   8.796  20.397  0.00  0.00     0.009 C 
HETATM   36  C   UNK N   1      32.202   8.536  22.851  0.00  0.00     0.009 C 
ENDBRANCH  33  34
ENDBRANCH  32  33
ENDBRANCH  30  32
ENDBRANCH   6  30
BRANCH   9  37
HETATM   37  S   UNK N   1      35.742   7.895  16.561  0.00  0.00    -0.098 SA
HETATM   38  C   UNK N   1      35.205   6.823  17.932  0.00  0.00     0.099 C 
ENDBRANCH   9  37
TORSDOF 13
ENDMDL
MODEL 7
REMARK VINA RESULT:      -6.4      3.619      5.865
REMARK  13 active torsions:
REMARK  status: ('A' for Active; 'I' for Inactive)
REMARK    1  A    between atoms: O_1  and  P_2 
REMARK    2  A    between atoms: P_2  and  O_4 
REMARK    3  A    between atoms: P_2  and  O_5 
REMARK    4  A    between atoms: O_5  and  C_6 
REMARK    5  A    between atoms: C_7  and  C_6 
REMARK    6  A    between atoms: C_9  and  O_10 
REMARK    7  A    between atoms: C_11  and  O_12 
REMARK    8  A    between atoms: C_13  and  N_14 
REMARK    9  A    between atoms: C_19  and  N_20 
REMARK   10  A    between atoms: N_20  and  C_29 
REMARK   11  A    between atoms: C_23  and  S_27 
REMARK   12  A    between atoms: C_29  and  C_30 
REMARK   13  A    between atoms: C_30  and  C_31 
ROOT
HETATM    1  N   UNK N   1      35.853  15.268  10.273  0.00  0.00    -0.297 N 
HETATM    2  C   UNK N   1      35.581  16.468  10.853  0.00  0.00     0.188 A 
HETATM    3  N   UNK N   1      34.758  17.220  10.083  0.00  0.00    -0.346 N 
ATOM      4  HN  UNK N   1      34.407  18.159  10.272  1.00  0.00     0.167 HD
HETATM    5  C   UNK N   1      34.509  16.446   9.013  0.00  0.00     0.122 A 
HETATM    6  C   UNK N   1      33.671  16.688   7.954  0.00  0.00     0.134 A 
HETATM    7  N   UNK N   1      33.531  15.704   7.009  0.00  0.00    -0.321 N 
ATOM      8  HN  UNK N   1      32.905  15.852   6.217  1.00  0.00     0.169 HD
HETATM    9  C   UNK N   1      34.227  14.519   7.116  0.00  0.00     0.147 A 
HETATM   10  N   UNK N   1      35.040  14.295   8.198  0.00  0.00    -0.321 N 
ATOM     11  HN  UNK N   1      35.540  13.411   8.302  1.00  0.00     0.169 HD
HETATM   12  C   UNK N   1      35.161  15.277   9.125  0.00  0.00     0.143 A 
ENDROOT
BRANCH   1  13
HETATM   13  C   UNK N   1      36.631  14.214  10.924  0.00  0.00     0.262 C 
HETATM   14  O   UNK N   1      36.394  12.989  10.271  0.00  0.00    -0.353 OA
HETATM   15  C   UNK N   1      36.901  12.008  11.147  0.00  0.00     0.180 C 
HETATM   16  C   UNK N   1      36.976  12.627  12.556  0.00  0.00     0.182 C 
HETATM   17  C   UNK N   1      36.261  13.936  12.368  0.00  0.00     0.198 C 
BRANCH  15  18
HETATM   18  C   UNK N   1      36.086  10.710  11.018  0.00  0.00     0.215 C 
BRANCH  18  19
HETATM   19  O   UNK N   1      34.697  10.839  11.278  0.00  0.00    -0.294 OA
BRANCH  19  20
HETATM   20  P   UNK N   1      33.751  10.483   9.839  0.00  0.00     0.390 P 
HETATM   21  O   UNK N   1      32.984   9.744  10.967  0.00  0.00    -0.632 OA
BRANCH  20  22
HETATM   22  O   UNK N   1      32.117  11.025   9.648  0.00  0.00    -0.307 OA
HETATM   23  H   UNK N   1      31.781  11.259   8.768  0.00  0.00     0.222 HD
ENDBRANCH  20  22
BRANCH  20  24
HETATM   24  O   UNK N   1      33.646  12.199  10.088  0.00  0.00    -0.307 OA
HETATM   25  H   UNK N   1      33.112  12.882   9.654  0.00  0.00     0.222 HD
ENDBRANCH  20  24
ENDBRANCH  19  20
ENDBRANCH  18  19
ENDBRANCH  15  18
BRANCH  16  26
HETATM   26  O   UNK N   1      36.398  11.860  13.573  0.00  0.00    -0.390 OA
HETATM   27  H   UNK N   1      35.595  11.953  14.109  0.00  0.00     0.210 HD
ENDBRANCH  16  26
BRANCH  17  28
HETATM   28  O   UNK N   1      36.726  14.901  13.264  0.00  0.00    -0.388 OA
HETATM   29  H   UNK N   1      36.388  15.795  13.429  0.00  0.00     0.210 HD
ENDBRANCH  17  28
ENDBRANCH   1  13
BRANCH   6  30
HETATM   30  N   UNK N   1      32.921  17.882   7.912  0.00  0.00    -0.374 N 
HETATM   31  H   UNK N   1      33.259  18.654   7.402  0.00  0.00     0.161 HD
BRANCH  30  32
HETATM   32  C   UNK N   1      31.669  17.979   8.609  0.00  0.00     0.121 C 
BRANCH  32  33
HETATM   33  C   UNK N   1      30.529  17.518   7.734  0.00  0.00     0.023 C 
BRANCH  33  34
HETATM   34  C   UNK N   1      29.219  17.817   8.431  0.00  0.00    -0.021 C 
HETATM   35  C   UNK N   1      29.498  18.498   9.751  0.00  0.00     0.009 C 
HETATM   36  C   UNK N   1      28.364  18.729   7.570  0.00  0.00     0.009 C 
ENDBRANCH  33  34
ENDBRANCH  32  33
ENDBRANCH  30  32
ENDBRANCH   6  30
BRANCH   9  37
HETATM   37  S   UNK N   1      34.003  13.252   5.856  0.00  0.00    -0.098 SA
HETATM   38  C   UNK N   1      34.558  14.259   4.444  0.00  0.00     0.099 C 
ENDBRANCH   9  37
TORSDOF 13
ENDMDL
MODEL 8
REMARK VINA RESULT:      -6.3      2.601      3.601
REMARK  13 active torsions:
REMARK  status: ('A' for Active; 'I' for Inactive)
REMARK    1  A    between atoms: O_1  and  P_2 
REMARK    2  A    between atoms: P_2  and  O_4 
REMARK    3  A    between atoms: P_2  and  O_5 
REMARK    4  A    between atoms: O_5  and  C_6 
REMARK    5  A    between atoms: C_7  and  C_6 
REMARK    6  A    between atoms: C_9  and  O_10 
REMARK    7  A    between atoms: C_11  and  O_12 
REMARK    8  A    between atoms: C_13  and  N_14 
REMARK    9  A    between atoms: C_19  and  N_20 
REMARK   10  A    between atoms: N_20  and  C_29 
REMARK   11  A    between atoms: C_23  and  S_27 
REMARK   12  A    between atoms: C_29  and  C_30 
REMARK   13  A    between atoms: C_30  and  C_31 
ROOT
HETATM    1  N   UNK N   1      33.488  16.522   8.085  0.00  0.00    -0.297 N 
HETATM    2  C   UNK N   1      32.903  17.626   8.622  0.00  0.00     0.188 A 
HETATM    3  N   UNK N   1      31.641  17.799   8.158  0.00  0.00    -0.346 N 
ATOM      4  HN  UNK N   1      30.987  18.547   8.386  1.00  0.00     0.167 HD
HETATM    5  C   UNK N   1      31.450  16.759   7.329  0.00  0.00     0.122 A 
HETATM    6  C   UNK N   1      30.315  16.402   6.646  0.00  0.00     0.134 A 
HETATM    7  N   UNK N   1      30.346  15.247   5.909  0.00  0.00    -0.321 N 
ATOM      8  HN  UNK N   1      29.512  14.951   5.401  1.00  0.00     0.169 HD
HETATM    9  C   UNK N   1      31.490  14.481   5.845  0.00  0.00     0.147 A 
HETATM   10  N   UNK N   1      32.604  14.849   6.557  0.00  0.00    -0.321 N 
ATOM     11  HN  UNK N   1      33.449  14.277   6.539  1.00  0.00     0.169 HD
HETATM   12  C   UNK N   1      32.552  15.992   7.285  0.00  0.00     0.143 A 
ENDROOT
BRANCH   1  13
HETATM   13  C   UNK N   1      34.809  16.034   8.481  0.00  0.00     0.262 C 
HETATM   14  O   UNK N   1      34.887  14.649   8.237  0.00  0.00    -0.353 OA
HETATM   15  C   UNK N   1      36.031  14.221   8.940  0.00  0.00     0.180 C 
HETATM   16  C   UNK N   1      36.339  15.272  10.024  0.00  0.00     0.182 C 
HETATM   17  C   UNK N   1      35.130  16.163   9.957  0.00  0.00     0.198 C 
BRANCH  15  18
HETATM   18  C   UNK N   1      35.842  12.775   9.430  0.00  0.00     0.215 C 
BRANCH  18  19
HETATM   19  O   UNK N   1      34.610  12.514  10.082  0.00  0.00    -0.294 OA
BRANCH  19  20
HETATM   20  P   UNK N   1      33.662  11.334   9.186  0.00  0.00     0.390 P 
HETATM   21  O   UNK N   1      33.695  10.752  10.624  0.00  0.00    -0.632 OA
BRANCH  20  22
HETATM   22  O   UNK N   1      31.995  11.022   9.542  0.00  0.00    -0.307 OA
HETATM   23  H   UNK N   1      31.756  10.398  10.244  0.00  0.00     0.222 HD
ENDBRANCH  20  22
BRANCH  20  24
HETATM   24  O   UNK N   1      32.750  12.813   9.174  0.00  0.00    -0.307 OA
HETATM   25  H   UNK N   1      32.336  13.321   9.888  0.00  0.00     0.222 HD
ENDBRANCH  20  24
ENDBRANCH  19  20
ENDBRANCH  18  19
ENDBRANCH  15  18
BRANCH  16  26
HETATM   26  O   UNK N   1      36.535  14.759  11.310  0.00  0.00    -0.390 OA
HETATM   27  H   UNK N   1      37.221  14.205  11.714  0.00  0.00     0.210 HD
ENDBRANCH  16  26
BRANCH  17  28
HETATM   28  O   UNK N   1      35.437  17.466  10.355  0.00  0.00    -0.388 OA
HETATM   29  H   UNK N   1      35.277  18.301   9.888  0.00  0.00     0.210 HD
ENDBRANCH  17  28
ENDBRANCH   1  13
BRANCH   6  30
HETATM   30  N   UNK N   1      29.140  17.170   6.790  0.00  0.00    -0.374 N 
HETATM   31  H   UNK N   1      28.569  17.046   7.583  0.00  0.00     0.161 HD
BRANCH  30  32
HETATM   32  C   UNK N   1      28.771  18.131   5.788  0.00  0.00     0.121 C 
BRANCH  32  33
HETATM   33  C   UNK N   1      27.865  19.190   6.365  0.00  0.00     0.023 C 
BRANCH  33  34
HETATM   34  C   UNK N   1      27.841  20.383   5.433  0.00  0.00    -0.021 C 
HETATM   35  C   UNK N   1      27.184  19.987   4.131  0.00  0.00     0.009 C 
HETATM   36  C   UNK N   1      27.060  21.523   6.060  0.00  0.00     0.009 C 
ENDBRANCH  33  34
ENDBRANCH  32  33
ENDBRANCH  30  32
ENDBRANCH   6  30
BRANCH   9  37
HETATM   37  S   UNK N   1      31.481  12.965   4.872  0.00  0.00    -0.098 SA
HETATM   38  C   UNK N   1      33.119  12.368   5.399  0.00  0.00     0.099 C 
ENDBRANCH   9  37
TORSDOF 13
ENDMDL
MODEL 9
REMARK VINA RESULT:      -6.3      2.064      2.875
REMARK  13 active torsions:
REMARK  status: ('A' for Active; 'I' for Inactive)
REMARK    1  A    between atoms: O_1  and  P_2 
REMARK    2  A    between atoms: P_2  and  O_4 
REMARK    3  A    between atoms: P_2  and  O_5 
REMARK    4  A    between atoms: O_5  and  C_6 
REMARK    5  A    between atoms: C_7  and  C_6 
REMARK    6  A    between atoms: C_9  and  O_10 
REMARK    7  A    between atoms: C_11  and  O_12 
REMARK    8  A    between atoms: C_13  and  N_14 
REMARK    9  A    between atoms: C_19  and  N_20 
REMARK   10  A    between atoms: N_20  and  C_29 
REMARK   11  A    between atoms: C_23  and  S_27 
REMARK   12  A    between atoms: C_29  and  C_30 
REMARK   13  A    between atoms: C_30  and  C_31 
ROOT
HETATM    1  N   UNK N   1      31.843  16.680   7.750  0.00  0.00    -0.297 N 
HETATM    2  C   UNK N   1      31.089  17.619   8.381  0.00  0.00     0.188 A 
HETATM    3  N   UNK N   1      29.839  17.690   7.859  0.00  0.00    -0.346 N 
ATOM      4  HN  UNK N   1      29.079  18.311   8.135  1.00  0.00     0.167 HD
HETATM    5  C   UNK N   1      29.832  16.754   6.895  0.00  0.00     0.122 A 
HETATM    6  C   UNK N   1      28.790  16.350   6.098  0.00  0.00     0.134 A 
HETATM    7  N   UNK N   1      29.014  15.316   5.226  0.00  0.00    -0.321 N 
ATOM      8  HN  UNK N   1      28.254  14.987   4.630  1.00  0.00     0.169 HD
HETATM    9  C   UNK N   1      30.252  14.718   5.143  0.00  0.00     0.147 A 
HETATM   10  N   UNK N   1      31.270  15.127   5.968  0.00  0.00    -0.321 N 
ATOM     11  HN  UNK N   1      32.185  14.675   5.935  1.00  0.00     0.169 HD
HETATM   12  C   UNK N   1      31.028  16.147   6.828  0.00  0.00     0.143 A 
ENDROOT
BRANCH   1  13
HETATM   13  C   UNK N   1      33.197  16.316   8.169  0.00  0.00     0.262 C 
HETATM   14  O   UNK N   1      33.126  15.327   9.168  0.00  0.00    -0.353 OA
HETATM   15  C   UNK N   1      34.417  15.286   9.731  0.00  0.00     0.180 C 
HETATM   16  C   UNK N   1      35.114  16.622   9.406  0.00  0.00     0.182 C 
HETATM   17  C   UNK N   1      33.994  17.432   8.816  0.00  0.00     0.198 C 
BRANCH  15  18
HETATM   18  C   UNK N   1      34.335  14.908  11.219  0.00  0.00     0.215 C 
BRANCH  18  19
HETATM   19  O   UNK N   1      35.270  13.931  11.648  0.00  0.00    -0.294 OA
BRANCH  19  20
HETATM   20  P   UNK N   1      36.138  14.475  13.077  0.00  0.00     0.390 P 
HETATM   21  O   UNK N   1      35.070  13.507  13.651  0.00  0.00    -0.632 OA
BRANCH  20  22
HETATM   22  O   UNK N   1      37.056  13.393  14.071  0.00  0.00    -0.307 OA
HETATM   23  H   UNK N   1      36.654  12.996  14.859  0.00  0.00     0.222 HD
ENDBRANCH  20  22
BRANCH  20  24
HETATM   24  O   UNK N   1      37.279  13.584  12.115  0.00  0.00    -0.307 OA
HETATM   25  H   UNK N   1      37.907  13.867  11.433  0.00  0.00     0.222 HD
ENDBRANCH  20  24
ENDBRANCH  19  20
ENDBRANCH  18  19
ENDBRANCH  15  18
BRANCH  16  26
HETATM   26  O   UNK N   1      35.703  17.266  10.499  0.00  0.00    -0.390 OA
HETATM   27  H   UNK N   1      36.618  17.468  10.745  0.00  0.00     0.210 HD
ENDBRANCH  16  26
BRANCH  17  28
HETATM   28  O   UNK N   1      34.475  18.379   7.910  0.00  0.00    -0.388 OA
HETATM   29  H   UNK N   1      34.992  18.243   7.100  0.00  0.00     0.210 HD
ENDBRANCH  17  28
ENDBRANCH   1  13
BRANCH   6  30
HETATM   30  N   UNK N   1      27.517  16.936   6.259  0.00  0.00    -0.374 N 
HETATM   31  H   UNK N   1      26.872  16.539   6.890  0.00  0.00     0.161 HD
BRANCH  30  32
HETATM   32  C   UNK N   1      27.155  18.106   5.508  0.00  0.00     0.121 C 
BRANCH  32  33
HETATM   33  C   UNK N   1      27.368  19.356   6.325  0.00  0.00     0.023 C 
BRANCH  33  34
HETATM   34  C   UNK N   1      27.536  20.535   5.390  0.00  0.00    -0.021 C 
HETATM   35  C   UNK N   1      26.845  20.237   4.080  0.00  0.00     0.009 C 
HETATM   36  C   UNK N   1      26.927  21.782   6.004  0.00  0.00     0.009 C 
ENDBRANCH  33  34
ENDBRANCH  32  33
ENDBRANCH  30  32
ENDBRANCH   6  30
BRANCH   9  37
HETATM   37  S   UNK N   1      30.496  13.356   3.989  0.00  0.00    -0.098 SA
HETATM   38  C   UNK N   1      31.956  14.051   3.150  0.00  0.00     0.099 C 
ENDBRANCH   9  37
TORSDOF 13
ENDMDL
