REMARK  2 active torsions:
REMARK  status: ('A' for Active; 'I' for Inactive)
REMARK    1  A    between atoms: C_2  and  C_4 
REMARK    2  A    between atoms: C_5  and  C_6 
ROOT
HETATM    1  C   UNK N   1      -0.151   0.105   0.048  0.00  0.00    -0.008 A 
HETATM    2  C   UNK N   1      -0.968   1.227  -0.085  0.00  0.00     0.103 A 
HETATM    3  C   UNK N   1       1.147   0.566   0.129  0.00  0.00     0.002 A 
HETATM    4  N   UNK N   1      -0.190   2.333  -0.086  0.00  0.00    -0.360 N 
HETATM    5  C   UNK N   1      -0.674   3.697  -0.206  0.00  0.00     0.156 C 
HETATM    6  C   UNK N   1       1.085   1.931   0.046  0.00  0.00     0.045 A 
HETATM    7  C   UNK N   1       2.357  -0.108   0.273  0.00  0.00     0.014 A 
HETATM    8  C   UNK N   1       2.230   2.725   0.102  0.00  0.00     0.030 A 
HETATM    9  C   UNK N   1       3.533   0.664   0.334  0.00  0.00     0.001 A 
HETATM   10  C   UNK N   1       3.469   2.074   0.250  0.00  0.00     0.002 A 
ENDROOT
BRANCH   1  11
HETATM   11  C   UNK N   1      -0.601  -1.292   0.085  0.00  0.00     0.017 C 
HETATM   12  C   UNK N   1      -1.906  -1.566   0.129  0.00  0.00     0.050 C 
BRANCH  12  13
HETATM   13  C   UNK N   1      -2.436  -2.935   0.084  0.00  0.00     0.145 C 
HETATM   14  O   UNK N   1      -3.635  -3.112   0.214  0.00  0.00    -0.294 OA
HETATM   15  C   UNK N   1      -1.542  -4.106  -0.159  0.00  0.00     0.096 C 
ENDBRANCH  12  13
ENDBRANCH   1  11
TORSDOF 2
