MODEL 1
REMARK VINA RESULT:      -6.3      0.000      0.000
REMARK  2 active torsions:
REMARK  status: ('A' for Active; 'I' for Inactive)
REMARK    1  A    between atoms: C_2  and  C_4 
REMARK    2  A    between atoms: C_5  and  C_6 
ROOT
HETATM    1  C   UNK N   1      27.394  24.339  -4.314  0.00  0.00    -0.008 A 
HETATM    2  C   UNK N   1      27.144  23.734  -5.545  0.00  0.00     0.103 A 
HETATM    3  C   UNK N   1      26.689  25.526  -4.304  0.00  0.00     0.002 A 
HETATM    4  N   UNK N   1      26.315  24.528  -6.259  0.00  0.00    -0.360 N 
HETATM    5  C   UNK N   1      25.824  24.240  -7.595  0.00  0.00     0.156 C 
HETATM    6  C   UNK N   1      26.041  25.607  -5.507  0.00  0.00     0.045 A 
HETATM    7  C   UNK N   1      26.571  26.519  -3.336  0.00  0.00     0.014 A 
HETATM    8  C   UNK N   1      25.223  26.689  -5.831  0.00  0.00     0.030 A 
HETATM    9  C   UNK N   1      25.752  27.626  -3.631  0.00  0.00     0.001 A 
HETATM   10  C   UNK N   1      25.081  27.710  -4.873  0.00  0.00     0.002 A 
ENDROOT
BRANCH   1  11
HETATM   11  C   UNK N   1      28.251  23.807  -3.247  0.00  0.00     0.017 C 
HETATM   12  C   UNK N   1      29.428  23.261  -3.555  0.00  0.00     0.050 C 
BRANCH  12  13
HETATM   13  C   UNK N   1      30.376  22.783  -2.540  0.00  0.00     0.145 C 
HETATM   14  O   UNK N   1      30.216  23.111  -1.377  0.00  0.00    -0.294 OA
HETATM   15  C   UNK N   1      31.504  21.873  -2.899  0.00  0.00     0.096 C 
ENDBRANCH  12  13
ENDBRANCH   1  11
TORSDOF 2
ENDMDL
MODEL 2
REMARK VINA RESULT:      -5.7     12.707     14.978
REMARK  2 active torsions:
REMARK  status: ('A' for Active; 'I' for Inactive)
REMARK    1  A    between atoms: C_2  and  C_4 
REMARK    2  A    between atoms: C_5  and  C_6 
ROOT
HETATM    1  C   UNK N   1      32.193  17.394   7.618  0.00  0.00    -0.008 A 
HETATM    2  C   UNK N   1      30.847  17.209   7.933  0.00  0.00     0.103 A 
HETATM    3  C   UNK N   1      32.293  17.316   6.244  0.00  0.00     0.002 A 
HETATM    4  N   UNK N   1      30.154  17.023   6.787  0.00  0.00    -0.360 N 
HETATM    5  C   UNK N   1      28.722  16.797   6.702  0.00  0.00     0.156 C 
HETATM    6  C   UNK N   1      31.029  17.091   5.770  0.00  0.00     0.045 A 
HETATM    7  C   UNK N   1      33.389  17.431   5.393  0.00  0.00     0.014 A 
HETATM    8  C   UNK N   1      30.766  16.965   4.406  0.00  0.00     0.030 A 
HETATM    9  C   UNK N   1      33.158  17.309   4.009  0.00  0.00     0.001 A 
HETATM   10  C   UNK N   1      31.852  17.079   3.519  0.00  0.00     0.002 A 
ENDROOT
BRANCH   1  11
HETATM   11  C   UNK N   1      33.282  17.619   8.577  0.00  0.00     0.017 C 
HETATM   12  C   UNK N   1      33.859  16.578   9.179  0.00  0.00     0.050 C 
BRANCH  12  13
HETATM   13  C   UNK N   1      35.007  16.716  10.085  0.00  0.00     0.145 C 
HETATM   14  O   UNK N   1      35.635  17.761  10.093  0.00  0.00    -0.294 OA
HETATM   15  C   UNK N   1      35.392  15.620  11.023  0.00  0.00     0.096 C 
ENDBRANCH  12  13
ENDBRANCH   1  11
TORSDOF 2
ENDMDL
MODEL 3
REMARK VINA RESULT:      -5.6     13.407     15.286
REMARK  2 active torsions:
REMARK  status: ('A' for Active; 'I' for Inactive)
REMARK    1  A    between atoms: C_2  and  C_4 
REMARK    2  A    between atoms: C_5  and  C_6 
ROOT
HETATM    1  C   UNK N   1      32.198  17.421   7.832  0.00  0.00    -0.008 A 
HETATM    2  C   UNK N   1      32.181  16.898   6.540  0.00  0.00     0.103 A 
HETATM    3  C   UNK N   1      30.894  17.746   8.146  0.00  0.00     0.002 A 
HETATM    4  N   UNK N   1      30.908  16.906   6.084  0.00  0.00    -0.360 N 
HETATM    5  C   UNK N   1      30.484  16.438   4.776  0.00  0.00     0.156 C 
HETATM    6  C   UNK N   1      30.134  17.416   7.056  0.00  0.00     0.045 A 
HETATM    7  C   UNK N   1      30.332  18.294   9.296  0.00  0.00     0.014 A 
HETATM    8  C   UNK N   1      28.753  17.608   7.036  0.00  0.00     0.030 A 
HETATM    9  C   UNK N   1      28.939  18.501   9.310  0.00  0.00     0.001 A 
HETATM   10  C   UNK N   1      28.154  18.158   8.185  0.00  0.00     0.002 A 
ENDROOT
BRANCH   1  11
HETATM   11  C   UNK N   1      33.384  17.594   8.679  0.00  0.00     0.017 C 
HETATM   12  C   UNK N   1      33.965  16.528   9.231  0.00  0.00     0.050 C 
BRANCH  12  13
HETATM   13  C   UNK N   1      35.200  16.610  10.020  0.00  0.00     0.145 C 
HETATM   14  O   UNK N   1      35.666  17.706  10.281  0.00  0.00    -0.294 OA
HETATM   15  C   UNK N   1      35.872  15.383  10.542  0.00  0.00     0.096 C 
ENDBRANCH  12  13
ENDBRANCH   1  11
TORSDOF 2
ENDMDL
MODEL 4
REMARK VINA RESULT:      -5.5      4.364      5.030
REMARK  2 active torsions:
REMARK  status: ('A' for Active; 'I' for Inactive)
REMARK    1  A    between atoms: C_2  and  C_4 
REMARK    2  A    between atoms: C_5  and  C_6 
ROOT
HETATM    1  C   UNK N   1      26.520  26.781  -7.311  0.00  0.00    -0.008 A 
HETATM    2  C   UNK N   1      27.569  27.404  -7.986  0.00  0.00     0.103 A 
HETATM    3  C   UNK N   1      26.343  27.471  -6.129  0.00  0.00     0.002 A 
HETATM    4  N   UNK N   1      28.015  28.437  -7.237  0.00  0.00    -0.360 N 
HETATM    5  C   UNK N   1      29.102  29.329  -7.602  0.00  0.00     0.156 C 
HETATM    6  C   UNK N   1      27.272  28.477  -6.119  0.00  0.00     0.045 A 
HETATM    7  C   UNK N   1      25.442  27.291  -5.083  0.00  0.00     0.014 A 
HETATM    8  C   UNK N   1      27.368  29.379  -5.060  0.00  0.00     0.030 A 
HETATM    9  C   UNK N   1      25.511  28.186  -3.998  0.00  0.00     0.001 A 
HETATM   10  C   UNK N   1      26.469  29.226  -3.988  0.00  0.00     0.002 A 
ENDROOT
BRANCH   1  11
HETATM   11  C   UNK N   1      25.764  25.613  -7.779  0.00  0.00     0.017 C 
HETATM   12  C   UNK N   1      26.281  24.391  -7.637  0.00  0.00     0.050 C 
BRANCH  12  13
HETATM   13  C   UNK N   1      25.553  23.169  -8.003  0.00  0.00     0.145 C 
HETATM   14  O   UNK N   1      24.496  23.265  -8.603  0.00  0.00    -0.294 OA
HETATM   15  C   UNK N   1      26.101  21.815  -7.691  0.00  0.00     0.096 C 
ENDBRANCH  12  13
ENDBRANCH   1  11
TORSDOF 2
ENDMDL
MODEL 5
REMARK VINA RESULT:      -5.5     22.416     24.814
REMARK  2 active torsions:
REMARK  status: ('A' for Active; 'I' for Inactive)
REMARK    1  A    between atoms: C_2  and  C_4 
REMARK    2  A    between atoms: C_5  and  C_6 
ROOT
HETATM    1  C   UNK N   1      35.298  12.525  15.616  0.00  0.00    -0.008 A 
HETATM    2  C   UNK N   1      35.839  13.711  15.122  0.00  0.00     0.103 A 
HETATM    3  C   UNK N   1      34.863  11.801  14.524  0.00  0.00     0.002 A 
HETATM    4  N   UNK N   1      35.735  13.707  13.773  0.00  0.00    -0.360 N 
HETATM    5  C   UNK N   1      36.188  14.771  12.896  0.00  0.00     0.156 C 
HETATM    6  C   UNK N   1      35.148  12.553  13.416  0.00  0.00     0.045 A 
HETATM    7  C   UNK N   1      34.252  10.554  14.430  0.00  0.00     0.014 A 
HETATM    8  C   UNK N   1      34.844  12.111  12.129  0.00  0.00     0.030 A 
HETATM    9  C   UNK N   1      33.932  10.077  13.144  0.00  0.00     0.001 A 
HETATM   10  C   UNK N   1      34.228  10.852  11.999  0.00  0.00     0.002 A 
ENDROOT
BRANCH   1  11
HETATM   11  C   UNK N   1      35.208  12.139  17.030  0.00  0.00     0.017 C 
HETATM   12  C   UNK N   1      35.296  13.074  17.978  0.00  0.00     0.050 C 
BRANCH  12  13
HETATM   13  C   UNK N   1      35.132  12.779  19.407  0.00  0.00     0.145 C 
HETATM   14  O   UNK N   1      34.683  13.641  20.143  0.00  0.00    -0.294 OA
HETATM   15  C   UNK N   1      35.465  11.435  19.965  0.00  0.00     0.096 C 
ENDBRANCH  12  13
ENDBRANCH   1  11
TORSDOF 2
ENDMDL
MODEL 6
REMARK VINA RESULT:      -5.4      1.985      2.597
REMARK  2 active torsions:
REMARK  status: ('A' for Active; 'I' for Inactive)
REMARK    1  A    between atoms: C_2  and  C_4 
REMARK    2  A    between atoms: C_5  and  C_6 
ROOT
HETATM    1  C   UNK N   1      28.567  25.681  -4.059  0.00  0.00    -0.008 A 
HETATM    2  C   UNK N   1      29.391  26.792  -4.227  0.00  0.00     0.103 A 
HETATM    3  C   UNK N   1      27.359  25.989  -4.652  0.00  0.00     0.002 A 
HETATM    4  N   UNK N   1      28.706  27.744  -4.899  0.00  0.00    -0.360 N 
HETATM    5  C   UNK N   1      29.226  29.050  -5.265  0.00  0.00     0.156 C 
HETATM    6  C   UNK N   1      27.481  27.256  -5.156  0.00  0.00     0.045 A 
HETATM    7  C   UNK N   1      26.184  25.254  -4.786  0.00  0.00     0.014 A 
HETATM    8  C   UNK N   1      26.435  27.883  -5.833  0.00  0.00     0.030 A 
HETATM    9  C   UNK N   1      25.108  25.857  -5.465  0.00  0.00     0.001 A 
HETATM   10  C   UNK N   1      25.235  27.165  -5.987  0.00  0.00     0.002 A 
ENDROOT
BRANCH   1  11
HETATM   11  C   UNK N   1      28.927  24.433  -3.374  0.00  0.00     0.017 C 
HETATM   12  C   UNK N   1      30.204  24.050  -3.325  0.00  0.00     0.050 C 
BRANCH  12  13
HETATM   13  C   UNK N   1      30.652  22.861  -2.588  0.00  0.00     0.145 C 
HETATM   14  O   UNK N   1      30.619  22.870  -1.370  0.00  0.00    -0.294 OA
HETATM   15  C   UNK N   1      31.107  21.631  -3.303  0.00  0.00     0.096 C 
ENDBRANCH  12  13
ENDBRANCH   1  11
TORSDOF 2
ENDMDL
MODEL 7
REMARK VINA RESULT:      -5.3      2.980      4.582
REMARK  2 active torsions:
REMARK  status: ('A' for Active; 'I' for Inactive)
REMARK    1  A    between atoms: C_2  and  C_4 
REMARK    2  A    between atoms: C_5  and  C_6 
ROOT
HETATM    1  C   UNK N   1      26.590  24.780  -5.804  0.00  0.00    -0.008 A 
HETATM    2  C   UNK N   1      27.839  24.388  -5.325  0.00  0.00     0.103 A 
HETATM    3  C   UNK N   1      26.308  26.001  -5.227  0.00  0.00     0.002 A 
HETATM    4  N   UNK N   1      28.300  25.341  -4.483  0.00  0.00    -0.360 N 
HETATM    5  C   UNK N   1      29.571  25.295  -3.782  0.00  0.00     0.156 C 
HETATM    6  C   UNK N   1      27.375  26.314  -4.428  0.00  0.00     0.045 A 
HETATM    7  C   UNK N   1      25.209  26.848  -5.350  0.00  0.00     0.014 A 
HETATM    8  C   UNK N   1      27.424  27.498  -3.694  0.00  0.00     0.030 A 
HETATM    9  C   UNK N   1      25.226  28.053  -4.622  0.00  0.00     0.001 A 
HETATM   10  C   UNK N   1      26.329  28.377  -3.799  0.00  0.00     0.002 A 
ENDROOT
BRANCH   1  11
HETATM   11  C   UNK N   1      25.745  24.023  -6.736  0.00  0.00     0.017 C 
HETATM   12  C   UNK N   1      25.954  22.716  -6.907  0.00  0.00     0.050 C 
BRANCH  12  13
HETATM   13  C   UNK N   1      25.101  21.876  -7.757  0.00  0.00     0.145 C 
HETATM   14  O   UNK N   1      24.035  22.319  -8.151  0.00  0.00    -0.294 OA
HETATM   15  C   UNK N   1      25.531  20.510  -8.180  0.00  0.00     0.096 C 
ENDBRANCH  12  13
ENDBRANCH   1  11
TORSDOF 2
ENDMDL
MODEL 8
REMARK VINA RESULT:      -5.3     22.193     25.630
REMARK  2 active torsions:
REMARK  status: ('A' for Active; 'I' for Inactive)
REMARK    1  A    between atoms: C_2  and  C_4 
REMARK    2  A    between atoms: C_5  and  C_6 
ROOT
HETATM    1  C   UNK N   1      35.256  11.820  15.545  0.00  0.00    -0.008 A 
HETATM    2  C   UNK N   1      35.324  10.428  15.548  0.00  0.00     0.103 A 
HETATM    3  C   UNK N   1      35.239  12.221  16.865  0.00  0.00     0.002 A 
HETATM    4  N   UNK N   1      35.347   9.997  16.830  0.00  0.00    -0.360 N 
HETATM    5  C   UNK N   1      35.416   8.607  17.245  0.00  0.00     0.156 C 
HETATM    6  C   UNK N   1      35.298  11.081  17.622  0.00  0.00     0.045 A 
HETATM    7  C   UNK N   1      35.182  13.486  17.444  0.00  0.00     0.014 A 
HETATM    8  C   UNK N   1      35.306  11.123  19.015  0.00  0.00     0.030 A 
HETATM    9  C   UNK N   1      35.189  13.564  18.849  0.00  0.00     0.001 A 
HETATM   10  C   UNK N   1      35.252  12.387  19.631  0.00  0.00     0.002 A 
ENDROOT
BRANCH   1  11
HETATM   11  C   UNK N   1      35.204  12.680  14.355  0.00  0.00     0.017 C 
HETATM   12  C   UNK N   1      36.336  13.156  13.834  0.00  0.00     0.050 C 
BRANCH  12  13
HETATM   13  C   UNK N   1      36.373  13.952  12.600  0.00  0.00     0.145 C 
HETATM   14  O   UNK N   1      35.918  15.083  12.609  0.00  0.00    -0.294 OA
HETATM   15  C   UNK N   1      36.992  13.419  11.350  0.00  0.00     0.096 C 
ENDBRANCH  12  13
ENDBRANCH   1  11
TORSDOF 2
ENDMDL
MODEL 9
REMARK VINA RESULT:      -5.3     16.317     17.340
REMARK  2 active torsions:
REMARK  status: ('A' for Active; 'I' for Inactive)
REMARK    1  A    between atoms: C_2  and  C_4 
REMARK    2  A    between atoms: C_5  and  C_6 
ROOT
HETATM    1  C   UNK N   1      21.267  14.736   8.569  0.00  0.00    -0.008 A 
HETATM    2  C   UNK N   1      20.132  15.320   9.130  0.00  0.00     0.103 A 
HETATM    3  C   UNK N   1      21.696  15.582   7.568  0.00  0.00     0.002 A 
HETATM    4  N   UNK N   1      19.879  16.483   8.488  0.00  0.00    -0.360 N 
HETATM    5  C   UNK N   1      18.778  17.382   8.785  0.00  0.00     0.156 C 
HETATM    6  C   UNK N   1      20.826  16.640   7.548  0.00  0.00     0.045 A 
HETATM    7  C   UNK N   1      22.775  15.501   6.691  0.00  0.00     0.014 A 
HETATM    8  C   UNK N   1      20.972  17.696   6.649  0.00  0.00     0.030 A 
HETATM    9  C   UNK N   1      22.952  16.552   5.771  0.00  0.00     0.001 A 
HETATM   10  C   UNK N   1      22.055  17.645   5.752  0.00  0.00     0.002 A 
ENDROOT
BRANCH   1  11
HETATM   11  C   UNK N   1      21.872  13.461   8.974  0.00  0.00     0.017 C 
HETATM   12  C   UNK N   1      22.230  13.272  10.245  0.00  0.00     0.050 C 
BRANCH  12  13
HETATM   13  C   UNK N   1      22.763  11.997  10.743  0.00  0.00     0.145 C 
HETATM   14  O   UNK N   1      22.913  11.072   9.964  0.00  0.00    -0.294 OA
HETATM   15  C   UNK N   1      23.162  11.827  12.172  0.00  0.00     0.096 C 
ENDBRANCH  12  13
ENDBRANCH   1  11
TORSDOF 2
ENDMDL
