MODEL 1
REMARK VINA RESULT:      -5.9      0.000      0.000
REMARK  4 active torsions:
REMARK  status: ('A' for Active; 'I' for Inactive)
REMARK    1  A    between atoms: C_7  and  C_6 
REMARK    2  A    between atoms: C_7  and  C_17 
REMARK    3  A    between atoms: N_8  and  C_17 
REMARK       I    between atoms: C_9  and  N_8 
REMARK    4  A    between atoms: O_14  and  C_13 
ROOT
HETATM    1  C   UNK N   1      19.950  16.195   3.970  0.00  0.00     0.082 A 
HETATM    2  C   UNK N   1      20.053  18.177   3.145  0.00  0.00     0.044 A 
HETATM    3  C   UNK N   1      19.746  19.377   2.520  0.00  0.00     0.033 A 
HETATM    4  C   UNK N   1      20.757  20.350   2.439  0.00  0.00     0.039 A 
HETATM    5  C   UNK N   1      21.239  16.651   4.208  0.00  0.00    -0.011 A 
HETATM    6  I   UNK N   1      19.195  14.307   4.534  0.00  0.00    -0.024 I 
HETATM    7  N   UNK N   1      19.224  17.131   3.318  0.00  0.00    -0.350 N 
HETATM    8  C   UNK N   1      22.046  20.103   2.983  0.00  0.00     0.069 A 
HETATM    9  C   UNK N   1      22.317  18.869   3.611  0.00  0.00     0.051 A 
HETATM   10  C   UNK N   1      21.293  17.923   3.675  0.00  0.00     0.002 A 
HETATM   11  H   UNK N   1      18.285  17.061   3.031  0.00  0.00     0.166 HD
ENDROOT
BRANCH   5  12
HETATM   12  C   UNK N   1      22.272  15.832   4.914  0.00  0.00     0.062 C 
BRANCH  12  13
HETATM   13  C   UNK N   1      22.587  16.188   6.357  0.00  0.00     0.127 C 
BRANCH  13  14
HETATM   14  N   UNK N   1      21.409  16.250   7.219  0.00  0.00    -0.361 N 
HETATM   15  C   UNK N   1      20.706  17.360   7.593  0.00  0.00     0.213 C 
HETATM   16  O   UNK N   1      21.019  18.478   7.215  0.00  0.00    -0.274 OA
HETATM   17  C   UNK N   1      19.525  17.209   8.485  0.00  0.00     0.117 C 
HETATM   18  H   UNK N   1      21.084  15.390   7.573  0.00  0.00     0.162 HD
ENDBRANCH  13  14
ENDBRANCH  12  13
ENDBRANCH   5  12
BRANCH   8  19
HETATM   19  O   UNK N   1      23.027  21.034   2.911  0.00  0.00    -0.356 OA
HETATM   20  C   UNK N   1      24.367  20.715   2.897  0.00  0.00     0.210 C 
ENDBRANCH   8  19
TORSDOF 4
ENDMDL
MODEL 2
REMARK VINA RESULT:      -5.9     13.194     13.598
REMARK  4 active torsions:
REMARK  status: ('A' for Active; 'I' for Inactive)
REMARK    1  A    between atoms: C_7  and  C_6 
REMARK    2  A    between atoms: C_7  and  C_17 
REMARK    3  A    between atoms: N_8  and  C_17 
REMARK       I    between atoms: C_9  and  N_8 
REMARK    4  A    between atoms: O_14  and  C_13 
ROOT
HETATM    1  C   UNK N   1      26.397  24.040  -6.357  0.00  0.00     0.082 A 
HETATM    2  C   UNK N   1      25.657  25.942  -5.683  0.00  0.00     0.044 A 
HETATM    3  C   UNK N   1      24.953  27.132  -5.568  0.00  0.00     0.033 A 
HETATM    4  C   UNK N   1      25.253  27.966  -4.477  0.00  0.00     0.039 A 
HETATM    5  C   UNK N   1      27.100  24.345  -5.200  0.00  0.00    -0.011 A 
HETATM    6  I   UNK N   1      26.649  22.296  -7.519  0.00  0.00    -0.024 I 
HETATM    7  N   UNK N   1      25.513  25.018  -6.653  0.00  0.00    -0.350 N 
HETATM    8  C   UNK N   1      26.245  27.592  -3.530  0.00  0.00     0.069 A 
HETATM    9  C   UNK N   1      26.937  26.373  -3.684  0.00  0.00     0.051 A 
HETATM   10  C   UNK N   1      26.617  25.567  -4.777  0.00  0.00     0.002 A 
HETATM   11  H   UNK N   1      24.893  25.050  -7.417  0.00  0.00     0.166 HD
ENDROOT
BRANCH   5  12
HETATM   12  C   UNK N   1      28.149  23.446  -4.627  0.00  0.00     0.062 C 
BRANCH  12  13
HETATM   13  C   UNK N   1      29.476  24.075  -4.234  0.00  0.00     0.127 C 
BRANCH  13  14
HETATM   14  N   UNK N   1      30.551  23.106  -4.039  0.00  0.00    -0.361 N 
HETATM   15  C   UNK N   1      31.060  22.651  -2.855  0.00  0.00     0.213 C 
HETATM   16  O   UNK N   1      30.633  23.040  -1.780  0.00  0.00    -0.274 OA
HETATM   17  C   UNK N   1      32.165  21.655  -2.871  0.00  0.00     0.117 C 
HETATM   18  H   UNK N   1      30.958  22.736  -4.856  0.00  0.00     0.162 HD
ENDBRANCH  13  14
ENDBRANCH  12  13
ENDBRANCH   5  12
BRANCH   8  19
HETATM   19  O   UNK N   1      26.541  28.389  -2.475  0.00  0.00    -0.356 OA
HETATM   20  C   UNK N   1      27.615  29.249  -2.461  0.00  0.00     0.210 C 
ENDBRANCH   8  19
TORSDOF 4
ENDMDL
MODEL 3
REMARK VINA RESULT:      -5.9     14.966     17.338
REMARK  4 active torsions:
REMARK  status: ('A' for Active; 'I' for Inactive)
REMARK    1  A    between atoms: C_7  and  C_6 
REMARK    2  A    between atoms: C_7  and  C_17 
REMARK    3  A    between atoms: N_8  and  C_17 
REMARK       I    between atoms: C_9  and  N_8 
REMARK    4  A    between atoms: O_14  and  C_13 
ROOT
HETATM    1  C   UNK N   1      34.874  13.383  11.193  0.00  0.00     0.082 A 
HETATM    2  C   UNK N   1      35.281  13.059  13.278  0.00  0.00     0.044 A 
HETATM    3  C   UNK N   1      35.323  12.531  14.561  0.00  0.00     0.033 A 
HETATM    4  C   UNK N   1      36.053  13.234  15.534  0.00  0.00     0.039 A 
HETATM    5  C   UNK N   1      35.666  14.445  11.606  0.00  0.00    -0.011 A 
HETATM    6  I   UNK N   1      34.124  13.102   9.240  0.00  0.00    -0.024 I 
HETATM    7  N   UNK N   1      34.638  12.534  12.218  0.00  0.00    -0.350 N 
HETATM    8  C   UNK N   1      36.721  14.445  15.205  0.00  0.00     0.069 A 
HETATM    9  C   UNK N   1      36.653  14.947  13.889  0.00  0.00     0.051 A 
HETATM   10  C   UNK N   1      35.920  14.226  12.945  0.00  0.00     0.002 A 
HETATM   11  H   UNK N   1      34.108  11.705  12.194  0.00  0.00     0.166 HD
ENDROOT
BRANCH   5  12
HETATM   12  C   UNK N   1      36.092  15.545  10.687  0.00  0.00     0.062 C 
BRANCH  12  13
HETATM   13  C   UNK N   1      35.309  16.847  10.739  0.00  0.00     0.127 C 
BRANCH  13  14
HETATM   14  N   UNK N   1      34.431  17.052   9.589  0.00  0.00    -0.361 N 
HETATM   15  C   UNK N   1      34.494  18.052   8.659  0.00  0.00     0.213 C 
HETATM   16  O   UNK N   1      35.347  18.923   8.708  0.00  0.00    -0.274 OA
HETATM   17  C   UNK N   1      33.498  18.083   7.555  0.00  0.00     0.117 C 
HETATM   18  H   UNK N   1      33.710  16.393   9.470  0.00  0.00     0.162 HD
ENDBRANCH  13  14
ENDBRANCH  12  13
ENDBRANCH   5  12
BRANCH   8  19
HETATM   19  O   UNK N   1      37.427  15.130  16.136  0.00  0.00    -0.356 OA
HETATM   20  C   UNK N   1      36.895  15.523  17.343  0.00  0.00     0.210 C 
ENDBRANCH   8  19
TORSDOF 4
ENDMDL
MODEL 4
REMARK VINA RESULT:      -5.7      8.044      9.757
REMARK  4 active torsions:
REMARK  status: ('A' for Active; 'I' for Inactive)
REMARK    1  A    between atoms: C_7  and  C_6 
REMARK    2  A    between atoms: C_7  and  C_17 
REMARK    3  A    between atoms: N_8  and  C_17 
REMARK       I    between atoms: C_9  and  N_8 
REMARK    4  A    between atoms: O_14  and  C_13 
ROOT
HETATM    1  C   UNK N   1      28.962  16.799   4.167  0.00  0.00     0.082 A 
HETATM    2  C   UNK N   1      31.076  16.985   3.827  0.00  0.00     0.044 A 
HETATM    3  C   UNK N   1      32.330  17.043   3.235  0.00  0.00     0.033 A 
HETATM    4  C   UNK N   1      33.436  17.274   4.069  0.00  0.00     0.039 A 
HETATM    5  C   UNK N   1      29.539  17.028   5.408  0.00  0.00    -0.011 A 
HETATM    6  I   UNK N   1      26.901  16.526   3.806  0.00  0.00    -0.024 I 
HETATM    7  N   UNK N   1      29.904  16.773   3.198  0.00  0.00    -0.350 N 
HETATM    8  C   UNK N   1      33.266  17.442   5.470  0.00  0.00     0.069 A 
HETATM    9  C   UNK N   1      31.974  17.376   6.032  0.00  0.00     0.051 A 
HETATM   10  C   UNK N   1      30.895  17.145   5.177  0.00  0.00     0.002 A 
HETATM   11  H   UNK N   1      29.763  16.630   2.234  0.00  0.00     0.166 HD
ENDROOT
BRANCH   5  12
HETATM   12  C   UNK N   1      28.742  17.109   6.671  0.00  0.00     0.062 C 
BRANCH  12  13
HETATM   13  C   UNK N   1      28.524  18.485   7.278  0.00  0.00     0.127 C 
BRANCH  13  14
HETATM   14  N   UNK N   1      27.346  19.177   6.760  0.00  0.00    -0.361 N 
HETATM   15  C   UNK N   1      27.267  19.979   5.657  0.00  0.00     0.213 C 
HETATM   16  O   UNK N   1      28.240  20.206   4.955  0.00  0.00    -0.274 OA
HETATM   17  C   UNK N   1      25.963  20.595   5.296  0.00  0.00     0.117 C 
HETATM   18  H   UNK N   1      26.511  19.051   7.266  0.00  0.00     0.162 HD
ENDBRANCH  13  14
ENDBRANCH  12  13
ENDBRANCH   5  12
BRANCH   8  19
HETATM   19  O   UNK N   1      34.326  17.666   6.283  0.00  0.00    -0.356 OA
HETATM   20  C   UNK N   1      34.200  17.930   7.628  0.00  0.00     0.210 C 
ENDBRANCH   8  19
TORSDOF 4
ENDMDL
MODEL 5
REMARK VINA RESULT:      -5.5      9.451     11.326
REMARK  4 active torsions:
REMARK  status: ('A' for Active; 'I' for Inactive)
REMARK    1  A    between atoms: C_7  and  C_6 
REMARK    2  A    between atoms: C_7  and  C_17 
REMARK    3  A    between atoms: N_8  and  C_17 
REMARK       I    between atoms: C_9  and  N_8 
REMARK    4  A    between atoms: O_14  and  C_13 
ROOT
HETATM    1  C   UNK N   1      30.163  17.671   8.162  0.00  0.00     0.082 A 
HETATM    2  C   UNK N   1      32.304  17.531   8.285  0.00  0.00     0.044 A 
HETATM    3  C   UNK N   1      33.623  17.621   8.708  0.00  0.00     0.033 A 
HETATM    4  C   UNK N   1      34.617  17.098   7.865  0.00  0.00     0.039 A 
HETATM    5  C   UNK N   1      30.581  17.039   6.998  0.00  0.00    -0.011 A 
HETATM    6  I   UNK N   1      28.161  18.116   8.662  0.00  0.00    -0.024 I 
HETATM    7  N   UNK N   1      31.219  17.972   8.949  0.00  0.00    -0.350 N 
HETATM    8  C   UNK N   1      34.273  16.498   6.623  0.00  0.00     0.069 A 
HETATM    9  C   UNK N   1      32.920  16.426   6.230  0.00  0.00     0.051 A 
HETATM   10  C   UNK N   1      31.956  16.955   7.089  0.00  0.00     0.002 A 
HETATM   11  H   UNK N   1      31.200  18.420   9.826  0.00  0.00     0.166 HD
ENDROOT
BRANCH   5  12
HETATM   12  C   UNK N   1      29.632  16.588   5.935  0.00  0.00     0.062 C 
BRANCH  12  13
HETATM   13  C   UNK N   1      29.726  17.262   4.576  0.00  0.00     0.127 C 
BRANCH  13  14
HETATM   14  N   UNK N   1      28.991  18.521   4.491  0.00  0.00    -0.361 N 
HETATM   15  C   UNK N   1      27.680  18.701   4.148  0.00  0.00     0.213 C 
HETATM   16  O   UNK N   1      26.955  17.761   3.863  0.00  0.00    -0.274 OA
HETATM   17  C   UNK N   1      27.116  20.077   4.121  0.00  0.00     0.117 C 
HETATM   18  H   UNK N   1      29.499  19.337   4.705  0.00  0.00     0.162 HD
ENDBRANCH  13  14
ENDBRANCH  12  13
ENDBRANCH   5  12
BRANCH   8  19
HETATM   19  O   UNK N   1      35.224  15.990   5.803  0.00  0.00    -0.356 OA
HETATM   20  C   UNK N   1      35.688  14.698   5.899  0.00  0.00     0.210 C 
ENDBRANCH   8  19
TORSDOF 4
ENDMDL
MODEL 6
REMARK VINA RESULT:      -5.5     10.176     11.666
REMARK  4 active torsions:
REMARK  status: ('A' for Active; 'I' for Inactive)
REMARK    1  A    between atoms: C_7  and  C_6 
REMARK    2  A    between atoms: C_7  and  C_17 
REMARK    3  A    between atoms: N_8  and  C_17 
REMARK       I    between atoms: C_9  and  N_8 
REMARK    4  A    between atoms: O_14  and  C_13 
ROOT
HETATM    1  C   UNK N   1      29.661  17.762   5.294  0.00  0.00     0.082 A 
HETATM    2  C   UNK N   1      31.258  17.081   4.027  0.00  0.00     0.044 A 
HETATM    3  C   UNK N   1      32.064  16.806   2.932  0.00  0.00     0.033 A 
HETATM    4  C   UNK N   1      33.266  16.115   3.162  0.00  0.00     0.039 A 
HETATM    5  C   UNK N   1      30.579  17.135   6.125  0.00  0.00    -0.011 A 
HETATM    6  I   UNK N   1      27.854  18.655   5.919  0.00  0.00    -0.024 I 
HETATM    7  N   UNK N   1      30.078  17.729   4.009  0.00  0.00    -0.350 N 
HETATM    8  C   UNK N   1      33.633  15.715   4.475  0.00  0.00     0.069 A 
HETATM    9  C   UNK N   1      32.784  16.014   5.562  0.00  0.00     0.051 A 
HETATM   10  C   UNK N   1      31.598  16.702   5.301  0.00  0.00     0.002 A 
HETATM   11  H   UNK N   1      29.615  18.100   3.223  0.00  0.00     0.166 HD
ENDROOT
BRANCH   5  12
HETATM   12  C   UNK N   1      30.386  17.016   7.603  0.00  0.00     0.062 C 
BRANCH  12  13
HETATM   13  C   UNK N   1      31.207  17.933   8.495  0.00  0.00     0.127 C 
BRANCH  13  14
HETATM   14  N   UNK N   1      32.433  17.320   9.000  0.00  0.00    -0.361 N 
HETATM   15  C   UNK N   1      33.719  17.613   8.644  0.00  0.00     0.213 C 
HETATM   16  O   UNK N   1      33.979  18.471   7.816  0.00  0.00    -0.274 OA
HETATM   17  C   UNK N   1      34.839  16.868   9.280  0.00  0.00     0.117 C 
HETATM   18  H   UNK N   1      32.320  16.614   9.676  0.00  0.00     0.162 HD
ENDBRANCH  13  14
ENDBRANCH  12  13
ENDBRANCH   5  12
BRANCH   8  19
HETATM   19  O   UNK N   1      34.789  15.048   4.707  0.00  0.00    -0.356 OA
HETATM   20  C   UNK N   1      35.385  14.986   5.947  0.00  0.00     0.210 C 
ENDBRANCH   8  19
TORSDOF 4
ENDMDL
MODEL 7
REMARK VINA RESULT:      -5.5     12.749     15.203
REMARK  4 active torsions:
REMARK  status: ('A' for Active; 'I' for Inactive)
REMARK    1  A    between atoms: C_7  and  C_6 
REMARK    2  A    between atoms: C_7  and  C_17 
REMARK    3  A    between atoms: N_8  and  C_17 
REMARK       I    between atoms: C_9  and  N_8 
REMARK    4  A    between atoms: O_14  and  C_13 
ROOT
HETATM    1  C   UNK N   1      26.967  26.921  -7.489  0.00  0.00     0.082 A 
HETATM    2  C   UNK N   1      27.700  28.696  -6.525  0.00  0.00     0.044 A 
HETATM    3  C   UNK N   1      28.406  29.851  -6.219  0.00  0.00     0.033 A 
HETATM    4  C   UNK N   1      28.086  30.516  -5.024  0.00  0.00     0.039 A 
HETATM    5  C   UNK N   1      26.238  27.057  -6.315  0.00  0.00    -0.011 A 
HETATM    6  I   UNK N   1      26.733  25.370  -8.901  0.00  0.00    -0.024 I 
HETATM    7  N   UNK N   1      27.862  27.925  -7.616  0.00  0.00    -0.350 N 
HETATM    8  C   UNK N   1      27.071  30.015  -4.164  0.00  0.00     0.069 A 
HETATM    9  C   UNK N   1      26.377  28.838  -4.512  0.00  0.00     0.051 A 
HETATM   10  C   UNK N   1      26.718  28.199  -5.705  0.00  0.00     0.002 A 
HETATM   11  H   UNK N   1      28.499  28.064  -8.354  0.00  0.00     0.166 HD
ENDROOT
BRANCH   5  12
HETATM   12  C   UNK N   1      25.173  26.092  -5.904  0.00  0.00     0.062 C 
BRANCH  12  13
HETATM   13  C   UNK N   1      25.488  25.141  -4.761  0.00  0.00     0.127 C 
BRANCH  13  14
HETATM   14  N   UNK N   1      26.908  24.822  -4.635  0.00  0.00    -0.361 N 
HETATM   15  C   UNK N   1      27.549  24.283  -3.556  0.00  0.00     0.213 C 
HETATM   16  O   UNK N   1      26.954  24.000  -2.528  0.00  0.00    -0.274 OA
HETATM   17  C   UNK N   1      29.014  24.032  -3.629  0.00  0.00     0.117 C 
HETATM   18  H   UNK N   1      27.469  25.017  -5.420  0.00  0.00     0.162 HD
ENDBRANCH  13  14
ENDBRANCH  12  13
ENDBRANCH   5  12
BRANCH   8  19
HETATM   19  O   UNK N   1      26.755  30.649  -3.010  0.00  0.00    -0.356 OA
HETATM   20  C   UNK N   1      27.698  31.062  -2.096  0.00  0.00     0.210 C 
ENDBRANCH   8  19
TORSDOF 4
ENDMDL
MODEL 8
REMARK VINA RESULT:      -5.3     13.121     15.760
REMARK  4 active torsions:
REMARK  status: ('A' for Active; 'I' for Inactive)
REMARK    1  A    between atoms: C_7  and  C_6 
REMARK    2  A    between atoms: C_7  and  C_17 
REMARK    3  A    between atoms: N_8  and  C_17 
REMARK       I    between atoms: C_9  and  N_8 
REMARK    4  A    between atoms: O_14  and  C_13 
ROOT
HETATM    1  C   UNK N   1      27.412  29.693  -5.014  0.00  0.00     0.082 A 
HETATM    2  C   UNK N   1      28.042  28.839  -6.883  0.00  0.00     0.044 A 
HETATM    3  C   UNK N   1      28.691  28.598  -8.086  0.00  0.00     0.033 A 
HETATM    4  C   UNK N   1      28.308  27.463  -8.819  0.00  0.00     0.039 A 
HETATM    5  C   UNK N   1      26.643  28.552  -5.201  0.00  0.00    -0.011 A 
HETATM    6  I   UNK N   1      27.285  30.996  -3.359  0.00  0.00    -0.024 I 
HETATM    7  N   UNK N   1      28.268  29.868  -6.044  0.00  0.00    -0.350 N 
HETATM    8  C   UNK N   1      27.289  26.597  -8.337  0.00  0.00     0.069 A 
HETATM    9  C   UNK N   1      26.655  26.878  -7.109  0.00  0.00     0.051 A 
HETATM   10  C   UNK N   1      27.057  28.013  -6.403  0.00  0.00     0.002 A 
HETATM   11  H   UNK N   1      28.921  30.596  -6.158  0.00  0.00     0.166 HD
ENDROOT
BRANCH   5  12
HETATM   12  C   UNK N   1      25.607  28.102  -4.223  0.00  0.00     0.062 C 
BRANCH  12  13
HETATM   13  C   UNK N   1      26.047  27.160  -3.114  0.00  0.00     0.127 C 
BRANCH  13  14
HETATM   14  N   UNK N   1      27.144  26.274  -3.496  0.00  0.00    -0.361 N 
HETATM   15  C   UNK N   1      27.082  24.935  -3.763  0.00  0.00     0.213 C 
HETATM   16  O   UNK N   1      26.032  24.316  -3.703  0.00  0.00    -0.274 OA
HETATM   17  C   UNK N   1      28.324  24.208  -4.138  0.00  0.00     0.117 C 
HETATM   18  H   UNK N   1      28.034  26.690  -3.569  0.00  0.00     0.162 HD
ENDBRANCH  13  14
ENDBRANCH  12  13
ENDBRANCH   5  12
BRANCH   8  19
HETATM   19  O   UNK N   1      26.912  25.501  -9.036  0.00  0.00    -0.356 OA
HETATM   20  C   UNK N   1      26.065  24.540  -8.530  0.00  0.00     0.210 C 
ENDBRANCH   8  19
TORSDOF 4
ENDMDL
MODEL 9
REMARK VINA RESULT:      -5.2      7.188      8.681
REMARK  4 active torsions:
REMARK  status: ('A' for Active; 'I' for Inactive)
REMARK    1  A    between atoms: C_7  and  C_6 
REMARK    2  A    between atoms: C_7  and  C_17 
REMARK    3  A    between atoms: N_8  and  C_17 
REMARK       I    between atoms: C_9  and  N_8 
REMARK    4  A    between atoms: O_14  and  C_13 
ROOT
HETATM    1  C   UNK N   1      28.362  18.357   8.233  0.00  0.00     0.082 A 
HETATM    2  C   UNK N   1      27.355  19.896   7.120  0.00  0.00     0.044 A 
HETATM    3  C   UNK N   1      26.650  21.036   6.762  0.00  0.00     0.033 A 
HETATM    4  C   UNK N   1      26.401  21.249   5.396  0.00  0.00     0.039 A 
HETATM    5  C   UNK N   1      28.454  17.996   6.896  0.00  0.00    -0.011 A 
HETATM    6  I   UNK N   1      29.153  17.262   9.855  0.00  0.00    -0.024 I 
HETATM    7  N   UNK N   1      27.688  19.521   8.370  0.00  0.00    -0.350 N 
HETATM    8  C   UNK N   1      26.861  20.321   4.422  0.00  0.00     0.069 A 
HETATM    9  C   UNK N   1      27.573  19.174   4.828  0.00  0.00     0.051 A 
HETATM   10  C   UNK N   1      27.804  18.990   6.193  0.00  0.00     0.002 A 
HETATM   11  H   UNK N   1      27.484  19.996   9.208  0.00  0.00     0.166 HD
ENDROOT
BRANCH   5  12
HETATM   12  C   UNK N   1      29.146  16.752   6.438  0.00  0.00     0.062 C 
BRANCH  12  13
HETATM   13  C   UNK N   1      30.601  16.871   6.018  0.00  0.00     0.127 C 
BRANCH  13  14
HETATM   14  N   UNK N   1      31.546  16.396   7.026  0.00  0.00    -0.361 N 
HETATM   15  C   UNK N   1      31.923  15.107   7.273  0.00  0.00     0.213 C 
HETATM   16  O   UNK N   1      31.475  14.170   6.631  0.00  0.00    -0.274 OA
HETATM   17  C   UNK N   1      32.907  14.830   8.354  0.00  0.00     0.117 C 
HETATM   18  H   UNK N   1      31.959  17.086   7.593  0.00  0.00     0.162 HD
ENDBRANCH  13  14
ENDBRANCH  12  13
ENDBRANCH   5  12
BRANCH   8  19
HETATM   19  O   UNK N   1      26.626  20.517   3.102  0.00  0.00    -0.356 OA
HETATM   20  C   UNK N   1      25.364  20.494   2.551  0.00  0.00     0.210 C 
ENDBRANCH   8  19
TORSDOF 4
ENDMDL
