MODEL 1
REMARK VINA RESULT:      -7.8      0.000      0.000
REMARK  4 active torsions:
REMARK  status: ('A' for Active; 'I' for Inactive)
REMARK    1  A    between atoms: C_7  and  C_18 
REMARK    2  A    between atoms: C_10  and  C_8 
REMARK    3  A    between atoms: C_10  and  O_25 
REMARK    4  A    between atoms: C_17  and  C_19 
ROOT
HETATM    1  C   UNK N   1      30.312  17.354   6.352  0.00  0.00     0.029 A 
HETATM    2  C   UNK N   1      29.617  17.728   7.482  0.00  0.00     0.021 A 
HETATM    3  C   UNK N   1      28.211  18.498   8.997  0.00  0.00     0.103 A 
HETATM    4  C   UNK N   1      31.980  16.381   7.819  0.00  0.00     0.102 A 
HETATM    5  C   UNK N   1      31.519  16.667   6.502  0.00  0.00    -0.009 A 
HETATM    6  C   UNK N   1      28.432  18.398   7.620  0.00  0.00     0.004 A 
HETATM    7  C   UNK N   1      30.080  17.443   8.719  0.00  0.00     0.116 A 
HETATM    8  N   UNK N   1      29.240  17.902   9.668  0.00  0.00    -0.351 N 
HETATM    9  N   UNK N   1      31.247  16.777   8.914  0.00  0.00    -0.351 N 
ATOM     10  HN  UNK N   1      31.575  16.574   9.859  1.00  0.00     0.166 HD
HETATM   11  H   UNK N   1      29.347  17.824  10.643  0.00  0.00     0.166 HD
ENDROOT
BRANCH   6  12
HETATM   12  C   UNK N   1      27.599  18.891   6.498  0.00  0.00    -0.024 A 
HETATM   13  C   UNK N   1      27.485  20.274   6.295  0.00  0.00     0.013 A 
HETATM   14  C   UNK N   1      26.717  20.788   5.259  0.00  0.00     0.019 A 
HETATM   15  C   UNK N   1      26.041  19.927   4.396  0.00  0.00     0.037 A 
HETATM   16  C   UNK N   1      26.145  18.537   4.585  0.00  0.00     0.019 A 
HETATM   17  C   UNK N   1      26.922  18.019   5.633  0.00  0.00     0.013 A 
BRANCH  15  18
HETATM   18  C   UNK N   1      25.230  20.492   3.300  0.00  0.00     0.176 C 
HETATM   19  O   UNK N   1      25.768  20.873   2.270  0.00  0.00    -0.646 OA
BRANCH  18  20
HETATM   20  O   UNK N   1      23.894  20.591   3.425  0.00  0.00    -0.773 OA
HETATM   21  H   UNK N   1      23.388  19.837   3.659  0.00  0.00     0.167 HD
ENDBRANCH  18  20
ENDBRANCH  15  18
ENDBRANCH   6  12
BRANCH   5  22
HETATM   22  C   UNK N   1      32.256  16.270   5.280  0.00  0.00    -0.025 A 
HETATM   23  C   UNK N   1      32.166  17.072   4.126  0.00  0.00     0.012 A 
HETATM   24  C   UNK N   1      32.848  16.726   2.960  0.00  0.00     0.001 A 
HETATM   25  C   UNK N   1      33.630  15.571   2.933  0.00  0.00     0.000 A 
HETATM   26  C   UNK N   1      33.728  14.766   4.072  0.00  0.00     0.001 A 
HETATM   27  C   UNK N   1      33.044  15.112   5.244  0.00  0.00     0.012 A 
ENDBRANCH   5  22
TORSDOF 4
ENDMDL
MODEL 2
REMARK VINA RESULT:      -7.5      4.577      7.860
REMARK  4 active torsions:
REMARK  status: ('A' for Active; 'I' for Inactive)
REMARK    1  A    between atoms: C_7  and  C_18 
REMARK    2  A    between atoms: C_10  and  C_8 
REMARK    3  A    between atoms: C_10  and  O_25 
REMARK    4  A    between atoms: C_17  and  C_19 
ROOT
HETATM    1  C   UNK N   1      30.143  17.333   5.281  0.00  0.00     0.029 A 
HETATM    2  C   UNK N   1      30.863  16.300   4.719  0.00  0.00     0.021 A 
HETATM    3  C   UNK N   1      32.284  14.703   4.176  0.00  0.00     0.103 A 
HETATM    4  C   UNK N   1      28.602  17.142   3.418  0.00  0.00     0.102 A 
HETATM    5  C   UNK N   1      28.988  17.776   4.633  0.00  0.00    -0.009 A 
HETATM    6  C   UNK N   1      32.010  15.681   5.136  0.00  0.00     0.004 A 
HETATM    7  C   UNK N   1      30.472  15.717   3.565  0.00  0.00     0.116 A 
HETATM    8  N   UNK N   1      31.323  14.734   3.207  0.00  0.00    -0.351 N 
HETATM    9  N   UNK N   1      29.357  16.114   2.900  0.00  0.00    -0.351 N 
ATOM     10  HN  UNK N   1      29.083  15.657   2.030  1.00  0.00     0.166 HD
HETATM   11  H   UNK N   1      31.264  14.159   2.411  0.00  0.00     0.166 HD
ENDROOT
BRANCH   6  12
HETATM   12  C   UNK N   1      32.762  16.026   6.366  0.00  0.00    -0.024 A 
HETATM   13  C   UNK N   1      32.623  15.209   7.498  0.00  0.00     0.013 A 
HETATM   14  C   UNK N   1      33.304  15.487   8.674  0.00  0.00     0.019 A 
HETATM   15  C   UNK N   1      34.147  16.594   8.749  0.00  0.00     0.037 A 
HETATM   16  C   UNK N   1      34.299  17.424   7.624  0.00  0.00     0.019 A 
HETATM   17  C   UNK N   1      33.608  17.142   6.434  0.00  0.00     0.013 A 
BRANCH  15  18
HETATM   18  C   UNK N   1      34.864  16.874  10.008  0.00  0.00     0.176 C 
HETATM   19  O   UNK N   1      35.632  17.823  10.080  0.00  0.00    -0.646 OA
BRANCH  18  20
HETATM   20  O   UNK N   1      34.679  16.088  11.085  0.00  0.00    -0.773 OA
HETATM   21  H   UNK N   1      35.358  15.505  11.362  0.00  0.00     0.167 HD
ENDBRANCH  18  20
ENDBRANCH  15  18
ENDBRANCH   6  12
BRANCH   5  22
HETATM   22  C   UNK N   1      28.224  18.887   5.246  0.00  0.00    -0.025 A 
HETATM   23  C   UNK N   1      27.606  19.844   4.418  0.00  0.00     0.012 A 
HETATM   24  C   UNK N   1      26.879  20.900   4.965  0.00  0.00     0.001 A 
HETATM   25  C   UNK N   1      26.762  21.015   6.350  0.00  0.00     0.000 A 
HETATM   26  C   UNK N   1      27.371  20.072   7.185  0.00  0.00     0.001 A 
HETATM   27  C   UNK N   1      28.100  19.010   6.636  0.00  0.00     0.012 A 
ENDBRANCH   5  22
TORSDOF 4
ENDMDL
MODEL 3
REMARK VINA RESULT:      -7.5      6.015      9.436
REMARK  4 active torsions:
REMARK  status: ('A' for Active; 'I' for Inactive)
REMARK    1  A    between atoms: C_7  and  C_18 
REMARK    2  A    between atoms: C_10  and  C_8 
REMARK    3  A    between atoms: C_10  and  O_25 
REMARK    4  A    between atoms: C_17  and  C_19 
ROOT
HETATM    1  C   UNK N   1      32.784  16.246   7.946  0.00  0.00     0.029 A 
HETATM    2  C   UNK N   1      33.907  15.725   7.341  0.00  0.00     0.021 A 
HETATM    3  C   UNK N   1      35.821  14.775   6.791  0.00  0.00     0.103 A 
HETATM    4  C   UNK N   1      32.033  16.928   5.743  0.00  0.00     0.102 A 
HETATM    5  C   UNK N   1      31.817  16.863   7.149  0.00  0.00    -0.009 A 
HETATM    6  C   UNK N   1      34.990  15.080   7.874  0.00  0.00     0.004 A 
HETATM    7  C   UNK N   1      34.086  15.801   6.004  0.00  0.00     0.116 A 
HETATM    8  N   UNK N   1      35.250  15.228   5.637  0.00  0.00    -0.351 N 
HETATM    9  N   UNK N   1      33.174  16.391   5.189  0.00  0.00    -0.351 N 
ATOM     10  HN  UNK N   1      33.332  16.436   4.182  1.00  0.00     0.166 HD
HETATM   11  H   UNK N   1      35.612  15.151   4.725  0.00  0.00     0.166 HD
ENDROOT
BRANCH   6  12
HETATM   12  C   UNK N   1      35.183  14.792   9.315  0.00  0.00    -0.024 A 
HETATM   13  C   UNK N   1      35.698  15.798  10.144  0.00  0.00     0.013 A 
HETATM   14  C   UNK N   1      35.899  15.581  11.500  0.00  0.00     0.019 A 
HETATM   15  C   UNK N   1      35.587  14.345  12.064  0.00  0.00     0.037 A 
HETATM   16  C   UNK N   1      35.070  13.324  11.247  0.00  0.00     0.019 A 
HETATM   17  C   UNK N   1      34.867  13.546   9.875  0.00  0.00     0.013 A 
BRANCH  15  18
HETATM   18  C   UNK N   1      35.807  14.132  13.507  0.00  0.00     0.176 C 
HETATM   19  O   UNK N   1      34.988  13.510  14.168  0.00  0.00    -0.646 OA
BRANCH  18  20
HETATM   20  O   UNK N   1      36.909  14.620  14.106  0.00  0.00    -0.773 OA
HETATM   21  H   UNK N   1      37.653  14.067  14.240  0.00  0.00     0.167 HD
ENDBRANCH  18  20
ENDBRANCH  15  18
ENDBRANCH   6  12
BRANCH   5  22
HETATM   22  C   UNK N   1      30.615  17.419   7.811  0.00  0.00    -0.025 A 
HETATM   23  C   UNK N   1      29.342  17.162   7.266  0.00  0.00     0.012 A 
HETATM   24  C   UNK N   1      28.191  17.671   7.866  0.00  0.00     0.001 A 
HETATM   25  C   UNK N   1      28.298  18.445   9.021  0.00  0.00     0.000 A 
HETATM   26  C   UNK N   1      29.556  18.709   9.573  0.00  0.00     0.001 A 
HETATM   27  C   UNK N   1      30.712  18.198   8.972  0.00  0.00     0.012 A 
ENDBRANCH   5  22
TORSDOF 4
ENDMDL
MODEL 4
REMARK VINA RESULT:      -7.5     12.104     14.728
REMARK  4 active torsions:
REMARK  status: ('A' for Active; 'I' for Inactive)
REMARK    1  A    between atoms: C_7  and  C_18 
REMARK    2  A    between atoms: C_10  and  C_8 
REMARK    3  A    between atoms: C_10  and  O_25 
REMARK    4  A    between atoms: C_17  and  C_19 
ROOT
HETATM    1  C   UNK N   1      27.777  24.082  -6.648  0.00  0.00     0.029 A 
HETATM    2  C   UNK N   1      26.940  24.609  -7.609  0.00  0.00     0.021 A 
HETATM    3  C   UNK N   1      25.586  25.808  -8.871  0.00  0.00     0.103 A 
HETATM    4  C   UNK N   1      27.956  22.099  -8.033  0.00  0.00     0.102 A 
HETATM    5  C   UNK N   1      28.304  22.804  -6.846  0.00  0.00    -0.009 A 
HETATM    6  C   UNK N   1      26.297  25.815  -7.667  0.00  0.00     0.004 A 
HETATM    7  C   UNK N   1      26.627  23.917  -8.725  0.00  0.00     0.116 A 
HETATM    8  N   UNK N   1      25.798  24.625  -9.519  0.00  0.00    -0.351 N 
HETATM    9  N   UNK N   1      27.116  22.671  -8.961  0.00  0.00    -0.351 N 
ATOM     10  HN  UNK N   1      26.864  22.169  -9.812  1.00  0.00     0.166 HD
HETATM   11  H   UNK N   1      25.424  24.347 -10.385  0.00  0.00     0.166 HD
ENDROOT
BRANCH   6  12
HETATM   12  C   UNK N   1      26.378  26.872  -6.632  0.00  0.00    -0.024 A 
HETATM   13  C   UNK N   1      25.457  26.859  -5.574  0.00  0.00     0.013 A 
HETATM   14  C   UNK N   1      25.488  27.825  -4.579  0.00  0.00     0.019 A 
HETATM   15  C   UNK N   1      26.448  28.835  -4.616  0.00  0.00     0.037 A 
HETATM   16  C   UNK N   1      27.380  28.865  -5.669  0.00  0.00     0.019 A 
HETATM   17  C   UNK N   1      27.346  27.886  -6.676  0.00  0.00     0.013 A 
BRANCH  15  18
HETATM   18  C   UNK N   1      26.467  29.855  -3.550  0.00  0.00     0.176 C 
HETATM   19  O   UNK N   1      27.011  29.616  -2.481  0.00  0.00    -0.646 OA
BRANCH  18  20
HETATM   20  O   UNK N   1      25.887  31.053  -3.745  0.00  0.00    -0.773 OA
HETATM   21  H   UNK N   1      26.068  31.763  -3.160  0.00  0.00     0.167 HD
ENDBRANCH  18  20
ENDBRANCH  15  18
ENDBRANCH   6  12
BRANCH   5  22
HETATM   22  C   UNK N   1      29.202  22.249  -5.806  0.00  0.00    -0.025 A 
HETATM   23  C   UNK N   1      29.275  22.875  -4.547  0.00  0.00     0.012 A 
HETATM   24  C   UNK N   1      30.110  22.376  -3.548  0.00  0.00     0.001 A 
HETATM   25  C   UNK N   1      30.884  21.243  -3.796  0.00  0.00     0.000 A 
HETATM   26  C   UNK N   1      30.822  20.611  -5.042  0.00  0.00     0.001 A 
HETATM   27  C   UNK N   1      29.984  21.111  -6.046  0.00  0.00     0.012 A 
ENDBRANCH   5  22
TORSDOF 4
ENDMDL
MODEL 5
REMARK VINA RESULT:      -7.4     11.412     14.680
REMARK  4 active torsions:
REMARK  status: ('A' for Active; 'I' for Inactive)
REMARK    1  A    between atoms: C_7  and  C_18 
REMARK    2  A    between atoms: C_10  and  C_8 
REMARK    3  A    between atoms: C_10  and  O_25 
REMARK    4  A    between atoms: C_17  and  C_19 
ROOT
HETATM    1  C   UNK N   1      27.540  23.391  -6.204  0.00  0.00     0.029 A 
HETATM    2  C   UNK N   1      27.790  22.329  -7.047  0.00  0.00     0.021 A 
HETATM    3  C   UNK N   1      28.540  20.556  -8.122  0.00  0.00     0.103 A 
HETATM    4  C   UNK N   1      25.615  23.908  -7.587  0.00  0.00     0.102 A 
HETATM    5  C   UNK N   1      26.436  24.208  -6.463  0.00  0.00    -0.009 A 
HETATM    6  C   UNK N   1      28.782  21.388  -7.026  0.00  0.00     0.004 A 
HETATM    7  C   UNK N   1      26.993  22.069  -8.106  0.00  0.00     0.116 A 
HETATM    8  N   UNK N   1      27.427  20.988  -8.785  0.00  0.00    -0.351 N 
HETATM    9  N   UNK N   1      25.910  22.835  -8.397  0.00  0.00    -0.351 N 
ATOM     10  HN  UNK N   1      25.324  22.618  -9.203  1.00  0.00     0.166 HD
HETATM   11  H   UNK N   1      27.025  20.593  -9.591  0.00  0.00     0.166 HD
ENDROOT
BRANCH   6  12
HETATM   12  C   UNK N   1      29.867  21.319  -6.018  0.00  0.00    -0.024 A 
HETATM   13  C   UNK N   1      30.857  20.335  -6.152  0.00  0.00     0.013 A 
HETATM   14  C   UNK N   1      31.893  20.227  -5.237  0.00  0.00     0.019 A 
HETATM   15  C   UNK N   1      31.967  21.105  -4.157  0.00  0.00     0.037 A 
HETATM   16  C   UNK N   1      30.983  22.099  -4.006  0.00  0.00     0.019 A 
HETATM   17  C   UNK N   1      29.935  22.207  -4.934  0.00  0.00     0.013 A 
BRANCH  15  18
HETATM   18  C   UNK N   1      33.077  20.976  -3.193  0.00  0.00     0.176 C 
HETATM   19  O   UNK N   1      34.201  20.693  -3.583  0.00  0.00    -0.646 OA
BRANCH  18  20
HETATM   20  O   UNK N   1      32.861  21.168  -1.878  0.00  0.00    -0.773 OA
HETATM   21  H   UNK N   1      32.605  20.449  -1.335  0.00  0.00     0.167 HD
ENDBRANCH  18  20
ENDBRANCH  15  18
ENDBRANCH   6  12
BRANCH   5  22
HETATM   22  C   UNK N   1      26.179  25.346  -5.550  0.00  0.00    -0.025 A 
HETATM   23  C   UNK N   1      25.392  26.426  -5.994  0.00  0.00     0.012 A 
HETATM   24  C   UNK N   1      25.131  27.511  -5.159  0.00  0.00     0.001 A 
HETATM   25  C   UNK N   1      25.655  27.531  -3.866  0.00  0.00     0.000 A 
HETATM   26  C   UNK N   1      26.438  26.465  -3.412  0.00  0.00     0.001 A 
HETATM   27  C   UNK N   1      26.701  25.374  -4.250  0.00  0.00     0.012 A 
ENDBRANCH   5  22
TORSDOF 4
ENDMDL
MODEL 6
REMARK VINA RESULT:      -7.4     10.799     14.213
REMARK  4 active torsions:
REMARK  status: ('A' for Active; 'I' for Inactive)
REMARK    1  A    between atoms: C_7  and  C_18 
REMARK    2  A    between atoms: C_10  and  C_8 
REMARK    3  A    between atoms: C_10  and  O_25 
REMARK    4  A    between atoms: C_17  and  C_19 
ROOT
HETATM    1  C   UNK N   1      27.665  26.832  -3.732  0.00  0.00     0.029 A 
HETATM    2  C   UNK N   1      26.855  25.961  -4.429  0.00  0.00     0.021 A 
HETATM    3  C   UNK N   1      25.874  24.265  -5.441  0.00  0.00     0.103 A 
HETATM    4  C   UNK N   1      26.046  28.572  -4.217  0.00  0.00     0.102 A 
HETATM    5  C   UNK N   1      27.270  28.167  -3.613  0.00  0.00    -0.009 A 
HETATM    6  C   UNK N   1      26.999  24.627  -4.694  0.00  0.00     0.004 A 
HETATM    7  C   UNK N   1      25.698  26.374  -4.992  0.00  0.00     0.116 A 
HETATM    8  N   UNK N   1      25.074  25.357  -5.619  0.00  0.00    -0.351 N 
HETATM    9  N   UNK N   1      25.273  27.661  -4.902  0.00  0.00    -0.351 N 
ATOM     10  HN  UNK N   1      24.396  27.948  -5.336  1.00  0.00     0.166 HD
HETATM   11  H   UNK N   1      24.219  25.394  -6.105  0.00  0.00     0.166 HD
ENDROOT
BRANCH   6  12
HETATM   12  C   UNK N   1      28.140  23.791  -4.251  0.00  0.00    -0.024 A 
HETATM   13  C   UNK N   1      28.950  23.180  -5.219  0.00  0.00     0.013 A 
HETATM   14  C   UNK N   1      30.030  22.388  -4.858  0.00  0.00     0.019 A 
HETATM   15  C   UNK N   1      30.329  22.185  -3.512  0.00  0.00     0.037 A 
HETATM   16  C   UNK N   1      29.528  22.790  -2.527  0.00  0.00     0.019 A 
HETATM   17  C   UNK N   1      28.435  23.592  -2.895  0.00  0.00     0.013 A 
BRANCH  15  18
HETATM   18  C   UNK N   1      31.482  21.339  -3.147  0.00  0.00     0.176 C 
HETATM   19  O   UNK N   1      32.212  21.662  -2.221  0.00  0.00    -0.646 OA
BRANCH  18  20
HETATM   20  O   UNK N   1      31.738  20.207  -3.829  0.00  0.00    -0.773 OA
HETATM   21  H   UNK N   1      31.174  19.944  -4.529  0.00  0.00     0.167 HD
ENDBRANCH  18  20
ENDBRANCH  15  18
ENDBRANCH   6  12
BRANCH   5  22
HETATM   22  C   UNK N   1      28.149  29.092  -2.861  0.00  0.00    -0.025 A 
HETATM   23  C   UNK N   1      29.536  28.852  -2.822  0.00  0.00     0.012 A 
HETATM   24  C   UNK N   1      30.390  29.705  -2.123  0.00  0.00     0.001 A 
HETATM   25  C   UNK N   1      29.867  30.811  -1.454  0.00  0.00     0.000 A 
HETATM   26  C   UNK N   1      28.491  31.062  -1.485  0.00  0.00     0.001 A 
HETATM   27  C   UNK N   1      27.632  30.206  -2.186  0.00  0.00     0.012 A 
ENDBRANCH   5  22
TORSDOF 4
ENDMDL
MODEL 7
REMARK VINA RESULT:      -7.1      6.073      7.894
REMARK  4 active torsions:
REMARK  status: ('A' for Active; 'I' for Inactive)
REMARK    1  A    between atoms: C_7  and  C_18 
REMARK    2  A    between atoms: C_10  and  C_8 
REMARK    3  A    between atoms: C_10  and  O_25 
REMARK    4  A    between atoms: C_17  and  C_19 
ROOT
HETATM    1  C   UNK N   1      26.168  15.575   7.121  0.00  0.00     0.029 A 
HETATM    2  C   UNK N   1      25.205  15.037   6.294  0.00  0.00     0.021 A 
HETATM    3  C   UNK N   1      23.514  13.983   5.349  0.00  0.00     0.103 A 
HETATM    4  C   UNK N   1      27.095  16.670   5.165  0.00  0.00     0.102 A 
HETATM    5  C   UNK N   1      27.139  16.410   6.565  0.00  0.00    -0.009 A 
HETATM    6  C   UNK N   1      24.156  14.203   6.571  0.00  0.00     0.004 A 
HETATM    7  C   UNK N   1      25.188  15.300   4.970  0.00  0.00     0.116 A 
HETATM    8  N   UNK N   1      24.163  14.669   4.363  0.00  0.00    -0.351 N 
HETATM    9  N   UNK N   1      26.112  16.106   4.384  0.00  0.00    -0.351 N 
ATOM     10  HN  UNK N   1      26.077  16.290   3.382  1.00  0.00     0.166 HD
HETATM   11  H   UNK N   1      23.930  14.697   3.408  0.00  0.00     0.166 HD
ENDROOT
BRANCH   6  12
HETATM   12  C   UNK N   1      23.822  13.675   7.915  0.00  0.00    -0.024 A 
HETATM   13  C   UNK N   1      24.783  12.925   8.608  0.00  0.00     0.013 A 
HETATM   14  C   UNK N   1      24.522  12.408   9.868  0.00  0.00     0.019 A 
HETATM   15  C   UNK N   1      23.285  12.629  10.472  0.00  0.00     0.037 A 
HETATM   16  C   UNK N   1      22.309  13.380   9.792  0.00  0.00     0.019 A 
HETATM   17  C   UNK N   1      22.576  13.902   8.516  0.00  0.00     0.013 A 
BRANCH  15  18
HETATM   18  C   UNK N   1      23.024  12.072  11.813  0.00  0.00     0.176 C 
HETATM   19  O   UNK N   1      23.930  11.986  12.630  0.00  0.00    -0.646 OA
BRANCH  18  20
HETATM   20  O   UNK N   1      21.789  11.655  12.147  0.00  0.00    -0.773 OA
HETATM   21  H   UNK N   1      21.255  11.215  11.515  0.00  0.00     0.167 HD
ENDBRANCH  18  20
ENDBRANCH  15  18
ENDBRANCH   6  12
BRANCH   5  22
HETATM   22  C   UNK N   1      28.168  16.983   7.464  0.00  0.00    -0.025 A 
HETATM   23  C   UNK N   1      29.519  16.974   7.066  0.00  0.00     0.012 A 
HETATM   24  C   UNK N   1      30.510  17.506   7.890  0.00  0.00     0.001 A 
HETATM   25  C   UNK N   1      30.163  18.054   9.124  0.00  0.00     0.000 A 
HETATM   26  C   UNK N   1      28.826  18.070   9.532  0.00  0.00     0.001 A 
HETATM   27  C   UNK N   1      27.829  17.536   8.706  0.00  0.00     0.012 A 
ENDBRANCH   5  22
TORSDOF 4
ENDMDL
MODEL 8
REMARK VINA RESULT:      -7.1     12.423     15.030
REMARK  4 active torsions:
REMARK  status: ('A' for Active; 'I' for Inactive)
REMARK    1  A    between atoms: C_7  and  C_18 
REMARK    2  A    between atoms: C_10  and  C_8 
REMARK    3  A    between atoms: C_10  and  O_25 
REMARK    4  A    between atoms: C_17  and  C_19 
ROOT
HETATM    1  C   UNK N   1      35.089  10.437  18.046  0.00  0.00     0.029 A 
HETATM    2  C   UNK N   1      35.127  11.724  18.538  0.00  0.00     0.021 A 
HETATM    3  C   UNK N   1      35.244  13.898  18.893  0.00  0.00     0.103 A 
HETATM    4  C   UNK N   1      34.786   9.679  20.330  0.00  0.00     0.102 A 
HETATM    5  C   UNK N   1      34.916   9.381  18.944  0.00  0.00    -0.009 A 
HETATM    6  C   UNK N   1      35.283  12.921  17.893  0.00  0.00     0.004 A 
HETATM    7  C   UNK N   1      35.001  11.977  19.859  0.00  0.00     0.116 A 
HETATM    8  N   UNK N   1      35.069  13.300  20.107  0.00  0.00    -0.351 N 
HETATM    9  N   UNK N   1      34.831  10.983  20.768  0.00  0.00    -0.351 N 
ATOM     10  HN  UNK N   1      34.739  11.200  21.761  1.00  0.00     0.166 HD
HETATM   11  H   UNK N   1      35.005  13.744  20.984  0.00  0.00     0.166 HD
ENDROOT
BRANCH   6  12
HETATM   12  C   UNK N   1      35.453  13.083  16.430  0.00  0.00    -0.024 A 
HETATM   13  C   UNK N   1      36.473  13.919  15.954  0.00  0.00     0.013 A 
HETATM   14  C   UNK N   1      36.676  14.105  14.594  0.00  0.00     0.019 A 
HETATM   15  C   UNK N   1      35.859  13.455  13.670  0.00  0.00     0.037 A 
HETATM   16  C   UNK N   1      34.832  12.612  14.129  0.00  0.00     0.019 A 
HETATM   17  C   UNK N   1      34.628  12.425  15.507  0.00  0.00     0.013 A 
BRANCH  15  18
HETATM   18  C   UNK N   1      36.089  13.665  12.228  0.00  0.00     0.176 C 
HETATM   19  O   UNK N   1      35.143  13.706  11.454  0.00  0.00    -0.646 OA
BRANCH  18  20
HETATM   20  O   UNK N   1      37.340  13.811  11.753  0.00  0.00    -0.773 OA
HETATM   21  H   UNK N   1      37.592  13.387  10.957  0.00  0.00     0.167 HD
ENDBRANCH  18  20
ENDBRANCH  15  18
ENDBRANCH   6  12
BRANCH   5  22
HETATM   22  C   UNK N   1      34.876   8.002  18.403  0.00  0.00    -0.025 A 
HETATM   23  C   UNK N   1      34.105   7.023  19.058  0.00  0.00     0.012 A 
HETATM   24  C   UNK N   1      34.048   5.716  18.574  0.00  0.00     0.001 A 
HETATM   25  C   UNK N   1      34.762   5.372  17.426  0.00  0.00     0.000 A 
HETATM   26  C   UNK N   1      35.531   6.335  16.765  0.00  0.00     0.001 A 
HETATM   27  C   UNK N   1      35.590   7.648  17.251  0.00  0.00     0.012 A 
ENDBRANCH   5  22
TORSDOF 4
ENDMDL
MODEL 9
REMARK VINA RESULT:      -7.0      3.423      6.818
REMARK  4 active torsions:
REMARK  status: ('A' for Active; 'I' for Inactive)
REMARK    1  A    between atoms: C_7  and  C_18 
REMARK    2  A    between atoms: C_10  and  C_8 
REMARK    3  A    between atoms: C_10  and  O_25 
REMARK    4  A    between atoms: C_17  and  C_19 
ROOT
HETATM    1  C   UNK N   1      29.337  17.759   6.077  0.00  0.00     0.029 A 
HETATM    2  C   UNK N   1      30.222  17.431   7.082  0.00  0.00     0.021 A 
HETATM    3  C   UNK N   1      31.861  16.694   8.361  0.00  0.00     0.103 A 
HETATM    4  C   UNK N   1      28.034  18.942   7.746  0.00  0.00     0.102 A 
HETATM    5  C   UNK N   1      28.216  18.529   6.396  0.00  0.00    -0.009 A 
HETATM    6  C   UNK N   1      31.379  16.702   7.048  0.00  0.00     0.004 A 
HETATM    7  C   UNK N   1      30.024  17.838   8.354  0.00  0.00     0.116 A 
HETATM    8  N   UNK N   1      31.012  17.402   9.162  0.00  0.00    -0.351 N 
HETATM    9  N   UNK N   1      28.949  18.587   8.711  0.00  0.00    -0.351 N 
ATOM     10  HN  UNK N   1      28.821  18.882   9.680  1.00  0.00     0.166 HD
HETATM   11  H   UNK N   1      31.102  17.561  10.129  0.00  0.00     0.166 HD
ENDROOT
BRANCH   6  12
HETATM   12  C   UNK N   1      31.954  16.075   5.835  0.00  0.00    -0.024 A 
HETATM   13  C   UNK N   1      31.727  14.710   5.605  0.00  0.00     0.013 A 
HETATM   14  C   UNK N   1      32.242  14.074   4.485  0.00  0.00     0.019 A 
HETATM   15  C   UNK N   1      33.001  14.790   3.560  0.00  0.00     0.037 A 
HETATM   16  C   UNK N   1      33.238  16.159   3.775  0.00  0.00     0.019 A 
HETATM   17  C   UNK N   1      32.716  16.802   4.909  0.00  0.00     0.013 A 
BRANCH  15  18
HETATM   18  C   UNK N   1      33.540  14.097   2.375  0.00  0.00     0.176 C 
HETATM   19  O   UNK N   1      33.115  12.994   2.060  0.00  0.00    -0.646 OA
BRANCH  18  20
HETATM   20  O   UNK N   1      34.504  14.672   1.631  0.00  0.00    -0.773 OA
HETATM   21  H   UNK N   1      34.283  15.345   1.018  0.00  0.00     0.167 HD
ENDBRANCH  18  20
ENDBRANCH  15  18
ENDBRANCH   6  12
BRANCH   5  22
HETATM   22  C   UNK N   1      27.272  18.874   5.307  0.00  0.00    -0.025 A 
HETATM   23  C   UNK N   1      27.440  20.082   4.602  0.00  0.00     0.012 A 
HETATM   24  C   UNK N   1      26.569  20.435   3.572  0.00  0.00     0.001 A 
HETATM   25  C   UNK N   1      25.516  19.585   3.234  0.00  0.00     0.000 A 
HETATM   26  C   UNK N   1      25.337  18.383   3.927  0.00  0.00     0.001 A 
HETATM   27  C   UNK N   1      26.212  18.027   4.961  0.00  0.00     0.012 A 
ENDBRANCH   5  22
TORSDOF 4
ENDMDL
