REMARK  4 active torsions:
REMARK  status: ('A' for Active; 'I' for Inactive)
REMARK    1  A    between atoms: C_7  and  C_18 
REMARK    2  A    between atoms: C_10  and  C_8 
REMARK    3  A    between atoms: C_10  and  O_25 
REMARK    4  A    between atoms: C_17  and  C_19 
ROOT
HETATM    1  C   UNK N   1       0.816   0.974   0.000  0.00  0.00     0.029 A 
HETATM    2  C   UNK N   1      -0.340   1.725   0.000  0.00  0.00     0.021 A 
HETATM    3  C   UNK N   1      -2.395   2.526  -0.000  0.00  0.00     0.103 A 
HETATM    4  C   UNK N   1       2.054   3.060  -0.000  0.00  0.00     0.102 A 
HETATM    5  C   UNK N   1       2.046   1.636   0.000  0.00  0.00    -0.009 A 
HETATM    6  C   UNK N   1      -1.653   1.341   0.000  0.00  0.00     0.004 A 
HETATM    7  C   UNK N   1      -0.302   3.075  -0.000  0.00  0.00     0.116 A 
HETATM    8  N   UNK N   1      -1.546   3.595  -0.000  0.00  0.00    -0.351 N 
HETATM    9  N   UNK N   1       0.870   3.762  -0.000  0.00  0.00    -0.351 N 
ATOM     10  HN  UNK N   1       0.872   4.782  -0.000  1.00  0.00     0.166 HD
HETATM   11  H   UNK N   1      -1.791   4.548  -0.000  0.00  0.00     0.166 HD
ENDROOT
BRANCH   6  12
HETATM   12  C   UNK N   1      -2.128  -0.063   0.000  0.00  0.00    -0.024 A 
HETATM   13  C   UNK N   1      -1.183  -1.099   0.000  0.00  0.00     0.013 A 
HETATM   14  C   UNK N   1      -1.574  -2.430   0.000  0.00  0.00     0.019 A 
HETATM   15  C   UNK N   1      -2.928  -2.761   0.000  0.00  0.00     0.037 A 
HETATM   16  C   UNK N   1      -3.890  -1.735  -0.000  0.00  0.00     0.019 A 
HETATM   17  C   UNK N   1      -3.492  -0.388   0.000  0.00  0.00     0.013 A 
BRANCH  15  18
HETATM   18  C   UNK N   1      -3.326  -4.182  -0.000  0.00  0.00     0.176 C 
HETATM   19  O   UNK N   1      -2.474  -5.059   0.000  0.00  0.00    -0.646 OA
BRANCH  18  20
HETATM   20  O   UNK N   1      -4.628  -4.523  -0.000  0.00  0.00    -0.773 OA
HETATM   21  H   UNK N   1      -5.287  -3.857  -0.000  0.00  0.00     0.167 HD
ENDBRANCH  18  20
ENDBRANCH  15  18
ENDBRANCH   6  12
BRANCH   5  22
HETATM   22  C   UNK N   1       3.281   0.818   0.000  0.00  0.00    -0.025 A 
HETATM   23  C   UNK N   1       3.182  -0.587   0.000  0.00  0.00     0.012 A 
HETATM   24  C   UNK N   1       4.326  -1.384   0.000  0.00  0.00     0.001 A 
HETATM   25  C   UNK N   1       5.586  -0.786  -0.000  0.00  0.00     0.000 A 
HETATM   26  C   UNK N   1       5.699   0.608  -0.000  0.00  0.00     0.001 A 
HETATM   27  C   UNK N   1       4.551   1.410  -0.000  0.00  0.00     0.012 A 
ENDBRANCH   5  22
TORSDOF 4
