REMARK  4 active torsions:
REMARK  status: ('A' for Active; 'I' for Inactive)
REMARK    1  A    between atoms: C_1  and  O_3 
REMARK    2  A    between atoms: C_1  and  C_4 
REMARK    3  A    between atoms: C_5  and  C_6 
REMARK    4  A    between atoms: C_13  and  C_10 
ROOT
HETATM    1  C   UNK N   1      -2.733   0.512  -0.031  0.00  0.00     0.120 A 
HETATM    2  C   UNK N   1      -2.266   1.820  -0.317  0.00  0.00     0.021 A 
HETATM    3  S   UNK N   1      -0.637   1.669  -0.559  0.00  0.00    -0.076 SA
HETATM    4  C   UNK N   1      -0.515   0.048  -0.272  0.00  0.00     0.074 A 
HETATM    5  N   UNK N   1      -1.747  -0.457   0.004  0.00  0.00    -0.346 N 
ATOM      6  HN  UNK N   1      -1.924  -1.439   0.214  1.00  0.00     0.166 HD
ENDROOT
BRANCH   4   7
HETATM    7  C   UNK N   1       0.755  -0.738  -0.363  0.00  0.00     0.138 C 
HETATM    8  N   UNK N   1       0.587  -2.116   0.118  0.00  0.00    -0.407 N 
HETATM    9  C   UNK N   1       1.801  -2.933  -0.090  0.00  0.00     0.154 C 
HETATM   10  H   UNK N   1      -0.269  -2.468   0.546  0.00  0.00     0.154 HD
HETATM   11  C   UNK N   1       3.106  -2.165  -0.028  0.00  0.00    -0.035 A 
HETATM   12  C   UNK N   1       3.117  -0.782   0.226  0.00  0.00    -0.048 A 
HETATM   13  C   UNK N   1       4.310  -2.826  -0.290  0.00  0.00     0.009 A 
HETATM   14  C   UNK N   1       1.837  -0.066   0.470  0.00  0.00     0.070 C 
HETATM   15  C   UNK N   1       4.320  -0.070   0.200  0.00  0.00     0.008 A 
HETATM   16  C   UNK N   1       5.518  -0.736  -0.067  0.00  0.00     0.001 A 
HETATM   17  C   UNK N   1       5.514  -2.114  -0.305  0.00  0.00     0.001 A 
ENDBRANCH   4   7
BRANCH   2  18
HETATM   18  C   UNK N   1      -3.059   3.099  -0.399  0.00  0.00     0.020 C 
HETATM   19  C   UNK N   1      -2.209   4.279  -0.843  0.00  0.00     0.015 C 
HETATM   20  C   UNK N   1      -3.646   3.431   0.961  0.00  0.00     0.015 C 
ENDBRANCH   2  18
BRANCH   1  21
HETATM   21  C   UNK N   1      -4.154   0.157   0.181  0.00  0.00     0.194 C 
HETATM   22  O   UNK N   1      -5.031   0.999   0.095  0.00  0.00    -0.645 OA
BRANCH  21  23
HETATM   23  O   UNK N   1      -4.491  -1.125   0.426  0.00  0.00    -0.772 OA
HETATM   24  H   UNK N   1      -5.380  -1.368   0.596  0.00  0.00     0.167 HD
ENDBRANCH  21  23
ENDBRANCH   1  21
TORSDOF 4
