MODEL 1
REMARK VINA RESULT:      -7.2      0.000      0.000
REMARK  4 active torsions:
REMARK  status: ('A' for Active; 'I' for Inactive)
REMARK    1  A    between atoms: C_1  and  O_3 
REMARK    2  A    between atoms: C_1  and  C_4 
REMARK    3  A    between atoms: C_5  and  C_6 
REMARK    4  A    between atoms: C_13  and  C_10 
ROOT
HETATM    1  C   UNK N   1      34.595  16.761   8.938  0.00  0.00     0.120 A 
HETATM    2  C   UNK N   1      34.902  15.643   8.122  0.00  0.00     0.021 A 
HETATM    3  S   UNK N   1      35.198  14.396   9.168  0.00  0.00    -0.076 SA
HETATM    4  C   UNK N   1      34.997  15.230  10.578  0.00  0.00     0.074 A 
HETATM    5  N   UNK N   1      34.665  16.519  10.298  0.00  0.00    -0.346 N 
ATOM      6  HN  UNK N   1      34.490  17.228  11.010  1.00  0.00     0.166 HD
ENDROOT
BRANCH   4   7
HETATM    7  C   UNK N   1      35.109  14.630  11.944  0.00  0.00     0.138 C 
HETATM    8  N   UNK N   1      36.359  15.015  12.615  0.00  0.00    -0.407 N 
HETATM    9  C   UNK N   1      36.415  14.532  14.011  0.00  0.00     0.154 C 
HETATM   10  H   UNK N   1      37.101  15.553  12.168  0.00  0.00     0.154 HD
HETATM   11  C   UNK N   1      35.678  13.233  14.268  0.00  0.00    -0.035 A 
HETATM   12  C   UNK N   1      35.016  12.562  13.225  0.00  0.00    -0.048 A 
HETATM   13  C   UNK N   1      35.601  12.728  15.569  0.00  0.00     0.009 A 
HETATM   14  C   UNK N   1      35.064  13.112  11.844  0.00  0.00     0.070 C 
HETATM   15  C   UNK N   1      34.271  11.408  13.490  0.00  0.00     0.008 A 
HETATM   16  C   UNK N   1      34.195  10.913  14.793  0.00  0.00     0.001 A 
HETATM   17  C   UNK N   1      34.865  11.568  15.831  0.00  0.00     0.001 A 
ENDBRANCH   4   7
BRANCH   2  18
HETATM   18  C   UNK N   1      34.951  15.568   6.618  0.00  0.00     0.020 C 
HETATM   19  C   UNK N   1      33.639  15.085   6.020  0.00  0.00     0.015 C 
HETATM   20  C   UNK N   1      36.044  14.609   6.183  0.00  0.00     0.015 C 
ENDBRANCH   2  18
BRANCH   1  21
HETATM   21  C   UNK N   1      34.187  18.088   8.424  0.00  0.00     0.194 C 
HETATM   22  O   UNK N   1      33.039  18.300   8.075  0.00  0.00    -0.645 OA
BRANCH  21  23
HETATM   23  O   UNK N   1      35.086  19.091   8.384  0.00  0.00    -0.772 OA
HETATM   24  H   UNK N   1      35.537  19.369   9.158  0.00  0.00     0.167 HD
ENDBRANCH  21  23
ENDBRANCH   1  21
TORSDOF 4
ENDMDL
MODEL 2
REMARK VINA RESULT:      -7.1      2.661      3.945
REMARK  4 active torsions:
REMARK  status: ('A' for Active; 'I' for Inactive)
REMARK    1  A    between atoms: C_1  and  O_3 
REMARK    2  A    between atoms: C_1  and  C_4 
REMARK    3  A    between atoms: C_5  and  C_6 
REMARK    4  A    between atoms: C_13  and  C_10 
ROOT
HETATM    1  C   UNK N   1      36.084  14.744  11.553  0.00  0.00     0.120 A 
HETATM    2  C   UNK N   1      36.938  13.848  10.860  0.00  0.00     0.021 A 
HETATM    3  S   UNK N   1      37.293  12.646  11.940  0.00  0.00    -0.076 SA
HETATM    4  C   UNK N   1      36.454  13.245  13.229  0.00  0.00     0.074 A 
HETATM    5  N   UNK N   1      35.836  14.402  12.870  0.00  0.00    -0.346 N 
ATOM      6  HN  UNK N   1      35.257  14.957  13.500  1.00  0.00     0.166 HD
ENDROOT
BRANCH   4   7
HETATM    7  C   UNK N   1      36.352  12.575  14.563  0.00  0.00     0.138 C 
HETATM    8  N   UNK N   1      36.002  11.153  14.441  0.00  0.00    -0.407 N 
HETATM    9  C   UNK N   1      36.028  10.457  15.744  0.00  0.00     0.154 C 
HETATM   10  H   UNK N   1      35.769  10.699  13.558  0.00  0.00     0.154 HD
HETATM   11  C   UNK N   1      35.669  11.320  16.937  0.00  0.00    -0.035 A 
HETATM   12  C   UNK N   1      35.328  12.674  16.770  0.00  0.00    -0.048 A 
HETATM   13  C   UNK N   1      35.740  10.782  18.226  0.00  0.00     0.009 A 
HETATM   14  C   UNK N   1      35.286  13.262  15.405  0.00  0.00     0.070 C 
HETATM   15  C   UNK N   1      35.079  13.481  17.884  0.00  0.00     0.008 A 
HETATM   16  C   UNK N   1      35.155  12.938  19.168  0.00  0.00     0.001 A 
HETATM   17  C   UNK N   1      35.479  11.588  19.339  0.00  0.00     0.001 A 
ENDBRANCH   4   7
BRANCH   2  18
HETATM   18  C   UNK N   1      37.432  13.936   9.439  0.00  0.00     0.020 C 
HETATM   19  C   UNK N   1      36.434  13.366   8.444  0.00  0.00     0.015 C 
HETATM   20  C   UNK N   1      38.730  13.163   9.295  0.00  0.00     0.015 C 
ENDBRANCH   2  18
BRANCH   1  21
HETATM   21  C   UNK N   1      35.453  15.937  10.946  0.00  0.00     0.194 C 
HETATM   22  O   UNK N   1      36.127  16.882  10.573  0.00  0.00    -0.645 OA
BRANCH  21  23
HETATM   23  O   UNK N   1      34.118  15.963  10.760  0.00  0.00    -0.772 OA
HETATM   24  H   UNK N   1      33.572  16.547  11.248  0.00  0.00     0.167 HD
ENDBRANCH  21  23
ENDBRANCH   1  21
TORSDOF 4
ENDMDL
MODEL 3
REMARK VINA RESULT:      -6.8      3.173      4.583
REMARK  4 active torsions:
REMARK  status: ('A' for Active; 'I' for Inactive)
REMARK    1  A    between atoms: C_1  and  O_3 
REMARK    2  A    between atoms: C_1  and  C_4 
REMARK    3  A    between atoms: C_5  and  C_6 
REMARK    4  A    between atoms: C_13  and  C_10 
ROOT
HETATM    1  C   UNK N   1      37.296  13.310  11.134  0.00  0.00     0.120 A 
HETATM    2  C   UNK N   1      35.928  13.517  10.824  0.00  0.00     0.021 A 
HETATM    3  S   UNK N   1      35.094  13.109  12.193  0.00  0.00    -0.076 SA
HETATM    4  C   UNK N   1      36.384  12.649  13.115  0.00  0.00     0.074 A 
HETATM    5  N   UNK N   1      37.531  12.815  12.403  0.00  0.00    -0.346 N 
ATOM      6  HN  UNK N   1      38.459  12.598  12.765  1.00  0.00     0.166 HD
ENDROOT
BRANCH   4   7
HETATM    7  C   UNK N   1      36.291  12.180  14.532  0.00  0.00     0.138 C 
HETATM    8  N   UNK N   1      35.931  10.758  14.621  0.00  0.00    -0.407 N 
HETATM    9  C   UNK N   1      35.965  10.258  16.011  0.00  0.00     0.154 C 
HETATM   10  H   UNK N   1      35.687  10.183  13.815  0.00  0.00     0.154 HD
HETATM   11  C   UNK N   1      35.623  11.287  17.069  0.00  0.00    -0.035 A 
HETATM   12  C   UNK N   1      35.289  12.605  16.710  0.00  0.00    -0.048 A 
HETATM   13  C   UNK N   1      35.702  10.941  18.421  0.00  0.00     0.009 A 
HETATM   14  C   UNK N   1      35.237  12.989  15.275  0.00  0.00     0.070 C 
HETATM   15  C   UNK N   1      35.054  13.567  17.698  0.00  0.00     0.008 A 
HETATM   16  C   UNK N   1      35.140  13.215  19.047  0.00  0.00     0.001 A 
HETATM   17  C   UNK N   1      35.457  11.902  19.408  0.00  0.00     0.001 A 
ENDBRANCH   4   7
BRANCH   2  18
HETATM   18  C   UNK N   1      35.325  14.011   9.534  0.00  0.00     0.020 C 
HETATM   19  C   UNK N   1      35.159  15.522   9.514  0.00  0.00     0.015 C 
HETATM   20  C   UNK N   1      33.956  13.388   9.332  0.00  0.00     0.015 C 
ENDBRANCH   2  18
BRANCH   1  21
HETATM   21  C   UNK N   1      38.418  13.620  10.220  0.00  0.00     0.194 C 
HETATM   22  O   UNK N   1      39.061  12.730   9.691  0.00  0.00    -0.645 OA
BRANCH  21  23
HETATM   23  O   UNK N   1      38.706  14.904   9.930  0.00  0.00    -0.772 OA
HETATM   24  H   UNK N   1      38.867  15.177   9.048  0.00  0.00     0.167 HD
ENDBRANCH  21  23
ENDBRANCH   1  21
TORSDOF 4
ENDMDL
MODEL 4
REMARK VINA RESULT:      -6.6      3.508      7.637
REMARK  4 active torsions:
REMARK  status: ('A' for Active; 'I' for Inactive)
REMARK    1  A    between atoms: C_1  and  O_3 
REMARK    2  A    between atoms: C_1  and  C_4 
REMARK    3  A    between atoms: C_5  and  C_6 
REMARK    4  A    between atoms: C_13  and  C_10 
ROOT
HETATM    1  C   UNK N   1      34.803  12.075  13.228  0.00  0.00     0.120 A 
HETATM    2  C   UNK N   1      35.541  13.089  13.890  0.00  0.00     0.021 A 
HETATM    3  S   UNK N   1      35.737  14.296  12.776  0.00  0.00    -0.076 SA
HETATM    4  C   UNK N   1      34.974  13.561  11.510  0.00  0.00     0.074 A 
HETATM    5  N   UNK N   1      34.509  12.346  11.905  0.00  0.00    -0.346 N 
ATOM      6  HN  UNK N   1      34.002  11.707  11.293  1.00  0.00     0.166 HD
ENDROOT
BRANCH   4   7
HETATM    7  C   UNK N   1      34.783  14.177  10.160  0.00  0.00     0.138 C 
HETATM    8  N   UNK N   1      35.781  13.703   9.191  0.00  0.00    -0.407 N 
HETATM    9  C   UNK N   1      35.518  14.208   7.826  0.00  0.00     0.154 C 
HETATM   10  H   UNK N   1      36.563  13.096   9.432  0.00  0.00     0.154 HD
HETATM   11  C   UNK N   1      34.855  15.568   7.765  0.00  0.00    -0.035 A 
HETATM   12  C   UNK N   1      34.542  16.272   8.942  0.00  0.00    -0.048 A 
HETATM   13  C   UNK N   1      34.489  16.104   6.526  0.00  0.00     0.009 A 
HETATM   14  C   UNK N   1      34.896  15.692  10.264  0.00  0.00     0.070 C 
HETATM   15  C   UNK N   1      33.857  17.489   8.875  0.00  0.00     0.008 A 
HETATM   16  C   UNK N   1      33.491  18.015   7.634  0.00  0.00     0.001 A 
HETATM   17  C   UNK N   1      33.813  17.327   6.460  0.00  0.00     0.001 A 
ENDBRANCH   4   7
BRANCH   2  18
HETATM   18  C   UNK N   1      36.048  13.102  15.309  0.00  0.00     0.020 C 
HETATM   19  C   UNK N   1      34.922  13.205  16.325  0.00  0.00     0.015 C 
HETATM   20  C   UNK N   1      36.974  14.287  15.516  0.00  0.00     0.015 C 
ENDBRANCH   2  18
BRANCH   1  21
HETATM   21  C   UNK N   1      34.331  10.828  13.871  0.00  0.00     0.194 C 
HETATM   22  O   UNK N   1      35.036   9.835  13.908  0.00  0.00    -0.645 OA
BRANCH  21  23
HETATM   23  O   UNK N   1      33.121  10.802  14.466  0.00  0.00    -0.772 OA
HETATM   24  H   UNK N   1      32.343  11.021  13.991  0.00  0.00     0.167 HD
ENDBRANCH  21  23
ENDBRANCH   1  21
TORSDOF 4
ENDMDL
MODEL 5
REMARK VINA RESULT:      -6.5      3.417      7.455
REMARK  4 active torsions:
REMARK  status: ('A' for Active; 'I' for Inactive)
REMARK    1  A    between atoms: C_1  and  O_3 
REMARK    2  A    between atoms: C_1  and  C_4 
REMARK    3  A    between atoms: C_5  and  C_6 
REMARK    4  A    between atoms: C_13  and  C_10 
ROOT
HETATM    1  C   UNK N   1      34.959  12.553  12.708  0.00  0.00     0.120 A 
HETATM    2  C   UNK N   1      35.630  13.468  13.558  0.00  0.00     0.021 A 
HETATM    3  S   UNK N   1      35.676  14.897  12.727  0.00  0.00    -0.076 SA
HETATM    4  C   UNK N   1      34.933  14.380  11.347  0.00  0.00     0.074 A 
HETATM    5  N   UNK N   1      34.592  13.071  11.479  0.00  0.00    -0.346 N 
ATOM      6  HN  UNK N   1      34.119  12.531  10.755  1.00  0.00     0.166 HD
ENDROOT
BRANCH   4   7
HETATM    7  C   UNK N   1      34.637  15.249  10.165  0.00  0.00     0.138 C 
HETATM    8  N   UNK N   1      34.853  16.672  10.457  0.00  0.00    -0.407 N 
HETATM    9  C   UNK N   1      34.688  17.521   9.259  0.00  0.00     0.154 C 
HETATM   10  H   UNK N   1      35.089  17.033  11.382  0.00  0.00     0.154 HD
HETATM   11  C   UNK N   1      33.689  17.005   8.243  0.00  0.00    -0.035 A 
HETATM   12  C   UNK N   1      32.982  15.811   8.470  0.00  0.00    -0.048 A 
HETATM   13  C   UNK N   1      33.514  17.689   7.036  0.00  0.00     0.009 A 
HETATM   14  C   UNK N   1      33.189  15.059   9.736  0.00  0.00     0.070 C 
HETATM   15  C   UNK N   1      32.123  15.303   7.491  0.00  0.00     0.008 A 
HETATM   16  C   UNK N   1      31.958  15.989   6.286  0.00  0.00     0.001 A 
HETATM   17  C   UNK N   1      32.647  17.184   6.061  0.00  0.00     0.001 A 
ENDBRANCH   4   7
BRANCH   2  18
HETATM   18  C   UNK N   1      36.188  13.227  14.937  0.00  0.00     0.020 C 
HETATM   19  C   UNK N   1      35.096  13.036  15.978  0.00  0.00     0.015 C 
HETATM   20  C   UNK N   1      37.039  14.409  15.364  0.00  0.00     0.015 C 
ENDBRANCH   2  18
BRANCH   1  21
HETATM   21  C   UNK N   1      34.622  11.160  13.075  0.00  0.00     0.194 C 
HETATM   22  O   UNK N   1      35.459  10.275  13.018  0.00  0.00    -0.645 OA
BRANCH  21  23
HETATM   23  O   UNK N   1      33.385  10.870  13.526  0.00  0.00    -0.772 OA
HETATM   24  H   UNK N   1      32.737  10.502  12.958  0.00  0.00     0.167 HD
ENDBRANCH  21  23
ENDBRANCH   1  21
TORSDOF 4
ENDMDL
MODEL 6
REMARK VINA RESULT:      -6.4     12.988     15.868
REMARK  4 active torsions:
REMARK  status: ('A' for Active; 'I' for Inactive)
REMARK    1  A    between atoms: C_1  and  O_3 
REMARK    2  A    between atoms: C_1  and  C_4 
REMARK    3  A    between atoms: C_5  and  C_6 
REMARK    4  A    between atoms: C_13  and  C_10 
ROOT
HETATM    1  C   UNK N   1      43.358  21.942   3.297  0.00  0.00     0.120 A 
HETATM    2  C   UNK N   1      43.348  20.650   2.712  0.00  0.00     0.021 A 
HETATM    3  S   UNK N   1      42.245  20.725   1.483  0.00  0.00    -0.076 SA
HETATM    4  C   UNK N   1      41.767  22.290   1.703  0.00  0.00     0.074 A 
HETATM    5  N   UNK N   1      42.465  22.835   2.734  0.00  0.00    -0.346 N 
ATOM      6  HN  UNK N   1      42.344  23.795   3.057  1.00  0.00     0.166 HD
ENDROOT
BRANCH   4   7
HETATM    7  C   UNK N   1      40.762  22.999   0.851  0.00  0.00     0.138 C 
HETATM    8  N   UNK N   1      40.465  22.260  -0.383  0.00  0.00    -0.407 N 
HETATM    9  C   UNK N   1      39.379  22.890  -1.164  0.00  0.00     0.154 C 
HETATM   10  H   UNK N   1      40.951  21.411  -0.668  0.00  0.00     0.154 HD
HETATM   11  C   UNK N   1      39.290  24.397  -1.034  0.00  0.00    -0.035 A 
HETATM   12  C   UNK N   1      40.201  25.106  -0.232  0.00  0.00    -0.048 A 
HETATM   13  C   UNK N   1      38.250  25.085  -1.667  0.00  0.00     0.009 A 
HETATM   14  C   UNK N   1      41.288  24.376   0.473  0.00  0.00     0.070 C 
HETATM   15  C   UNK N   1      40.059  26.486  -0.054  0.00  0.00     0.008 A 
HETATM   16  C   UNK N   1      39.016  27.166  -0.686  0.00  0.00     0.001 A 
HETATM   17  C   UNK N   1      38.116  26.467  -1.497  0.00  0.00     0.001 A 
ENDBRANCH   4   7
BRANCH   2  18
HETATM   18  C   UNK N   1      44.162  19.442   3.099  0.00  0.00     0.020 C 
HETATM   19  C   UNK N   1      45.504  19.396   2.385  0.00  0.00     0.015 C 
HETATM   20  C   UNK N   1      43.403  18.174   2.752  0.00  0.00     0.015 C 
ENDBRANCH   2  18
BRANCH   1  21
HETATM   21  C   UNK N   1      44.259  22.358   4.394  0.00  0.00     0.194 C 
HETATM   22  O   UNK N   1      43.819  22.639   5.496  0.00  0.00    -0.645 OA
BRANCH  21  23
HETATM   23  O   UNK N   1      45.591  22.382   4.190  0.00  0.00    -0.772 OA
HETATM   24  H   UNK N   1      46.153  22.916   4.717  0.00  0.00     0.167 HD
ENDBRANCH  21  23
ENDBRANCH   1  21
TORSDOF 4
ENDMDL
MODEL 7
REMARK VINA RESULT:      -6.3      1.964      2.802
REMARK  4 active torsions:
REMARK  status: ('A' for Active; 'I' for Inactive)
REMARK    1  A    between atoms: C_1  and  O_3 
REMARK    2  A    between atoms: C_1  and  C_4 
REMARK    3  A    between atoms: C_5  and  C_6 
REMARK    4  A    between atoms: C_13  and  C_10 
ROOT
HETATM    1  C   UNK N   1      34.168  16.805   8.554  0.00  0.00     0.120 A 
HETATM    2  C   UNK N   1      32.877  16.255   8.754  0.00  0.00     0.021 A 
HETATM    3  S   UNK N   1      33.097  14.947   9.741  0.00  0.00    -0.076 SA
HETATM    4  C   UNK N   1      34.740  15.037   9.873  0.00  0.00     0.074 A 
HETATM    5  N   UNK N   1      35.192  16.109   9.170  0.00  0.00    -0.346 N 
ATOM      6  HN  UNK N   1      36.176  16.370   9.104  1.00  0.00     0.166 HD
ENDROOT
BRANCH   4   7
HETATM    7  C   UNK N   1      35.579  14.107  10.692  0.00  0.00     0.138 C 
HETATM    8  N   UNK N   1      35.720  12.789  10.059  0.00  0.00    -0.407 N 
HETATM    9  C   UNK N   1      36.652  11.911  10.797  0.00  0.00     0.154 C 
HETATM   10  H   UNK N   1      35.231  12.512   9.208  0.00  0.00     0.154 HD
HETATM   11  C   UNK N   1      36.698  12.144  12.294  0.00  0.00    -0.035 A 
HETATM   12  C   UNK N   1      35.888  13.122  12.897  0.00  0.00    -0.048 A 
HETATM   13  C   UNK N   1      37.604  11.423  13.078  0.00  0.00     0.009 A 
HETATM   14  C   UNK N   1      34.948  13.918  12.064  0.00  0.00     0.070 C 
HETATM   15  C   UNK N   1      35.999  13.384  14.266  0.00  0.00     0.008 A 
HETATM   16  C   UNK N   1      36.909  12.663  15.041  0.00  0.00     0.001 A 
HETATM   17  C   UNK N   1      37.706  11.678  14.450  0.00  0.00     0.001 A 
ENDBRANCH   4   7
BRANCH   2  18
HETATM   18  C   UNK N   1      31.559  16.739   8.205  0.00  0.00     0.020 C 
HETATM   19  C   UNK N   1      31.486  16.623   6.690  0.00  0.00     0.015 C 
HETATM   20  C   UNK N   1      31.350  18.197   8.573  0.00  0.00     0.015 C 
ENDBRANCH   2  18
BRANCH   1  21
HETATM   21  C   UNK N   1      34.444  18.042   7.789  0.00  0.00     0.194 C 
HETATM   22  O   UNK N   1      34.810  19.059   8.352  0.00  0.00    -0.645 OA
BRANCH  21  23
HETATM   23  O   UNK N   1      34.335  18.033   6.446  0.00  0.00    -0.772 OA
HETATM   24  H   UNK N   1      34.937  17.550   5.915  0.00  0.00     0.167 HD
ENDBRANCH  21  23
ENDBRANCH   1  21
TORSDOF 4
ENDMDL
MODEL 8
REMARK VINA RESULT:      -6.3      4.138      7.781
REMARK  4 active torsions:
REMARK  status: ('A' for Active; 'I' for Inactive)
REMARK    1  A    between atoms: C_1  and  O_3 
REMARK    2  A    between atoms: C_1  and  C_4 
REMARK    3  A    between atoms: C_5  and  C_6 
REMARK    4  A    between atoms: C_13  and  C_10 
ROOT
HETATM    1  C   UNK N   1      34.455  15.825   9.541  0.00  0.00     0.120 A 
HETATM    2  C   UNK N   1      34.418  14.916   8.454  0.00  0.00     0.021 A 
HETATM    3  S   UNK N   1      33.087  15.336   7.566  0.00  0.00    -0.076 SA
HETATM    4  C   UNK N   1      32.556  16.570   8.525  0.00  0.00     0.074 A 
HETATM    5  N   UNK N   1      33.408  16.728   9.573  0.00  0.00    -0.346 N 
ATOM      6  HN  UNK N   1      33.288  17.431  10.302  1.00  0.00     0.166 HD
ENDROOT
BRANCH   4   7
HETATM    7  C   UNK N   1      31.353  17.413   8.238  0.00  0.00     0.138 C 
HETATM    8  N   UNK N   1      30.461  17.515   9.400  0.00  0.00    -0.407 N 
HETATM    9  C   UNK N   1      29.340  18.449   9.164  0.00  0.00     0.154 C 
HETATM   10  H   UNK N   1      30.599  17.001  10.270  0.00  0.00     0.154 HD
HETATM   11  C   UNK N   1      28.874  18.536   7.725  0.00  0.00    -0.035 A 
HETATM   12  C   UNK N   1      29.479  17.758   6.723  0.00  0.00    -0.048 A 
HETATM   13  C   UNK N   1      27.872  19.448   7.377  0.00  0.00     0.009 A 
HETATM   14  C   UNK N   1      30.569  16.812   7.080  0.00  0.00     0.070 C 
HETATM   15  C   UNK N   1      29.095  17.907   5.387  0.00  0.00     0.008 A 
HETATM   16  C   UNK N   1      28.098  18.823   5.046  0.00  0.00     0.001 A 
HETATM   17  C   UNK N   1      27.482  19.588   6.041  0.00  0.00     0.001 A 
ENDBRANCH   4   7
BRANCH   2  18
HETATM   18  C   UNK N   1      35.375  13.795   8.138  0.00  0.00     0.020 C 
HETATM   19  C   UNK N   1      36.323  14.147   7.002  0.00  0.00     0.015 C 
HETATM   20  C   UNK N   1      34.602  12.553   7.735  0.00  0.00     0.015 C 
ENDBRANCH   2  18
BRANCH   1  21
HETATM   21  C   UNK N   1      35.528  15.870  10.560  0.00  0.00     0.194 C 
HETATM   22  O   UNK N   1      36.330  16.787  10.587  0.00  0.00    -0.645 OA
BRANCH  21  23
HETATM   23  O   UNK N   1      35.592  14.908  11.502  0.00  0.00    -0.772 OA
HETATM   24  H   UNK N   1      34.826  14.435  11.764  0.00  0.00     0.167 HD
ENDBRANCH  21  23
ENDBRANCH   1  21
TORSDOF 4
ENDMDL
MODEL 9
REMARK VINA RESULT:      -6.3     17.064     19.986
REMARK  4 active torsions:
REMARK  status: ('A' for Active; 'I' for Inactive)
REMARK    1  A    between atoms: C_1  and  O_3 
REMARK    2  A    between atoms: C_1  and  C_4 
REMARK    3  A    between atoms: C_5  and  C_6 
REMARK    4  A    between atoms: C_13  and  C_10 
ROOT
HETATM    1  C   UNK N   1      26.526  23.001  -7.485  0.00  0.00     0.120 A 
HETATM    2  C   UNK N   1      26.600  24.167  -6.681  0.00  0.00     0.021 A 
HETATM    3  S   UNK N   1      28.017  24.037  -5.837  0.00  0.00    -0.076 SA
HETATM    4  C   UNK N   1      28.491  22.566  -6.417  0.00  0.00     0.074 A 
HETATM    5  N   UNK N   1      27.576  22.117  -7.316  0.00  0.00    -0.346 N 
ATOM      6  HN  UNK N   1      27.654  21.229  -7.810  1.00  0.00     0.166 HD
ENDROOT
BRANCH   4   7
HETATM    7  C   UNK N   1      29.765  21.876  -6.042  0.00  0.00     0.138 C 
HETATM    8  N   UNK N   1      29.853  20.528  -6.620  0.00  0.00    -0.407 N 
HETATM    9  C   UNK N   1      31.162  19.893  -6.361  0.00  0.00     0.154 C 
HETATM   10  H   UNK N   1      29.097  20.082  -7.139  0.00  0.00     0.154 HD
HETATM   11  C   UNK N   1      31.827  20.306  -5.064  0.00  0.00    -0.035 A 
HETATM   12  C   UNK N   1      31.204  21.217  -4.193  0.00  0.00    -0.048 A 
HETATM   13  C   UNK N   1      33.105  19.826  -4.759  0.00  0.00     0.009 A 
HETATM   14  C   UNK N   1      29.861  21.758  -4.528  0.00  0.00     0.070 C 
HETATM   15  C   UNK N   1      31.863  21.652  -3.039  0.00  0.00     0.008 A 
HETATM   16  C   UNK N   1      33.141  21.173  -2.744  0.00  0.00     0.001 A 
HETATM   17  C   UNK N   1      33.759  20.255  -3.599  0.00  0.00     0.001 A 
ENDBRANCH   4   7
BRANCH   2  18
HETATM   18  C   UNK N   1      25.618  25.307  -6.593  0.00  0.00     0.020 C 
HETATM   19  C   UNK N   1      25.919  26.408  -7.598  0.00  0.00     0.015 C 
HETATM   20  C   UNK N   1      25.658  25.918  -5.204  0.00  0.00     0.015 C 
ENDBRANCH   2  18
BRANCH   1  21
HETATM   21  C   UNK N   1      25.454  22.728  -8.467  0.00  0.00     0.194 C 
HETATM   22  O   UNK N   1      25.653  22.848  -9.664  0.00  0.00    -0.645 OA
BRANCH  21  23
HETATM   23  O   UNK N   1      24.252  22.293  -8.038  0.00  0.00    -0.772 OA
HETATM   24  H   UNK N   1      24.102  21.386  -7.855  0.00  0.00     0.167 HD
ENDBRANCH  21  23
ENDBRANCH   1  21
TORSDOF 4
ENDMDL
