MODEL 1
REMARK VINA RESULT:      -5.8      0.000      0.000
REMARK  4 active torsions:
REMARK  status: ('A' for Active; 'I' for Inactive)
REMARK    1  A    between atoms: C_1  and  C_2 
REMARK    2  A    between atoms: C_1  and  O_13 
REMARK    3  A    between atoms: C_2  and  C_3 
REMARK    4  A    between atoms: C_5  and  N_6 
ROOT
HETATM    1  C   UNK N   1      31.244  17.513   7.640  0.00  0.00    -0.046 A 
HETATM    2  C   UNK N   1      32.359  17.873   8.398  0.00  0.00     0.043 A 
HETATM    3  C   UNK N   1      33.641  17.890   7.847  0.00  0.00     0.103 A 
HETATM    4  C   UNK N   1      33.810  17.536   6.500  0.00  0.00     0.036 A 
HETATM    5  C   UNK N   1      32.701  17.172   5.727  0.00  0.00     0.003 A 
HETATM    6  C   UNK N   1      31.420  17.161   6.297  0.00  0.00     0.008 A 
ENDROOT
BRANCH   1   7
HETATM    7  C   UNK N   1      29.858  17.494   8.235  0.00  0.00     0.148 C 
BRANCH   7   8
HETATM    8  C   UNK N   1      29.709  17.743   9.723  0.00  0.00     0.143 C 
HETATM    9  O   UNK N   1      29.614  18.892  10.122  0.00  0.00    -0.650 OA
BRANCH   8  10
HETATM   10  O   UNK N   1      29.677  16.737  10.620  0.00  0.00    -0.776 OA
HETATM   11  H   UNK N   1      29.090  16.018  10.497  0.00  0.00     0.167 HD
ENDBRANCH   8  10
ENDBRANCH   7   8
ENDBRANCH   1   7
BRANCH   3  12
HETATM   12  N   UNK N   1      34.749  18.263   8.655  0.00  0.00    -0.116 N 
HETATM   13  O   UNK N   1      35.150  17.480   9.634  0.00  0.00    -0.532 OA
HETATM   14  O   UNK N   1      35.323  19.289   8.451  0.00  0.00    -0.532 OA
ENDBRANCH   3  12
TORSDOF 4
ENDMDL
MODEL 2
REMARK VINA RESULT:      -5.7      1.669      2.066
REMARK  4 active torsions:
REMARK  status: ('A' for Active; 'I' for Inactive)
REMARK    1  A    between atoms: C_1  and  C_2 
REMARK    2  A    between atoms: C_1  and  O_13 
REMARK    3  A    between atoms: C_2  and  C_3 
REMARK    4  A    between atoms: C_5  and  N_6 
ROOT
HETATM    1  C   UNK N   1      30.594  17.713   8.105  0.00  0.00    -0.046 A 
HETATM    2  C   UNK N   1      31.987  17.793   8.080  0.00  0.00     0.043 A 
HETATM    3  C   UNK N   1      32.719  17.425   6.950  0.00  0.00     0.103 A 
HETATM    4  C   UNK N   1      32.037  16.965   5.814  0.00  0.00     0.036 A 
HETATM    5  C   UNK N   1      30.639  16.879   5.824  0.00  0.00     0.003 A 
HETATM    6  C   UNK N   1      29.919  17.252   6.968  0.00  0.00     0.008 A 
ENDROOT
BRANCH   1   7
HETATM    7  C   UNK N   1      29.801  18.110   9.326  0.00  0.00     0.148 C 
BRANCH   7   8
HETATM    8  C   UNK N   1      28.289  18.008   9.268  0.00  0.00     0.143 C 
HETATM    9  O   UNK N   1      27.750  16.999   9.689  0.00  0.00    -0.650 OA
BRANCH   8  10
HETATM   10  O   UNK N   1      27.522  18.996   8.766  0.00  0.00    -0.776 OA
HETATM   11  H   UNK N   1      27.918  19.706   8.300  0.00  0.00     0.167 HD
ENDBRANCH   8  10
ENDBRANCH   7   8
ENDBRANCH   1   7
BRANCH   3  12
HETATM   12  N   UNK N   1      34.136  17.523   6.969  0.00  0.00    -0.116 N 
HETATM   13  O   UNK N   1      34.871  16.628   6.343  0.00  0.00    -0.532 OA
HETATM   14  O   UNK N   1      34.670  18.418   7.551  0.00  0.00    -0.532 OA
ENDBRANCH   3  12
TORSDOF 4
ENDMDL
MODEL 3
REMARK VINA RESULT:      -5.5      3.107      4.248
REMARK  4 active torsions:
REMARK  status: ('A' for Active; 'I' for Inactive)
REMARK    1  A    between atoms: C_1  and  C_2 
REMARK    2  A    between atoms: C_1  and  O_13 
REMARK    3  A    between atoms: C_2  and  C_3 
REMARK    4  A    between atoms: C_5  and  N_6 
ROOT
HETATM    1  C   UNK N   1      32.689  17.395   5.510  0.00  0.00    -0.046 A 
HETATM    2  C   UNK N   1      33.726  17.743   6.377  0.00  0.00     0.043 A 
HETATM    3  C   UNK N   1      33.527  17.826   7.755  0.00  0.00     0.103 A 
HETATM    4  C   UNK N   1      32.256  17.552   8.280  0.00  0.00     0.036 A 
HETATM    5  C   UNK N   1      31.206  17.201   7.423  0.00  0.00     0.003 A 
HETATM    6  C   UNK N   1      31.423  17.123   6.040  0.00  0.00     0.008 A 
ENDROOT
BRANCH   1   7
HETATM    7  C   UNK N   1      32.903  17.305   4.019  0.00  0.00     0.148 C 
BRANCH   7   8
HETATM    8  C   UNK N   1      31.937  16.469   3.202  0.00  0.00     0.143 C 
HETATM    9  O   UNK N   1      32.120  15.266   3.124  0.00  0.00    -0.650 OA
BRANCH   8  10
HETATM   10  O   UNK N   1      30.884  17.012   2.558  0.00  0.00    -0.776 OA
HETATM   11  H   UNK N   1      30.107  16.507   2.422  0.00  0.00     0.167 HD
ENDBRANCH   8  10
ENDBRANCH   7   8
ENDBRANCH   1   7
BRANCH   3  12
HETATM   12  N   UNK N   1      34.611  18.185   8.601  0.00  0.00    -0.116 N 
HETATM   13  O   UNK N   1      34.918  17.436   9.640  0.00  0.00    -0.532 OA
HETATM   14  O   UNK N   1      35.251  19.168   8.376  0.00  0.00    -0.532 OA
ENDBRANCH   3  12
TORSDOF 4
ENDMDL
MODEL 4
REMARK VINA RESULT:      -5.4      1.805      4.418
REMARK  4 active torsions:
REMARK  status: ('A' for Active; 'I' for Inactive)
REMARK    1  A    between atoms: C_1  and  C_2 
REMARK    2  A    between atoms: C_1  and  O_13 
REMARK    3  A    between atoms: C_2  and  C_3 
REMARK    4  A    between atoms: C_5  and  N_6 
ROOT
HETATM    1  C   UNK N   1      32.184  17.367   7.225  0.00  0.00    -0.046 A 
HETATM    2  C   UNK N   1      31.402  17.681   8.338  0.00  0.00     0.043 A 
HETATM    3  C   UNK N   1      30.009  17.720   8.262  0.00  0.00     0.103 A 
HETATM    4  C   UNK N   1      29.383  17.437   7.039  0.00  0.00     0.036 A 
HETATM    5  C   UNK N   1      30.155  17.121   5.915  0.00  0.00     0.003 A 
HETATM    6  C   UNK N   1      31.553  17.086   6.008  0.00  0.00     0.008 A 
ENDROOT
BRANCH   1   7
HETATM    7  C   UNK N   1      33.690  17.325   7.306  0.00  0.00     0.148 C 
BRANCH   7   8
HETATM    8  C   UNK N   1      34.368  17.988   8.490  0.00  0.00     0.143 C 
HETATM    9  O   UNK N   1      34.893  19.077   8.334  0.00  0.00    -0.650 OA
BRANCH   8  10
HETATM   10  O   UNK N   1      34.408  17.413   9.708  0.00  0.00    -0.776 OA
HETATM   11  H   UNK N   1      33.922  17.784  10.418  0.00  0.00     0.167 HD
ENDBRANCH   8  10
ENDBRANCH   7   8
ENDBRANCH   1   7
BRANCH   3  12
HETATM   12  N   UNK N   1      29.251  18.044   9.420  0.00  0.00    -0.116 N 
HETATM   13  O   UNK N   1      29.714  18.911  10.295  0.00  0.00    -0.532 OA
HETATM   14  O   UNK N   1      28.189  17.531   9.606  0.00  0.00    -0.532 OA
ENDBRANCH   3  12
TORSDOF 4
ENDMDL
MODEL 5
REMARK VINA RESULT:      -5.3     13.206     14.143
REMARK  4 active torsions:
REMARK  status: ('A' for Active; 'I' for Inactive)
REMARK    1  A    between atoms: C_1  and  C_2 
REMARK    2  A    between atoms: C_1  and  O_13 
REMARK    3  A    between atoms: C_2  and  C_3 
REMARK    4  A    between atoms: C_5  and  N_6 
ROOT
HETATM    1  C   UNK N   1      28.601  23.374  -5.193  0.00  0.00    -0.046 A 
HETATM    2  C   UNK N   1      29.300  23.360  -3.984  0.00  0.00     0.043 A 
HETATM    3  C   UNK N   1      30.252  22.380  -3.703  0.00  0.00     0.103 A 
HETATM    4  C   UNK N   1      30.512  21.386  -4.658  0.00  0.00     0.036 A 
HETATM    5  C   UNK N   1      29.819  21.386  -5.875  0.00  0.00     0.003 A 
HETATM    6  C   UNK N   1      28.866  22.379  -6.141  0.00  0.00     0.008 A 
ENDROOT
BRANCH   1   7
HETATM    7  C   UNK N   1      27.572  24.433  -5.498  0.00  0.00     0.148 C 
BRANCH   7   8
HETATM    8  C   UNK N   1      26.213  24.332  -4.830  0.00  0.00     0.143 C 
HETATM    9  O   UNK N   1      25.219  24.234  -5.529  0.00  0.00    -0.650 OA
BRANCH   8  10
HETATM   10  O   UNK N   1      26.070  24.346  -3.490  0.00  0.00    -0.776 OA
HETATM   11  H   UNK N   1      26.549  24.964  -2.974  0.00  0.00     0.167 HD
ENDBRANCH   8  10
ENDBRANCH   7   8
ENDBRANCH   1   7
BRANCH   3  12
HETATM   12  N   UNK N   1      30.940  22.404  -2.460  0.00  0.00    -0.116 N 
HETATM   13  O   UNK N   1      30.428  23.046  -1.430  0.00  0.00    -0.532 OA
HETATM   14  O   UNK N   1      31.987  21.843  -2.340  0.00  0.00    -0.532 OA
ENDBRANCH   3  12
TORSDOF 4
ENDMDL
MODEL 6
REMARK VINA RESULT:      -5.3     10.029     11.391
REMARK  4 active torsions:
REMARK  status: ('A' for Active; 'I' for Inactive)
REMARK    1  A    between atoms: C_1  and  C_2 
REMARK    2  A    between atoms: C_1  and  O_13 
REMARK    3  A    between atoms: C_2  and  C_3 
REMARK    4  A    between atoms: C_5  and  N_6 
ROOT
HETATM    1  C   UNK N   1      21.835  19.692   3.210  0.00  0.00    -0.046 A 
HETATM    2  C   UNK N   1      23.077  20.268   2.935  0.00  0.00     0.043 A 
HETATM    3  C   UNK N   1      24.243  19.817   3.555  0.00  0.00     0.103 A 
HETATM    4  C   UNK N   1      24.163  18.761   4.475  0.00  0.00     0.036 A 
HETATM    5  C   UNK N   1      22.925  18.173   4.760  0.00  0.00     0.003 A 
HETATM    6  C   UNK N   1      21.763  18.639   4.129  0.00  0.00     0.008 A 
ENDROOT
BRANCH   1   7
HETATM    7  C   UNK N   1      20.574  20.179   2.541  0.00  0.00     0.148 C 
BRANCH   7   8
HETATM    8  C   UNK N   1      20.666  20.693   1.116  0.00  0.00     0.143 C 
HETATM    9  O   UNK N   1      20.741  21.895   0.928  0.00  0.00    -0.650 OA
BRANCH   8  10
HETATM   10  O   UNK N   1      20.667  19.864   0.053  0.00  0.00    -0.776 OA
HETATM   11  H   UNK N   1      21.474  19.647  -0.371  0.00  0.00     0.167 HD
ENDBRANCH   8  10
ENDBRANCH   7   8
ENDBRANCH   1   7
BRANCH   3  12
HETATM   12  N   UNK N   1      25.486  20.432   3.246  0.00  0.00    -0.116 N 
HETATM   13  O   UNK N   1      25.671  21.003   2.075  0.00  0.00    -0.532 OA
HETATM   14  O   UNK N   1      26.372  20.434   4.047  0.00  0.00    -0.532 OA
ENDBRANCH   3  12
TORSDOF 4
ENDMDL
MODEL 7
REMARK VINA RESULT:      -5.2     14.414     15.488
REMARK  4 active torsions:
REMARK  status: ('A' for Active; 'I' for Inactive)
REMARK    1  A    between atoms: C_1  and  C_2 
REMARK    2  A    between atoms: C_1  and  O_13 
REMARK    3  A    between atoms: C_2  and  C_3 
REMARK    4  A    between atoms: C_5  and  N_6 
ROOT
HETATM    1  C   UNK N   1      27.917  24.471  -4.134  0.00  0.00    -0.046 A 
HETATM    2  C   UNK N   1      27.470  25.744  -3.777  0.00  0.00     0.043 A 
HETATM    3  C   UNK N   1      26.290  26.276  -4.298  0.00  0.00     0.103 A 
HETATM    4  C   UNK N   1      25.538  25.512  -5.202  0.00  0.00     0.036 A 
HETATM    5  C   UNK N   1      25.974  24.234  -5.571  0.00  0.00     0.003 A 
HETATM    6  C   UNK N   1      27.161  23.715  -5.037  0.00  0.00     0.008 A 
ENDROOT
BRANCH   1   7
HETATM    7  C   UNK N   1      29.193  23.895  -3.571  0.00  0.00     0.148 C 
BRANCH   7   8
HETATM    8  C   UNK N   1      29.154  23.274  -2.188  0.00  0.00     0.143 C 
HETATM    9  O   UNK N   1      28.073  23.014  -1.689  0.00  0.00    -0.650 OA
BRANCH   8  10
HETATM   10  O   UNK N   1      30.276  23.002  -1.492  0.00  0.00    -0.776 OA
HETATM   11  H   UNK N   1      30.276  22.320  -0.850  0.00  0.00     0.167 HD
ENDBRANCH   8  10
ENDBRANCH   7   8
ENDBRANCH   1   7
BRANCH   3  12
HETATM   12  N   UNK N   1      25.873  27.576  -3.906  0.00  0.00    -0.116 N 
HETATM   13  O   UNK N   1      25.909  28.573  -4.766  0.00  0.00    -0.532 OA
HETATM   14  O   UNK N   1      25.485  27.774  -2.794  0.00  0.00    -0.532 OA
ENDBRANCH   3  12
TORSDOF 4
ENDMDL
MODEL 8
REMARK VINA RESULT:      -5.1     11.326     12.333
REMARK  4 active torsions:
REMARK  status: ('A' for Active; 'I' for Inactive)
REMARK    1  A    between atoms: C_1  and  C_2 
REMARK    2  A    between atoms: C_1  and  O_13 
REMARK    3  A    between atoms: C_2  and  C_3 
REMARK    4  A    between atoms: C_5  and  N_6 
ROOT
HETATM    1  C   UNK N   1      21.295  12.912   9.704  0.00  0.00    -0.046 A 
HETATM    2  C   UNK N   1      20.695  14.171   9.767  0.00  0.00     0.043 A 
HETATM    3  C   UNK N   1      20.400  14.896   8.612  0.00  0.00     0.103 A 
HETATM    4  C   UNK N   1      20.714  14.346   7.360  0.00  0.00     0.036 A 
HETATM    5  C   UNK N   1      21.315  13.084   7.282  0.00  0.00     0.003 A 
HETATM    6  C   UNK N   1      21.605  12.369   8.452  0.00  0.00     0.008 A 
ENDROOT
BRANCH   1   7
HETATM    7  C   UNK N   1      21.614  12.127  10.952  0.00  0.00     0.148 C 
BRANCH   7   8
HETATM    8  C   UNK N   1      23.004  12.253  11.547  0.00  0.00     0.143 C 
HETATM    9  O   UNK N   1      23.202  11.834  12.674  0.00  0.00    -0.650 OA
BRANCH   8  10
HETATM   10  O   UNK N   1      24.026  12.814  10.870  0.00  0.00    -0.776 OA
HETATM   11  H   UNK N   1      24.537  12.297  10.279  0.00  0.00     0.167 HD
ENDBRANCH   8  10
ENDBRANCH   7   8
ENDBRANCH   1   7
BRANCH   3  12
HETATM   12  N   UNK N   1      19.789  16.174   8.722  0.00  0.00    -0.116 N 
HETATM   13  O   UNK N   1      18.478  16.290   8.682  0.00  0.00    -0.532 OA
HETATM   14  O   UNK N   1      20.461  17.153   8.851  0.00  0.00    -0.532 OA
ENDBRANCH   3  12
TORSDOF 4
ENDMDL
MODEL 9
REMARK VINA RESULT:      -5.1      9.817     10.865
REMARK  4 active torsions:
REMARK  status: ('A' for Active; 'I' for Inactive)
REMARK    1  A    between atoms: C_1  and  C_2 
REMARK    2  A    between atoms: C_1  and  O_13 
REMARK    3  A    between atoms: C_2  and  C_3 
REMARK    4  A    between atoms: C_5  and  N_6 
ROOT
HETATM    1  C   UNK N   1      35.967  11.995  15.580  0.00  0.00    -0.046 A 
HETATM    2  C   UNK N   1      35.729  12.980  16.540  0.00  0.00     0.043 A 
HETATM    3  C   UNK N   1      35.349  12.653  17.842  0.00  0.00     0.103 A 
HETATM    4  C   UNK N   1      35.202  11.303  18.192  0.00  0.00     0.036 A 
HETATM    5  C   UNK N   1      35.436  10.304  17.239  0.00  0.00     0.003 A 
HETATM    6  C   UNK N   1      35.818  10.650  15.936  0.00  0.00     0.008 A 
ENDROOT
BRANCH   1   7
HETATM    7  C   UNK N   1      36.378  12.348  14.172  0.00  0.00     0.148 C 
BRANCH   7   8
HETATM    8  C   UNK N   1      35.921  13.676  13.598  0.00  0.00     0.143 C 
HETATM    9  O   UNK N   1      34.799  13.761  13.131  0.00  0.00    -0.650 OA
BRANCH   8  10
HETATM   10  O   UNK N   1      36.716  14.765  13.589  0.00  0.00    -0.776 OA
HETATM   11  H   UNK N   1      36.527  15.478  13.012  0.00  0.00     0.167 HD
ENDBRANCH   8  10
ENDBRANCH   7   8
ENDBRANCH   1   7
BRANCH   3  12
HETATM   12  N   UNK N   1      35.118  13.688  18.787  0.00  0.00    -0.116 N 
HETATM   13  O   UNK N   1      34.736  13.394  20.013  0.00  0.00    -0.532 OA
HETATM   14  O   UNK N   1      35.267  14.831  18.477  0.00  0.00    -0.532 OA
ENDBRANCH   3  12
TORSDOF 4
ENDMDL
