MODEL 1
REMARK VINA RESULT:      -4.8      0.000      0.000
REMARK  0 active torsions:
REMARK  status: ('A' for Active; 'I' for Inactive)
REMARK       I    between atoms: N_1  and  C_2 
ROOT
HETATM    1  N   UNK N   1      29.880  17.343   9.846  0.00  0.00    -0.234 N 
HETATM    2  C   UNK N   1      30.714  17.359   8.711  0.00  0.00     0.676 A 
HETATM    3  N   UNK N   1      32.018  17.701   8.832  0.00  0.00    -0.196 N 
ATOM      4  HN  UNK N   1      32.389  17.947   9.750  1.00  0.00     0.184 HD
HETATM    5  C   UNK N   1      32.837  17.723   7.751  0.00  0.00     0.031 A 
HETATM    6  C   UNK N   1      34.267  18.108   7.946  0.00  0.00     0.069 C 
HETATM    7  C   UNK N   1      32.337  17.386   6.477  0.00  0.00    -0.003 A 
HETATM    8  N   UNK N   1      30.210  17.032   7.498  0.00  0.00    -0.195 N 
ATOM      9  HN  UNK N   1      29.225  16.776   7.424  1.00  0.00     0.184 HD
HETATM   10  C   UNK N   1      30.977  17.033   6.376  0.00  0.00     0.036 A 
HETATM   11  C   UNK N   1      30.289  16.652   5.110  0.00  0.00     0.068 A 
HETATM   12  C   UNK N   1      31.007  16.606   3.776  0.00  0.00     0.080 A 
HETATM   13  S   UNK N   1      32.771  17.017   3.629  0.00  0.00    -0.164 SA
HETATM   14  C   UNK N   1      33.291  17.428   5.322  0.00  0.00     0.116 A 
HETATM   15  H   UNK N   1      30.246  17.581  10.729  0.00  0.00     0.174 HD
HETATM   16  H   UNK N   1      28.932  17.094   9.757  0.00  0.00     0.174 HD
ENDROOT
TORSDOF 0
ENDMDL
MODEL 2
REMARK VINA RESULT:      -4.8      1.933      3.178
REMARK  0 active torsions:
REMARK  status: ('A' for Active; 'I' for Inactive)
REMARK       I    between atoms: N_1  and  C_2 
ROOT
HETATM    1  N   UNK N   1      34.537  17.237   9.801  0.00  0.00    -0.234 N 
HETATM    2  C   UNK N   1      33.557  17.247   8.790  0.00  0.00     0.676 A 
HETATM    3  N   UNK N   1      33.926  17.226   7.488  0.00  0.00    -0.196 N 
ATOM      4  HN  UNK N   1      34.917  17.203   7.247  1.00  0.00     0.184 HD
HETATM    5  C   UNK N   1      32.997  17.234   6.500  0.00  0.00     0.031 A 
HETATM    6  C   UNK N   1      33.465  17.210   5.081  0.00  0.00     0.069 C 
HETATM    7  C   UNK N   1      31.624  17.265   6.818  0.00  0.00    -0.003 A 
HETATM    8  N   UNK N   1      32.245  17.277   9.121  0.00  0.00    -0.195 N 
ATOM      9  HN  UNK N   1      31.984  17.292  10.107  1.00  0.00     0.184 HD
HETATM   10  C   UNK N   1      31.265  17.287   8.179  0.00  0.00     0.036 A 
HETATM   11  C   UNK N   1      29.865  17.320   8.689  0.00  0.00     0.068 A 
HETATM   12  C   UNK N   1      28.663  17.335   7.765  0.00  0.00     0.080 A 
HETATM   13  S   UNK N   1      28.851  17.313   5.957  0.00  0.00    -0.164 SA
HETATM   14  C   UNK N   1      30.647  17.273   5.681  0.00  0.00     0.116 A 
HETATM   15  H   UNK N   1      35.492  17.216   9.561  0.00  0.00     0.174 HD
HETATM   16  H   UNK N   1      34.267  17.253  10.748  0.00  0.00     0.174 HD
ENDROOT
TORSDOF 0
ENDMDL
MODEL 3
REMARK VINA RESULT:      -4.8     10.187     11.644
REMARK  0 active torsions:
REMARK  status: ('A' for Active; 'I' for Inactive)
REMARK       I    between atoms: N_1  and  C_2 
ROOT
HETATM    1  N   UNK N   1      20.311  21.148   0.443  0.00  0.00    -0.234 N 
HETATM    2  C   UNK N   1      20.847  20.369   1.485  0.00  0.00     0.676 A 
HETATM    3  N   UNK N   1      22.088  20.631   1.959  0.00  0.00    -0.196 N 
ATOM      4  HN  UNK N   1      22.628  21.396   1.555  1.00  0.00     0.184 HD
HETATM    5  C   UNK N   1      22.622  19.891   2.962  0.00  0.00     0.031 A 
HETATM    6  C   UNK N   1      23.996  20.227   3.444  0.00  0.00     0.069 C 
HETATM    7  C   UNK N   1      21.887  18.830   3.530  0.00  0.00    -0.003 A 
HETATM    8  N   UNK N   1      20.121  19.355   2.014  0.00  0.00    -0.195 N 
ATOM      9  HN  UNK N   1      19.188  19.171   1.645  1.00  0.00     0.184 HD
HETATM   10  C   UNK N   1      20.599  18.577   3.020  0.00  0.00     0.036 A 
HETATM   11  C   UNK N   1      19.690  17.499   3.504  0.00  0.00     0.068 A 
HETATM   12  C   UNK N   1      20.078  16.548   4.619  0.00  0.00     0.080 A 
HETATM   13  S   UNK N   1      21.690  16.660   5.450  0.00  0.00    -0.164 SA
HETATM   14  C   UNK N   1      22.532  18.050   4.635  0.00  0.00     0.116 A 
HETATM   15  H   UNK N   1      20.838  21.885   0.058  0.00  0.00     0.174 HD
HETATM   16  H   UNK N   1      19.408  20.957   0.100  0.00  0.00     0.174 HD
ENDROOT
TORSDOF 0
ENDMDL
MODEL 4
REMARK VINA RESULT:      -4.8      8.853     10.140
REMARK  0 active torsions:
REMARK  status: ('A' for Active; 'I' for Inactive)
REMARK       I    between atoms: N_1  and  C_2 
ROOT
HETATM    1  N   UNK N   1      37.555  15.761  16.188  0.00  0.00    -0.234 N 
HETATM    2  C   UNK N   1      36.885  14.818  15.386  0.00  0.00     0.676 A 
HETATM    3  N   UNK N   1      36.833  14.984  14.044  0.00  0.00    -0.196 N 
ATOM      4  HN  UNK N   1      37.282  15.795  13.621  1.00  0.00     0.184 HD
HETATM    5  C   UNK N   1      36.192  14.086  13.255  0.00  0.00     0.031 A 
HETATM    6  C   UNK N   1      36.168  14.321  11.780  0.00  0.00     0.069 C 
HETATM    7  C   UNK N   1      35.566  12.959  13.826  0.00  0.00    -0.003 A 
HETATM    8  N   UNK N   1      36.292  13.744  15.959  0.00  0.00    -0.195 N 
ATOM      9  HN  UNK N   1      36.340  13.634  16.972  1.00  0.00     0.184 HD
HETATM   10  C   UNK N   1      35.634  12.809  15.225  0.00  0.00     0.036 A 
HETATM   11  C   UNK N   1      35.029  11.681  15.989  0.00  0.00     0.068 A 
HETATM   12  C   UNK N   1      34.264  10.559  15.314  0.00  0.00     0.080 A 
HETATM   13  S   UNK N   1      34.031  10.514  13.513  0.00  0.00    -0.164 SA
HETATM   14  C   UNK N   1      34.874  12.004  12.902  0.00  0.00     0.116 A 
HETATM   15  H   UNK N   1      37.987  16.543  15.772  0.00  0.00     0.174 HD
HETATM   16  H   UNK N   1      37.592  15.640  17.164  0.00  0.00     0.174 HD
ENDROOT
TORSDOF 0
ENDMDL
MODEL 5
REMARK VINA RESULT:      -4.8      1.581      2.928
REMARK  0 active torsions:
REMARK  status: ('A' for Active; 'I' for Inactive)
REMARK       I    between atoms: N_1  and  C_2 
ROOT
HETATM    1  N   UNK N   1      34.915  17.568   9.493  0.00  0.00    -0.234 N 
HETATM    2  C   UNK N   1      33.798  17.464   8.642  0.00  0.00     0.676 A 
HETATM    3  N   UNK N   1      32.556  17.342   9.165  0.00  0.00    -0.196 N 
ATOM      4  HN  UNK N   1      32.437  17.327  10.177  1.00  0.00     0.184 HD
HETATM    5  C   UNK N   1      31.468  17.240   8.361  0.00  0.00     0.031 A 
HETATM    6  C   UNK N   1      30.122  17.108   8.996  0.00  0.00     0.069 C 
HETATM    7  C   UNK N   1      31.618  17.260   6.959  0.00  0.00    -0.003 A 
HETATM    8  N   UNK N   1      33.968  17.485   7.299  0.00  0.00    -0.195 N 
ATOM      9  HN  UNK N   1      34.911  17.578   6.921  1.00  0.00     0.184 HD
HETATM   10  C   UNK N   1      32.920  17.388   6.439  0.00  0.00     0.036 A 
HETATM   11  C   UNK N   1      33.256  17.426   4.987  0.00  0.00     0.068 A 
HETATM   12  C   UNK N   1      32.199  17.328   3.906  0.00  0.00     0.080 A 
HETATM   13  S   UNK N   1      30.435  17.156   4.309  0.00  0.00    -0.164 SA
HETATM   14  C   UNK N   1      30.378  17.144   6.126  0.00  0.00     0.116 A 
HETATM   15  H   UNK N   1      34.792  17.552  10.470  0.00  0.00     0.174 HD
HETATM   16  H   UNK N   1      35.818  17.657   9.111  0.00  0.00     0.174 HD
ENDROOT
TORSDOF 0
ENDMDL
MODEL 6
REMARK VINA RESULT:      -4.7     11.204     12.583
REMARK  0 active torsions:
REMARK  status: ('A' for Active; 'I' for Inactive)
REMARK       I    between atoms: N_1  and  C_2 
ROOT
HETATM    1  N   UNK N   1      20.559  20.869   0.441  0.00  0.00    -0.234 N 
HETATM    2  C   UNK N   1      20.562  19.697   1.221  0.00  0.00     0.676 A 
HETATM    3  N   UNK N   1      20.228  18.510   0.664  0.00  0.00    -0.196 N 
ATOM      4  HN  UNK N   1      19.974  18.473  -0.323  1.00  0.00     0.184 HD
HETATM    5  C   UNK N   1      20.225  17.370   1.399  0.00  0.00     0.031 A 
HETATM    6  C   UNK N   1      19.847  16.089   0.729  0.00  0.00     0.069 C 
HETATM    7  C   UNK N   1      20.574  17.406   2.764  0.00  0.00    -0.003 A 
HETATM    8  N   UNK N   1      20.901  19.758   2.531  0.00  0.00    -0.195 N 
ATOM      9  HN  UNK N   1      21.150  20.660   2.935  1.00  0.00     0.184 HD
HETATM   10  C   UNK N   1      20.918  18.653   3.322  0.00  0.00     0.036 A 
HETATM   11  C   UNK N   1      21.310  18.870   4.743  0.00  0.00     0.068 A 
HETATM   12  C   UNK N   1      21.377  17.738   5.750  0.00  0.00     0.080 A 
HETATM   13  S   UNK N   1      20.980  16.026   5.287  0.00  0.00    -0.164 SA
HETATM   14  C   UNK N   1      20.552  16.114   3.522  0.00  0.00     0.116 A 
HETATM   15  H   UNK N   1      20.312  20.825  -0.511  0.00  0.00     0.174 HD
HETATM   16  H   UNK N   1      20.802  21.732   0.848  0.00  0.00     0.174 HD
ENDROOT
TORSDOF 0
ENDMDL
MODEL 7
REMARK VINA RESULT:      -4.7     12.015     13.070
REMARK  0 active torsions:
REMARK  status: ('A' for Active; 'I' for Inactive)
REMARK       I    between atoms: N_1  and  C_2 
ROOT
HETATM    1  N   UNK N   1      35.957  10.797  21.302  0.00  0.00    -0.234 N 
HETATM    2  C   UNK N   1      35.663  11.305  20.022  0.00  0.00     0.676 A 
HETATM    3  N   UNK N   1      35.589  12.642  19.823  0.00  0.00    -0.196 N 
ATOM      4  HN  UNK N   1      35.747  13.275  20.606  1.00  0.00     0.184 HD
HETATM    5  C   UNK N   1      35.307  13.150  18.598  0.00  0.00     0.031 A 
HETATM    6  C   UNK N   1      35.238  14.634  18.439  0.00  0.00     0.069 C 
HETATM    7  C   UNK N   1      35.086  12.286  17.506  0.00  0.00    -0.003 A 
HETATM    8  N   UNK N   1      35.455  10.454  18.989  0.00  0.00    -0.195 N 
ATOM      9  HN  UNK N   1      35.515   9.450  19.156  1.00  0.00     0.184 HD
HETATM   10  C   UNK N   1      35.169  10.899  17.737  0.00  0.00     0.036 A 
HETATM   11  C   UNK N   1      34.963   9.850  16.699  0.00  0.00     0.068 A 
HETATM   12  C   UNK N   1      34.638  10.186  15.257  0.00  0.00     0.080 A 
HETATM   13  S   UNK N   1      34.474  11.905  14.692  0.00  0.00    -0.164 SA
HETATM   14  C   UNK N   1      34.778  12.908  16.177  0.00  0.00     0.116 A 
HETATM   15  H   UNK N   1      36.109  11.415  22.053  0.00  0.00     0.174 HD
HETATM   16  H   UNK N   1      36.011   9.825  21.445  0.00  0.00     0.174 HD
ENDROOT
TORSDOF 0
ENDMDL
MODEL 8
REMARK VINA RESULT:      -4.6     10.345     11.705
REMARK  0 active torsions:
REMARK  status: ('A' for Active; 'I' for Inactive)
REMARK       I    between atoms: N_1  and  C_2 
ROOT
HETATM    1  N   UNK N   1      36.412  14.949  12.966  0.00  0.00    -0.234 N 
HETATM    2  C   UNK N   1      36.492  13.811  13.791  0.00  0.00     0.676 A 
HETATM    3  N   UNK N   1      37.151  12.709  13.363  0.00  0.00    -0.196 N 
ATOM      4  HN  UNK N   1      37.588  12.711  12.441  1.00  0.00     0.184 HD
HETATM    5  C   UNK N   1      37.239  11.602  14.142  0.00  0.00     0.031 A 
HETATM    6  C   UNK N   1      37.980  10.416  13.617  0.00  0.00     0.069 C 
HETATM    7  C   UNK N   1      36.641  11.585  15.419  0.00  0.00    -0.003 A 
HETATM    8  N   UNK N   1      35.909  13.819  15.012  0.00  0.00    -0.195 N 
ATOM      9  HN  UNK N   1      35.416  14.657  15.320  1.00  0.00     0.184 HD
HETATM   10  C   UNK N   1      35.960  12.743  15.841  0.00  0.00     0.036 A 
HETATM   11  C   UNK N   1      35.274  12.894  17.156  0.00  0.00     0.068 A 
HETATM   12  C   UNK N   1      35.242  11.785  18.189  0.00  0.00     0.080 A 
HETATM   13  S   UNK N   1      36.047  10.182  17.892  0.00  0.00    -0.164 SA
HETATM   14  C   UNK N   1      36.773  10.333  16.232  0.00  0.00     0.116 A 
HETATM   15  H   UNK N   1      36.836  14.944  12.078  0.00  0.00     0.174 HD
HETATM   16  H   UNK N   1      35.932  15.750  13.279  0.00  0.00     0.174 HD
ENDROOT
TORSDOF 0
ENDMDL
MODEL 9
REMARK VINA RESULT:      -4.6     12.265     13.710
REMARK  0 active torsions:
REMARK  status: ('A' for Active; 'I' for Inactive)
REMARK       I    between atoms: N_1  and  C_2 
ROOT
HETATM    1  N   UNK N   1      44.998  25.445   1.493  0.00  0.00    -0.234 N 
HETATM    2  C   UNK N   1      44.403  24.261   1.969  0.00  0.00     0.676 A 
HETATM    3  N   UNK N   1      45.125  23.391   2.714  0.00  0.00    -0.196 N 
ATOM      4  HN  UNK N   1      46.100  23.601   2.925  1.00  0.00     0.184 HD
HETATM    5  C   UNK N   1      44.570  22.246   3.181  0.00  0.00     0.031 A 
HETATM    6  C   UNK N   1      45.416  21.325   3.998  0.00  0.00     0.069 C 
HETATM    7  C   UNK N   1      43.223  21.943   2.896  0.00  0.00    -0.003 A 
HETATM    8  N   UNK N   1      43.108  23.993   1.682  0.00  0.00    -0.195 N 
ATOM      9  HN  UNK N   1      42.578  24.659   1.119  1.00  0.00     0.184 HD
HETATM   10  C   UNK N   1      42.493  22.864   2.120  0.00  0.00     0.036 A 
HETATM   11  C   UNK N   1      41.064  22.700   1.727  0.00  0.00     0.068 A 
HETATM   12  C   UNK N   1      40.241  21.495   2.138  0.00  0.00     0.080 A 
HETATM   13  S   UNK N   1      40.946  20.157   3.146  0.00  0.00    -0.164 SA
HETATM   14  C   UNK N   1      42.667  20.663   3.442  0.00  0.00     0.116 A 
HETATM   15  H   UNK N   1      45.941  25.641   1.701  0.00  0.00     0.174 HD
HETATM   16  H   UNK N   1      44.472  26.077   0.951  0.00  0.00     0.174 HD
ENDROOT
TORSDOF 0
ENDMDL
