MODEL 1
REMARK VINA RESULT:      -6.8      0.000      0.000
REMARK  10 active torsions:
REMARK  status: ('A' for Active; 'I' for Inactive)
REMARK    1  A    between atoms: C_1  and  O_27 
REMARK    2  A    between atoms: C_2  and  C_7 
REMARK    3  A    between atoms: C_7  and  S_11 
REMARK    4  A    between atoms: C_8  and  C_9 
REMARK    5  A    between atoms: C_8  and  S_11 
REMARK    6  A    between atoms: C_9  and  C_10 
REMARK    7  A    between atoms: C_9  and  O_12 
REMARK       I    between atoms: C_10  and  N_15 
REMARK    8  A    between atoms: O_12  and  C_19 
REMARK    9  A    between atoms: N_15  and  C_17 
REMARK       I    between atoms: C_19  and  N_20 
REMARK   10  A    between atoms: O_27  and  C_28 
ROOT
HETATM    1  C   UNK N   1      20.270  19.752   3.100  0.00  0.00     0.247 C 
HETATM    2  C   UNK N   1      20.706  20.495   1.914  0.00  0.00     0.078 C 
HETATM    3  N   UNK N   1      21.056  21.064   0.969  0.00  0.00    -0.196 NA
ENDROOT
BRANCH   1   4
HETATM    4  N   UNK N   1      20.504  18.341   2.932  0.00  0.00    -0.347 N 
HETATM    5  C   UNK N   1      21.519  17.678   3.546  0.00  0.00     0.249 C 
HETATM    6  O   UNK N   1      21.702  16.503   3.265  0.00  0.00    -0.271 OA
HETATM    7  H   UNK N   1      19.899  17.832   2.345  0.00  0.00     0.163 HD
BRANCH   5   8
HETATM    8  C   UNK N   1      22.436  18.361   4.553  0.00  0.00     0.239 C 
BRANCH   8   9
HETATM    9  C   UNK N   1      23.911  18.150   4.205  0.00  0.00     0.182 C 
BRANCH   9  10
HETATM   10  S   UNK N   1      24.896  19.646   3.921  0.00  0.00     0.151 S 
HETATM   11  O   UNK N   1      25.463  18.978   2.670  0.00  0.00    -0.227 OA
HETATM   12  O   UNK N   1      24.068  20.599   3.050  0.00  0.00    -0.227 OA
BRANCH  10  13
HETATM   13  C   UNK N   1      26.549  20.330   4.168  0.00  0.00     0.181 C 
BRANCH  13  14
HETATM   14  C   UNK N   1      27.190  19.793   5.401  0.00  0.00    -0.011 A 
HETATM   15  C   UNK N   1      27.976  18.645   5.306  0.00  0.00     0.082 A 
HETATM   16  C   UNK N   1      28.627  18.155   6.451  0.00  0.00     0.037 A 
HETATM   17  C   UNK N   1      28.479  18.812   7.678  0.00  0.00     0.003 A 
HETATM   18  C   UNK N   1      27.697  19.967   7.764  0.00  0.00     0.001 A 
HETATM   19  C   UNK N   1      27.060  20.463   6.625  0.00  0.00     0.011 A 
BRANCH  15  20
HETATM   20  O   UNK N   1      28.084  18.037   4.101  0.00  0.00    -0.290 OA
BRANCH  20  21
HETATM   21  C   UNK N   1      27.964  16.683   3.889  0.00  0.00     0.505 C 
HETATM   22  F   UNK N   1      26.657  16.256   4.013  0.00  0.00    -0.184 F 
HETATM   23  F   UNK N   1      28.434  16.390   2.623  0.00  0.00    -0.184 F 
ENDBRANCH  20  21
ENDBRANCH  15  20
ENDBRANCH  13  14
ENDBRANCH  10  13
ENDBRANCH   9  10
ENDBRANCH   8   9
BRANCH   8  24
HETATM   24  O   UNK N   1      22.317  17.749   5.784  0.00  0.00    -0.288 OA
BRANCH  24  25
HETATM   25  C   UNK N   1      21.263  17.786   6.637  0.00  0.00     0.363 C 
HETATM   26  N   UNK N   1      20.612  16.632   6.939  0.00  0.00    -0.324 N 
HETATM   27  C   UNK N   1      19.423  16.630   7.762  0.00  0.00     0.154 C 
HETATM   28  C   UNK N   1      21.168  15.355   6.555  0.00  0.00     0.154 C 
HETATM   29  C   UNK N   1      19.654  15.664   8.924  0.00  0.00     0.187 C 
HETATM   30  O   UNK N   1      20.022  14.394   8.429  0.00  0.00    -0.388 OA
HETATM   31  C   UNK N   1      21.296  14.527   7.838  0.00  0.00     0.187 C 
HETATM   32  O   UNK N   1      20.882  18.849   7.104  0.00  0.00    -0.238 OA
ENDBRANCH  24  25
ENDBRANCH   8  24
ENDBRANCH   5   8
ENDBRANCH   1   4
TORSDOF 10
ENDMDL
MODEL 2
REMARK VINA RESULT:      -6.8      3.166      7.227
REMARK  10 active torsions:
REMARK  status: ('A' for Active; 'I' for Inactive)
REMARK    1  A    between atoms: C_1  and  O_27 
REMARK    2  A    between atoms: C_2  and  C_7 
REMARK    3  A    between atoms: C_7  and  S_11 
REMARK    4  A    between atoms: C_8  and  C_9 
REMARK    5  A    between atoms: C_8  and  S_11 
REMARK    6  A    between atoms: C_9  and  C_10 
REMARK    7  A    between atoms: C_9  and  O_12 
REMARK       I    between atoms: C_10  and  N_15 
REMARK    8  A    between atoms: O_12  and  C_19 
REMARK    9  A    between atoms: N_15  and  C_17 
REMARK       I    between atoms: C_19  and  N_20 
REMARK   10  A    between atoms: O_27  and  C_28 
ROOT
HETATM    1  C   UNK N   1      20.080  17.315   2.450  0.00  0.00     0.247 C 
HETATM    2  C   UNK N   1      20.123  17.067   1.006  0.00  0.00     0.078 C 
HETATM    3  N   UNK N   1      20.160  16.890  -0.137  0.00  0.00    -0.196 NA
ENDROOT
BRANCH   1   4
HETATM    4  N   UNK N   1      20.250  18.717   2.731  0.00  0.00    -0.347 N 
HETATM    5  C   UNK N   1      21.251  19.201   3.513  0.00  0.00     0.249 C 
HETATM    6  O   UNK N   1      21.257  20.394   3.780  0.00  0.00    -0.271 OA
HETATM    7  H   UNK N   1      19.613  19.355   2.337  0.00  0.00     0.163 HD
BRANCH   5   8
HETATM    8  C   UNK N   1      22.343  18.300   4.075  0.00  0.00     0.239 C 
BRANCH   8   9
HETATM    9  C   UNK N   1      22.132  18.019   5.564  0.00  0.00     0.182 C 
BRANCH   9  10
HETATM   10  S   UNK N   1      22.168  16.279   6.072  0.00  0.00     0.151 S 
HETATM   11  O   UNK N   1      22.282  15.900   4.597  0.00  0.00    -0.227 OA
HETATM   12  O   UNK N   1      23.633  15.883   6.298  0.00  0.00    -0.227 OA
BRANCH  10  13
HETATM   13  C   UNK N   1      21.112  14.825   6.248  0.00  0.00     0.181 C 
BRANCH  13  14
HETATM   14  C   UNK N   1      21.249  14.203   7.595  0.00  0.00    -0.011 A 
HETATM   15  C   UNK N   1      20.380  14.600   8.611  0.00  0.00     0.082 A 
HETATM   16  C   UNK N   1      20.466  13.987   9.872  0.00  0.00     0.037 A 
HETATM   17  C   UNK N   1      21.421  12.990  10.106  0.00  0.00     0.003 A 
HETATM   18  C   UNK N   1      22.283  12.592   9.080  0.00  0.00     0.001 A 
HETATM   19  C   UNK N   1      22.191  13.191   7.822  0.00  0.00     0.011 A 
BRANCH  15  20
HETATM   20  O   UNK N   1      19.478  15.573   8.343  0.00  0.00    -0.290 OA
BRANCH  20  21
HETATM   21  C   UNK N   1      19.474  16.823   8.917  0.00  0.00     0.505 C 
HETATM   22  F   UNK N   1      19.801  17.808   8.008  0.00  0.00    -0.184 F 
HETATM   23  F   UNK N   1      18.219  17.066   9.440  0.00  0.00    -0.184 F 
ENDBRANCH  20  21
ENDBRANCH  15  20
ENDBRANCH  13  14
ENDBRANCH  10  13
ENDBRANCH   9  10
ENDBRANCH   8   9
BRANCH   8  24
HETATM   24  O   UNK N   1      23.554  18.963   4.053  0.00  0.00    -0.288 OA
BRANCH  24  25
HETATM   25  C   UNK N   1      24.793  18.434   3.904  0.00  0.00     0.363 C 
HETATM   26  N   UNK N   1      25.881  19.208   4.157  0.00  0.00    -0.324 N 
HETATM   27  C   UNK N   1      27.223  18.726   3.918  0.00  0.00     0.154 C 
HETATM   28  C   UNK N   1      25.731  20.494   4.800  0.00  0.00     0.154 C 
HETATM   29  C   UNK N   1      28.020  18.883   5.214  0.00  0.00     0.187 C 
HETATM   30  O   UNK N   1      27.952  20.220   5.661  0.00  0.00    -0.388 OA
HETATM   31  C   UNK N   1      26.618  20.467   6.049  0.00  0.00     0.187 C 
HETATM   32  O   UNK N   1      24.933  17.284   3.516  0.00  0.00    -0.238 OA
ENDBRANCH  24  25
ENDBRANCH   8  24
ENDBRANCH   5   8
ENDBRANCH   1   4
TORSDOF 10
ENDMDL
MODEL 3
REMARK VINA RESULT:      -6.5     11.642     13.782
REMARK  10 active torsions:
REMARK  status: ('A' for Active; 'I' for Inactive)
REMARK    1  A    between atoms: C_1  and  O_27 
REMARK    2  A    between atoms: C_2  and  C_7 
REMARK    3  A    between atoms: C_7  and  S_11 
REMARK    4  A    between atoms: C_8  and  C_9 
REMARK    5  A    between atoms: C_8  and  S_11 
REMARK    6  A    between atoms: C_9  and  C_10 
REMARK    7  A    between atoms: C_9  and  O_12 
REMARK       I    between atoms: C_10  and  N_15 
REMARK    8  A    between atoms: O_12  and  C_19 
REMARK    9  A    between atoms: N_15  and  C_17 
REMARK       I    between atoms: C_19  and  N_20 
REMARK   10  A    between atoms: O_27  and  C_28 
ROOT
HETATM    1  C   UNK N   1      26.631  23.669  -6.704  0.00  0.00     0.247 C 
HETATM    2  C   UNK N   1      25.673  23.412  -7.783  0.00  0.00     0.078 C 
HETATM    3  N   UNK N   1      24.902  23.211  -8.623  0.00  0.00    -0.196 NA
ENDROOT
BRANCH   1   4
HETATM    4  N   UNK N   1      25.944  23.991  -5.479  0.00  0.00    -0.347 N 
HETATM    5  C   UNK N   1      26.590  24.267  -4.316  0.00  0.00     0.249 C 
HETATM    6  O   UNK N   1      25.924  24.428  -3.304  0.00  0.00    -0.271 OA
HETATM    7  H   UNK N   1      24.960  24.013  -5.486  0.00  0.00     0.163 HD
BRANCH   5   8
HETATM    8  C   UNK N   1      28.108  24.361  -4.239  0.00  0.00     0.239 C 
BRANCH   8   9
HETATM    9  C   UNK N   1      28.647  23.743  -2.948  0.00  0.00     0.182 C 
BRANCH   9  10
HETATM   10  S   UNK N   1      30.348  23.115  -3.000  0.00  0.00     0.151 S 
HETATM   11  O   UNK N   1      30.833  24.554  -2.836  0.00  0.00    -0.227 OA
HETATM   12  O   UNK N   1      30.777  22.795  -1.562  0.00  0.00    -0.227 OA
BRANCH  10  13
HETATM   13  C   UNK N   1      31.748  22.888  -4.117  0.00  0.00     0.181 C 
BRANCH  13  14
HETATM   14  C   UNK N   1      31.467  21.851  -5.149  0.00  0.00    -0.011 A 
HETATM   15  C   UNK N   1      32.482  20.961  -5.503  0.00  0.00     0.082 A 
HETATM   16  C   UNK N   1      32.217  19.948  -6.439  0.00  0.00     0.037 A 
HETATM   17  C   UNK N   1      30.946  19.838  -7.016  0.00  0.00     0.003 A 
HETATM   18  C   UNK N   1      29.932  20.728  -6.651  0.00  0.00     0.001 A 
HETATM   19  C   UNK N   1      30.190  21.728  -5.711  0.00  0.00     0.011 A 
BRANCH  15  20
HETATM   20  O   UNK N   1      33.697  21.109  -4.926  0.00  0.00    -0.290 OA
BRANCH  20  21
HETATM   21  C   UNK N   1      34.185  20.326  -3.906  0.00  0.00     0.505 C 
HETATM   22  F   UNK N   1      33.994  20.911  -2.671  0.00  0.00    -0.184 F 
HETATM   23  F   UNK N   1      33.548  19.101  -3.946  0.00  0.00    -0.184 F 
ENDBRANCH  20  21
ENDBRANCH  15  20
ENDBRANCH  13  14
ENDBRANCH  10  13
ENDBRANCH   9  10
ENDBRANCH   8   9
BRANCH   8  24
HETATM   24  O   UNK N   1      28.490  25.683  -4.134  0.00  0.00    -0.288 OA
BRANCH  24  25
HETATM   25  C   UNK N   1      28.277  26.687  -5.020  0.00  0.00     0.363 C 
HETATM   26  N   UNK N   1      27.456  27.715  -4.676  0.00  0.00    -0.324 N 
HETATM   27  C   UNK N   1      27.116  28.757  -5.618  0.00  0.00     0.154 C 
HETATM   28  C   UNK N   1      27.005  27.865  -3.311  0.00  0.00     0.154 C 
HETATM   29  C   UNK N   1      27.464  30.103  -4.981  0.00  0.00     0.187 C 
HETATM   30  O   UNK N   1      26.827  30.220  -3.726  0.00  0.00    -0.388 OA
HETATM   31  C   UNK N   1      27.418  29.272  -2.865  0.00  0.00     0.187 C 
HETATM   32  O   UNK N   1      28.790  26.654  -6.129  0.00  0.00    -0.238 OA
ENDBRANCH  24  25
ENDBRANCH   8  24
ENDBRANCH   5   8
ENDBRANCH   1   4
TORSDOF 10
ENDMDL
MODEL 4
REMARK VINA RESULT:      -6.4      9.739     13.172
REMARK  10 active torsions:
REMARK  status: ('A' for Active; 'I' for Inactive)
REMARK    1  A    between atoms: C_1  and  O_27 
REMARK    2  A    between atoms: C_2  and  C_7 
REMARK    3  A    between atoms: C_7  and  S_11 
REMARK    4  A    between atoms: C_8  and  C_9 
REMARK    5  A    between atoms: C_8  and  S_11 
REMARK    6  A    between atoms: C_9  and  C_10 
REMARK    7  A    between atoms: C_9  and  O_12 
REMARK       I    between atoms: C_10  and  N_15 
REMARK    8  A    between atoms: O_12  and  C_19 
REMARK    9  A    between atoms: N_15  and  C_17 
REMARK       I    between atoms: C_19  and  N_20 
REMARK   10  A    between atoms: O_27  and  C_28 
ROOT
HETATM    1  C   UNK N   1      31.413  16.425   8.380  0.00  0.00     0.247 C 
HETATM    2  C   UNK N   1      30.521  17.057   7.404  0.00  0.00     0.078 C 
HETATM    3  N   UNK N   1      29.826  17.572   6.635  0.00  0.00    -0.196 NA
ENDROOT
BRANCH   1   4
HETATM    4  N   UNK N   1      32.423  17.353   8.822  0.00  0.00    -0.347 N 
HETATM    5  C   UNK N   1      33.741  17.034   8.900  0.00  0.00     0.249 C 
HETATM    6  O   UNK N   1      34.511  17.852   9.382  0.00  0.00    -0.271 OA
HETATM    7  H   UNK N   1      32.144  18.262   9.079  0.00  0.00     0.163 HD
BRANCH   5   8
HETATM    8  C   UNK N   1      34.276  15.690   8.422  0.00  0.00     0.239 C 
BRANCH   8   9
HETATM    9  C   UNK N   1      35.533  15.278   9.189  0.00  0.00     0.182 C 
BRANCH   9  10
HETATM   10  S   UNK N   1      35.276  14.496  10.805  0.00  0.00     0.151 S 
HETATM   11  O   UNK N   1      35.851  15.754  11.452  0.00  0.00    -0.227 OA
HETATM   12  O   UNK N   1      33.871  14.873  11.294  0.00  0.00    -0.227 OA
BRANCH  10  13
HETATM   13  C   UNK N   1      36.140  13.574  12.094  0.00  0.00     0.181 C 
BRANCH  13  14
HETATM   14  C   UNK N   1      35.320  12.440  12.605  0.00  0.00    -0.011 A 
HETATM   15  C   UNK N   1      34.994  12.402  13.961  0.00  0.00     0.082 A 
HETATM   16  C   UNK N   1      34.181  11.365  14.448  0.00  0.00     0.037 A 
HETATM   17  C   UNK N   1      33.709  10.375  13.578  0.00  0.00     0.003 A 
HETATM   18  C   UNK N   1      34.032  10.424  12.219  0.00  0.00     0.001 A 
HETATM   19  C   UNK N   1      34.829  11.461  11.731  0.00  0.00     0.011 A 
BRANCH  15  20
HETATM   20  O   UNK N   1      35.480  13.375  14.767  0.00  0.00    -0.290 OA
BRANCH  20  21
HETATM   21  C   UNK N   1      35.413  13.365  16.141  0.00  0.00     0.505 C 
HETATM   22  F   UNK N   1      34.111  13.397  16.594  0.00  0.00    -0.184 F 
HETATM   23  F   UNK N   1      36.043  12.227  16.605  0.00  0.00    -0.184 F 
ENDBRANCH  20  21
ENDBRANCH  15  20
ENDBRANCH  13  14
ENDBRANCH  10  13
ENDBRANCH   9  10
ENDBRANCH   8   9
BRANCH   8  24
HETATM   24  O   UNK N   1      34.727  15.801   7.122  0.00  0.00    -0.288 OA
BRANCH  24  25
HETATM   25  C   UNK N   1      34.160  16.484   6.097  0.00  0.00     0.363 C 
HETATM   26  N   UNK N   1      33.536  15.797   5.104  0.00  0.00    -0.324 N 
HETATM   27  C   UNK N   1      33.004  16.469   3.940  0.00  0.00     0.154 C 
HETATM   28  C   UNK N   1      33.269  14.384   5.249  0.00  0.00     0.154 C 
HETATM   29  C   UNK N   1      31.530  16.085   3.805  0.00  0.00     0.187 C 
HETATM   30  O   UNK N   1      31.399  14.680   3.779  0.00  0.00    -0.388 OA
HETATM   31  C   UNK N   1      31.761  14.199   5.055  0.00  0.00     0.187 C 
HETATM   32  O   UNK N   1      34.235  17.703   6.048  0.00  0.00    -0.238 OA
ENDBRANCH  24  25
ENDBRANCH   8  24
ENDBRANCH   5   8
ENDBRANCH   1   4
TORSDOF 10
ENDMDL
MODEL 5
REMARK VINA RESULT:      -6.4      2.870      4.023
REMARK  10 active torsions:
REMARK  status: ('A' for Active; 'I' for Inactive)
REMARK    1  A    between atoms: C_1  and  O_27 
REMARK    2  A    between atoms: C_2  and  C_7 
REMARK    3  A    between atoms: C_7  and  S_11 
REMARK    4  A    between atoms: C_8  and  C_9 
REMARK    5  A    between atoms: C_8  and  S_11 
REMARK    6  A    between atoms: C_9  and  C_10 
REMARK    7  A    between atoms: C_9  and  O_12 
REMARK       I    between atoms: C_10  and  N_15 
REMARK    8  A    between atoms: O_12  and  C_19 
REMARK    9  A    between atoms: N_15  and  C_17 
REMARK       I    between atoms: C_19  and  N_20 
REMARK   10  A    between atoms: O_27  and  C_28 
ROOT
HETATM    1  C   UNK N   1      20.147  20.391   2.428  0.00  0.00     0.247 C 
HETATM    2  C   UNK N   1      20.753  20.656   1.120  0.00  0.00     0.078 C 
HETATM    3  N   UNK N   1      21.228  20.847   0.083  0.00  0.00    -0.196 NA
ENDROOT
BRANCH   1   4
HETATM    4  N   UNK N   1      19.713  19.020   2.520  0.00  0.00    -0.347 N 
HETATM    5  C   UNK N   1      20.271  18.120   3.372  0.00  0.00     0.249 C 
HETATM    6  O   UNK N   1      19.908  16.955   3.308  0.00  0.00    -0.271 OA
HETATM    7  H   UNK N   1      18.977  18.722   1.939  0.00  0.00     0.163 HD
BRANCH   5   8
HETATM    8  C   UNK N   1      21.341  18.519   4.380  0.00  0.00     0.239 C 
BRANCH   8   9
HETATM    9  C   UNK N   1      22.737  18.513   3.754  0.00  0.00     0.182 C 
BRANCH   9  10
HETATM   10  S   UNK N   1      23.927  17.331   4.443  0.00  0.00     0.151 S 
HETATM   11  O   UNK N   1      24.867  17.679   3.291  0.00  0.00    -0.227 OA
HETATM   12  O   UNK N   1      24.831  18.088   5.424  0.00  0.00    -0.227 OA
BRANCH  10  13
HETATM   13  C   UNK N   1      24.515  15.634   4.261  0.00  0.00     0.181 C 
BRANCH  13  14
HETATM   14  C   UNK N   1      24.096  15.041   2.960  0.00  0.00    -0.011 A 
HETATM   15  C   UNK N   1      25.050  14.389   2.179  0.00  0.00     0.082 A 
HETATM   16  C   UNK N   1      24.660  13.783   0.974  0.00  0.00     0.037 A 
HETATM   17  C   UNK N   1      23.324  13.841   0.558  0.00  0.00     0.003 A 
HETATM   18  C   UNK N   1      22.372  14.489   1.349  0.00  0.00     0.001 A 
HETATM   19  C   UNK N   1      22.756  15.081   2.554  0.00  0.00     0.011 A 
BRANCH  15  20
HETATM   20  O   UNK N   1      26.331  14.364   2.616  0.00  0.00    -0.290 OA
BRANCH  20  21
HETATM   21  C   UNK N   1      27.350  15.138   2.111  0.00  0.00     0.505 C 
HETATM   22  F   UNK N   1      28.074  15.754   3.112  0.00  0.00    -0.184 F 
HETATM   23  F   UNK N   1      28.184  14.335   1.357  0.00  0.00    -0.184 F 
ENDBRANCH  20  21
ENDBRANCH  15  20
ENDBRANCH  13  14
ENDBRANCH  10  13
ENDBRANCH   9  10
ENDBRANCH   8   9
BRANCH   8  24
HETATM   24  O   UNK N   1      21.438  17.556   5.364  0.00  0.00    -0.288 OA
BRANCH  24  25
HETATM   25  C   UNK N   1      20.910  17.582   6.613  0.00  0.00     0.363 C 
HETATM   26  N   UNK N   1      20.266  16.482   7.085  0.00  0.00    -0.324 N 
HETATM   27  C   UNK N   1      19.598  16.491   8.368  0.00  0.00     0.154 C 
HETATM   28  C   UNK N   1      20.343  15.227   6.374  0.00  0.00     0.154 C 
HETATM   29  C   UNK N   1      20.147  15.328   9.195  0.00  0.00     0.187 C 
HETATM   30  O   UNK N   1      20.012  14.121   8.475  0.00  0.00    -0.388 OA
HETATM   31  C   UNK N   1      20.882  14.192   7.367  0.00  0.00     0.187 C 
HETATM   32  O   UNK N   1      20.983  18.593   7.296  0.00  0.00    -0.238 OA
ENDBRANCH  24  25
ENDBRANCH   8  24
ENDBRANCH   5   8
ENDBRANCH   1   4
TORSDOF 10
ENDMDL
MODEL 6
REMARK VINA RESULT:      -6.4      4.279      7.267
REMARK  10 active torsions:
REMARK  status: ('A' for Active; 'I' for Inactive)
REMARK    1  A    between atoms: C_1  and  O_27 
REMARK    2  A    between atoms: C_2  and  C_7 
REMARK    3  A    between atoms: C_7  and  S_11 
REMARK    4  A    between atoms: C_8  and  C_9 
REMARK    5  A    between atoms: C_8  and  S_11 
REMARK    6  A    between atoms: C_9  and  C_10 
REMARK    7  A    between atoms: C_9  and  O_12 
REMARK       I    between atoms: C_10  and  N_15 
REMARK    8  A    between atoms: O_12  and  C_19 
REMARK    9  A    between atoms: N_15  and  C_17 
REMARK       I    between atoms: C_19  and  N_20 
REMARK   10  A    between atoms: O_27  and  C_28 
ROOT
HETATM    1  C   UNK N   1      22.720  12.728  10.204  0.00  0.00     0.247 C 
HETATM    2  C   UNK N   1      23.281  12.240  11.467  0.00  0.00     0.078 C 
HETATM    3  N   UNK N   1      23.707  11.856  12.472  0.00  0.00    -0.196 NA
ENDROOT
BRANCH   1   4
HETATM    4  N   UNK N   1      21.299  12.935  10.324  0.00  0.00    -0.347 N 
HETATM    5  C   UNK N   1      20.626  13.885   9.624  0.00  0.00     0.249 C 
HETATM    6  O   UNK N   1      19.440  14.055   9.866  0.00  0.00    -0.271 OA
HETATM    7  H   UNK N   1      20.793  12.359  10.941  0.00  0.00     0.163 HD
BRANCH   5   8
HETATM    8  C   UNK N   1      21.309  14.747   8.570  0.00  0.00     0.239 C 
BRANCH   8   9
HETATM    9  C   UNK N   1      20.713  16.155   8.520  0.00  0.00     0.182 C 
BRANCH   9  10
HETATM   10  S   UNK N   1      20.973  17.089   6.987  0.00  0.00     0.151 S 
HETATM   11  O   UNK N   1      19.470  16.994   6.731  0.00  0.00    -0.227 OA
HETATM   12  O   UNK N   1      20.834  18.581   7.315  0.00  0.00    -0.227 OA
BRANCH  10  13
HETATM   13  C   UNK N   1      21.176  16.874   5.207  0.00  0.00     0.181 C 
BRANCH  13  14
HETATM   14  C   UNK N   1      22.257  17.745   4.665  0.00  0.00    -0.011 A 
HETATM   15  C   UNK N   1      21.905  18.859   3.903  0.00  0.00     0.082 A 
HETATM   16  C   UNK N   1      22.911  19.717   3.427  0.00  0.00     0.037 A 
HETATM   17  C   UNK N   1      24.255  19.449   3.711  0.00  0.00     0.003 A 
HETATM   18  C   UNK N   1      24.600  18.336   4.483  0.00  0.00     0.001 A 
HETATM   19  C   UNK N   1      23.601  17.489   4.967  0.00  0.00     0.011 A 
BRANCH  15  20
HETATM   20  O   UNK N   1      20.594  19.075   3.646  0.00  0.00    -0.290 OA
BRANCH  20  21
HETATM   21  C   UNK N   1      19.955  18.738   2.475  0.00  0.00     0.505 C 
HETATM   22  F   UNK N   1      18.585  18.863   2.580  0.00  0.00    -0.184 F 
HETATM   23  F   UNK N   1      20.424  19.557   1.465  0.00  0.00    -0.184 F 
ENDBRANCH  20  21
ENDBRANCH  15  20
ENDBRANCH  13  14
ENDBRANCH  10  13
ENDBRANCH   9  10
ENDBRANCH   8   9
BRANCH   8  24
HETATM   24  O   UNK N   1      21.036  14.249   7.311  0.00  0.00    -0.288 OA
BRANCH  24  25
HETATM   25  C   UNK N   1      21.416  13.060   6.783  0.00  0.00     0.363 C 
HETATM   26  N   UNK N   1      22.649  12.944   6.224  0.00  0.00    -0.324 N 
HETATM   27  C   UNK N   1      23.066  11.730   5.558  0.00  0.00     0.154 C 
HETATM   28  C   UNK N   1      23.632  13.990   6.397  0.00  0.00     0.154 C 
HETATM   29  C   UNK N   1      24.378  11.269   6.194  0.00  0.00     0.187 C 
HETATM   30  O   UNK N   1      25.327  12.313   6.151  0.00  0.00    -0.388 OA
HETATM   31  C   UNK N   1      24.871  13.332   7.013  0.00  0.00     0.187 C 
HETATM   32  O   UNK N   1      20.647  12.110   6.779  0.00  0.00    -0.238 OA
ENDBRANCH  24  25
ENDBRANCH   8  24
ENDBRANCH   5   8
ENDBRANCH   1   4
TORSDOF 10
ENDMDL
MODEL 7
REMARK VINA RESULT:      -6.2      3.185      5.622
REMARK  10 active torsions:
REMARK  status: ('A' for Active; 'I' for Inactive)
REMARK    1  A    between atoms: C_1  and  O_27 
REMARK    2  A    between atoms: C_2  and  C_7 
REMARK    3  A    between atoms: C_7  and  S_11 
REMARK    4  A    between atoms: C_8  and  C_9 
REMARK    5  A    between atoms: C_8  and  S_11 
REMARK    6  A    between atoms: C_9  and  C_10 
REMARK    7  A    between atoms: C_9  and  O_12 
REMARK       I    between atoms: C_10  and  N_15 
REMARK    8  A    between atoms: O_12  and  C_19 
REMARK    9  A    between atoms: N_15  and  C_17 
REMARK       I    between atoms: C_19  and  N_20 
REMARK   10  A    between atoms: O_27  and  C_28 
ROOT
HETATM    1  C   UNK N   1      24.547  12.775   7.563  0.00  0.00     0.247 C 
HETATM    2  C   UNK N   1      23.921  12.109   8.710  0.00  0.00     0.078 C 
HETATM    3  N   UNK N   1      23.435  11.597   9.626  0.00  0.00    -0.196 NA
ENDROOT
BRANCH   1   4
HETATM    4  N   UNK N   1      25.325  13.907   7.995  0.00  0.00    -0.347 N 
HETATM    5  C   UNK N   1      25.737  14.890   7.151  0.00  0.00     0.249 C 
HETATM    6  O   UNK N   1      26.479  15.758   7.586  0.00  0.00    -0.271 OA
HETATM    7  H   UNK N   1      25.570  13.973   8.946  0.00  0.00     0.163 HD
BRANCH   5   8
HETATM    8  C   UNK N   1      25.315  14.926   5.688  0.00  0.00     0.239 C 
BRANCH   8   9
HETATM    9  C   UNK N   1      26.525  14.964   4.753  0.00  0.00     0.182 C 
BRANCH   9  10
HETATM   10  S   UNK N   1      26.972  16.586   4.074  0.00  0.00     0.151 S 
HETATM   11  O   UNK N   1      28.148  15.913   3.369  0.00  0.00    -0.227 OA
HETATM   12  O   UNK N   1      26.248  16.752   2.732  0.00  0.00    -0.227 OA
BRANCH  10  13
HETATM   13  C   UNK N   1      28.080  17.985   4.345  0.00  0.00     0.181 C 
BRANCH  13  14
HETATM   14  C   UNK N   1      28.501  18.089   5.770  0.00  0.00    -0.011 A 
HETATM   15  C   UNK N   1      27.831  18.981   6.607  0.00  0.00     0.082 A 
HETATM   16  C   UNK N   1      28.185  19.053   7.965  0.00  0.00     0.037 A 
HETATM   17  C   UNK N   1      29.207  18.240   8.469  0.00  0.00     0.003 A 
HETATM   18  C   UNK N   1      29.868  17.342   7.627  0.00  0.00     0.001 A 
HETATM   19  C   UNK N   1      29.509  17.260   6.280  0.00  0.00     0.011 A 
BRANCH  15  20
HETATM   20  O   UNK N   1      26.855  19.753   6.075  0.00  0.00    -0.290 OA
BRANCH  20  21
HETATM   21  C   UNK N   1      26.713  21.104   6.295  0.00  0.00     0.505 C 
HETATM   22  F   UNK N   1      26.124  21.368   7.514  0.00  0.00    -0.184 F 
HETATM   23  F   UNK N   1      27.961  21.695   6.240  0.00  0.00    -0.184 F 
ENDBRANCH  20  21
ENDBRANCH  15  20
ENDBRANCH  13  14
ENDBRANCH  10  13
ENDBRANCH   9  10
ENDBRANCH   8   9
BRANCH   8  24
HETATM   24  O   UNK N   1      24.674  16.118   5.415  0.00  0.00    -0.288 OA
BRANCH  24  25
HETATM   25  C   UNK N   1      23.393  16.461   5.699  0.00  0.00     0.363 C 
HETATM   26  N   UNK N   1      22.976  17.731   5.453  0.00  0.00    -0.324 N 
HETATM   27  C   UNK N   1      21.652  18.177   5.829  0.00  0.00     0.154 C 
HETATM   28  C   UNK N   1      23.800  18.637   4.686  0.00  0.00     0.154 C 
HETATM   29  C   UNK N   1      20.975  18.750   4.584  0.00  0.00     0.187 C 
HETATM   30  O   UNK N   1      21.787  19.752   4.012  0.00  0.00    -0.388 OA
HETATM   31  C   UNK N   1      22.944  19.121   3.510  0.00  0.00     0.187 C 
HETATM   32  O   UNK N   1      22.630  15.649   6.200  0.00  0.00    -0.238 OA
ENDBRANCH  24  25
ENDBRANCH   8  24
ENDBRANCH   5   8
ENDBRANCH   1   4
TORSDOF 10
ENDMDL
MODEL 8
REMARK VINA RESULT:      -6.2      9.981     13.586
REMARK  10 active torsions:
REMARK  status: ('A' for Active; 'I' for Inactive)
REMARK    1  A    between atoms: C_1  and  O_27 
REMARK    2  A    between atoms: C_2  and  C_7 
REMARK    3  A    between atoms: C_7  and  S_11 
REMARK    4  A    between atoms: C_8  and  C_9 
REMARK    5  A    between atoms: C_8  and  S_11 
REMARK    6  A    between atoms: C_9  and  C_10 
REMARK    7  A    between atoms: C_9  and  O_12 
REMARK       I    between atoms: C_10  and  N_15 
REMARK    8  A    between atoms: O_12  and  C_19 
REMARK    9  A    between atoms: N_15  and  C_17 
REMARK       I    between atoms: C_19  and  N_20 
REMARK   10  A    between atoms: O_27  and  C_28 
ROOT
HETATM    1  C   UNK N   1      37.836  13.442   9.575  0.00  0.00     0.247 C 
HETATM    2  C   UNK N   1      38.672  13.547   8.375  0.00  0.00     0.078 C 
HETATM    3  N   UNK N   1      39.333  13.650   7.431  0.00  0.00    -0.196 NA
ENDROOT
BRANCH   1   4
HETATM    4  N   UNK N   1      37.654  14.735  10.184  0.00  0.00    -0.347 N 
HETATM    5  C   UNK N   1      36.433  15.247  10.488  0.00  0.00     0.249 C 
HETATM    6  O   UNK N   1      36.369  16.393  10.908  0.00  0.00    -0.271 OA
HETATM    7  H   UNK N   1      38.453  15.272  10.390  0.00  0.00     0.163 HD
BRANCH   5   8
HETATM    8  C   UNK N   1      35.152  14.443  10.303  0.00  0.00     0.239 C 
BRANCH   8   9
HETATM    9  C   UNK N   1      33.947  15.351  10.054  0.00  0.00     0.182 C 
BRANCH   9  10
HETATM   10  S   UNK N   1      33.054  15.101   8.495  0.00  0.00     0.151 S 
HETATM   11  O   UNK N   1      34.328  14.485   7.920  0.00  0.00    -0.227 OA
HETATM   12  O   UNK N   1      32.395  13.717   8.545  0.00  0.00    -0.227 OA
BRANCH  10  13
HETATM   13  C   UNK N   1      32.807  15.834   6.864  0.00  0.00     0.181 C 
BRANCH  13  14
HETATM   14  C   UNK N   1      31.489  16.522   6.762  0.00  0.00    -0.011 A 
HETATM   15  C   UNK N   1      30.958  16.777   5.498  0.00  0.00     0.082 A 
HETATM   16  C   UNK N   1      29.694  17.381   5.388  0.00  0.00     0.037 A 
HETATM   17  C   UNK N   1      28.979  17.730   6.540  0.00  0.00     0.003 A 
HETATM   18  C   UNK N   1      29.514  17.464   7.804  0.00  0.00     0.001 A 
HETATM   19  C   UNK N   1      30.764  16.852   7.915  0.00  0.00     0.011 A 
BRANCH  15  20
HETATM   20  O   UNK N   1      31.687  16.430   4.412  0.00  0.00    -0.290 OA
BRANCH  20  21
HETATM   21  C   UNK N   1      32.367  17.313   3.606  0.00  0.00     0.505 C 
HETATM   22  F   UNK N   1      33.254  18.089   4.324  0.00  0.00    -0.184 F 
HETATM   23  F   UNK N   1      33.048  16.597   2.641  0.00  0.00    -0.184 F 
ENDBRANCH  20  21
ENDBRANCH  15  20
ENDBRANCH  13  14
ENDBRANCH  10  13
ENDBRANCH   9  10
ENDBRANCH   8   9
BRANCH   8  24
HETATM   24  O   UNK N   1      34.824  13.808  11.484  0.00  0.00    -0.288 OA
BRANCH  24  25
HETATM   25  C   UNK N   1      35.285  12.621  11.950  0.00  0.00     0.363 C 
HETATM   26  N   UNK N   1      36.045  12.599  13.077  0.00  0.00    -0.324 N 
HETATM   27  C   UNK N   1      36.644  11.375  13.560  0.00  0.00     0.154 C 
HETATM   28  C   UNK N   1      36.166  13.780  13.901  0.00  0.00     0.154 C 
HETATM   29  C   UNK N   1      36.214  11.180  15.015  0.00  0.00     0.187 C 
HETATM   30  O   UNK N   1      36.540  12.327  15.770  0.00  0.00    -0.388 OA
HETATM   31  C   UNK N   1      35.721  13.380  15.311  0.00  0.00     0.187 C 
HETATM   32  O   UNK N   1      35.048  11.585  11.348  0.00  0.00    -0.238 OA
ENDBRANCH  24  25
ENDBRANCH   8  24
ENDBRANCH   5   8
ENDBRANCH   1   4
TORSDOF 10
ENDMDL
MODEL 9
REMARK VINA RESULT:      -6.1      9.711     13.348
REMARK  10 active torsions:
REMARK  status: ('A' for Active; 'I' for Inactive)
REMARK    1  A    between atoms: C_1  and  O_27 
REMARK    2  A    between atoms: C_2  and  C_7 
REMARK    3  A    between atoms: C_7  and  S_11 
REMARK    4  A    between atoms: C_8  and  C_9 
REMARK    5  A    between atoms: C_8  and  S_11 
REMARK    6  A    between atoms: C_9  and  C_10 
REMARK    7  A    between atoms: C_9  and  O_12 
REMARK       I    between atoms: C_10  and  N_15 
REMARK    8  A    between atoms: O_12  and  C_19 
REMARK    9  A    between atoms: N_15  and  C_17 
REMARK       I    between atoms: C_19  and  N_20 
REMARK   10  A    between atoms: O_27  and  C_28 
ROOT
HETATM    1  C   UNK N   1      35.120  15.063  11.621  0.00  0.00     0.247 C 
HETATM    2  C   UNK N   1      35.878  14.676  12.815  0.00  0.00     0.078 C 
HETATM    3  N   UNK N   1      36.486  14.388  13.756  0.00  0.00    -0.196 NA
ENDROOT
BRANCH   1   4
HETATM    4  N   UNK N   1      35.540  16.357  11.148  0.00  0.00    -0.347 N 
HETATM    5  C   UNK N   1      35.037  16.937  10.027  0.00  0.00     0.249 C 
HETATM    6  O   UNK N   1      35.526  17.991   9.646  0.00  0.00    -0.271 OA
HETATM    7  H   UNK N   1      36.223  16.845  11.663  0.00  0.00     0.163 HD
BRANCH   5   8
HETATM    8  C   UNK N   1      33.903  16.304   9.230  0.00  0.00     0.239 C 
BRANCH   8   9
HETATM    9  C   UNK N   1      34.431  15.332   8.174  0.00  0.00     0.182 C 
BRANCH   9  10
HETATM   10  S   UNK N   1      33.849  13.618   8.290  0.00  0.00     0.151 S 
HETATM   11  O   UNK N   1      32.784  14.096   9.276  0.00  0.00    -0.227 OA
HETATM   12  O   UNK N   1      32.775  13.410   7.215  0.00  0.00    -0.227 OA
BRANCH  10  13
HETATM   13  C   UNK N   1      33.974  12.139   9.318  0.00  0.00     0.181 C 
BRANCH  13  14
HETATM   14  C   UNK N   1      35.337  11.985   9.900  0.00  0.00    -0.011 A 
HETATM   15  C   UNK N   1      35.470  11.392  11.156  0.00  0.00     0.082 A 
HETATM   16  C   UNK N   1      36.752  11.197  11.695  0.00  0.00     0.037 A 
HETATM   17  C   UNK N   1      37.885  11.602  10.980  0.00  0.00     0.003 A 
HETATM   18  C   UNK N   1      37.745  12.188   9.719  0.00  0.00     0.001 A 
HETATM   19  C   UNK N   1      36.472  12.371   9.175  0.00  0.00     0.011 A 
BRANCH  15  20
HETATM   20  O   UNK N   1      34.347  11.024  11.815  0.00  0.00    -0.290 OA
BRANCH  20  21
HETATM   21  C   UNK N   1      34.314  10.186  12.906  0.00  0.00     0.505 C 
HETATM   22  F   UNK N   1      33.252  10.468  13.741  0.00  0.00    -0.184 F 
HETATM   23  F   UNK N   1      34.224   8.882  12.458  0.00  0.00    -0.184 F 
ENDBRANCH  20  21
ENDBRANCH  15  20
ENDBRANCH  13  14
ENDBRANCH  10  13
ENDBRANCH   9  10
ENDBRANCH   8   9
BRANCH   8  24
HETATM   24  O   UNK N   1      33.267  17.269   8.475  0.00  0.00    -0.288 OA
BRANCH  24  25
HETATM   25  C   UNK N   1      33.258  17.401   7.125  0.00  0.00     0.363 C 
HETATM   26  N   UNK N   1      32.213  16.899   6.416  0.00  0.00    -0.324 N 
HETATM   27  C   UNK N   1      32.201  16.923   4.970  0.00  0.00     0.154 C 
HETATM   28  C   UNK N   1      31.019  16.445   7.092  0.00  0.00     0.154 C 
HETATM   29  C   UNK N   1      30.915  17.616   4.519  0.00  0.00     0.187 C 
HETATM   30  O   UNK N   1      29.797  16.981   5.101  0.00  0.00    -0.388 OA
HETATM   31  C   UNK N   1      29.848  17.227   6.489  0.00  0.00     0.187 C 
HETATM   32  O   UNK N   1      34.193  17.936   6.549  0.00  0.00    -0.238 OA
ENDBRANCH  24  25
ENDBRANCH   8  24
ENDBRANCH   5   8
ENDBRANCH   1   4
TORSDOF 10
ENDMDL
