MODEL 1
REMARK VINA RESULT:      -6.7      0.000      0.000
REMARK  7 active torsions:
REMARK  status: ('A' for Active; 'I' for Inactive)
REMARK    1  A    between atoms: C_1  and  N_16 
REMARK    2  A    between atoms: C_2  and  C_13 
REMARK    3  A    between atoms: C_7  and  N_18 
REMARK    4  A    between atoms: C_9  and  O_22 
REMARK    5  A    between atoms: C_10  and  O_23 
REMARK    6  A    between atoms: C_11  and  O_24 
REMARK    7  A    between atoms: C_13  and  O_21 
ROOT
HETATM    1  N   UNK N   1      32.552  16.282   7.997  0.00  0.00    -0.299 N 
ATOM      2  HN  UNK N   1      32.758  15.866   7.089  1.00  0.00     0.187 HD
HETATM    3  N   UNK N   1      31.487  16.919   8.127  0.00  0.00    -0.300 N 
ATOM      4  HN  UNK N   1      31.203  17.271   9.041  1.00  0.00     0.187 HD
ENDROOT
BRANCH   3   5
HETATM    5  C   UNK N   1      30.678  17.145   6.987  0.00  0.00     0.053 A 
HETATM    6  C   UNK N   1      29.426  17.752   7.111  0.00  0.00     0.070 A 
HETATM    7  C   UNK N   1      28.662  18.045   5.963  0.00  0.00     0.106 A 
HETATM    8  C   UNK N   1      29.170  17.726   4.691  0.00  0.00     0.133 A 
HETATM    9  C   UNK N   1      30.424  17.114   4.563  0.00  0.00     0.106 A 
HETATM   10  C   UNK N   1      31.167  16.831   5.712  0.00  0.00     0.070 A 
BRANCH   7  11
HETATM   11  O   UNK N   1      27.447  18.640   6.056  0.00  0.00    -0.353 OA
HETATM   12  C   UNK N   1      27.279  19.976   6.336  0.00  0.00     0.210 C 
ENDBRANCH   7  11
BRANCH   8  13
HETATM   13  O   UNK N   1      28.452  18.013   3.589  0.00  0.00    -0.356 OA
HETATM   14  H   UNK N   1      27.959  18.809   3.544  0.00  0.00     0.218 HD
ENDBRANCH   8  13
BRANCH   9  15
HETATM   15  O   UNK N   1      30.905  16.815   3.330  0.00  0.00    -0.353 OA
HETATM   16  C   UNK N   1      32.236  16.925   2.994  0.00  0.00     0.210 C 
ENDBRANCH   9  15
ENDBRANCH   3   5
BRANCH   1  17
HETATM   17  C   UNK N   1      33.489  16.106   9.041  0.00  0.00     0.065 A 
HETATM   18  C   UNK N   1      34.558  17.026   9.179  0.00  0.00     0.065 A 
HETATM   19  C   UNK N   1      35.455  16.871  10.247  0.00  0.00     0.021 A 
HETATM   20  C   UNK N   1      35.304  15.828  11.161  0.00  0.00     0.001 A 
HETATM   21  C   UNK N   1      34.252  14.921  11.020  0.00  0.00     0.002 A 
HETATM   22  C   UNK N   1      33.345  15.060   9.966  0.00  0.00     0.032 A 
BRANCH  18  23
HETATM   23  C   UNK N   1      34.753  18.164   8.236  0.00  0.00     0.178 C 
HETATM   24  O   UNK N   1      34.400  18.059   7.072  0.00  0.00    -0.646 OA
BRANCH  23  25
HETATM   25  O   UNK N   1      35.315  19.321   8.644  0.00  0.00    -0.773 OA
HETATM   26  H   UNK N   1      36.034  19.696   8.174  0.00  0.00     0.167 HD
ENDBRANCH  23  25
ENDBRANCH  18  23
ENDBRANCH   1  17
TORSDOF 7
ENDMDL
MODEL 2
REMARK VINA RESULT:      -6.5      0.157      2.772
REMARK  7 active torsions:
REMARK  status: ('A' for Active; 'I' for Inactive)
REMARK    1  A    between atoms: C_1  and  N_16 
REMARK    2  A    between atoms: C_2  and  C_13 
REMARK    3  A    between atoms: C_7  and  N_18 
REMARK    4  A    between atoms: C_9  and  O_22 
REMARK    5  A    between atoms: C_10  and  O_23 
REMARK    6  A    between atoms: C_11  and  O_24 
REMARK    7  A    between atoms: C_13  and  O_21 
ROOT
HETATM    1  N   UNK N   1      32.620  16.355   7.916  0.00  0.00    -0.299 N 
ATOM      2  HN  UNK N   1      32.875  15.978   7.003  1.00  0.00     0.187 HD
HETATM    3  N   UNK N   1      31.535  16.963   8.022  0.00  0.00    -0.300 N 
ATOM      4  HN  UNK N   1      31.204  17.274   8.936  1.00  0.00     0.187 HD
ENDROOT
BRANCH   3   5
HETATM    5  C   UNK N   1      30.770  17.212   6.857  0.00  0.00     0.053 A 
HETATM    6  C   UNK N   1      31.255  16.855   5.597  0.00  0.00     0.070 A 
HETATM    7  C   UNK N   1      30.453  17.036   4.451  0.00  0.00     0.106 A 
HETATM    8  C   UNK N   1      29.161  17.572   4.585  0.00  0.00     0.133 A 
HETATM    9  C   UNK N   1      28.672  17.934   5.848  0.00  0.00     0.106 A 
HETATM   10  C   UNK N   1      29.481  17.749   6.972  0.00  0.00     0.070 A 
BRANCH   7  11
HETATM   11  O   UNK N   1      30.898  16.691   3.216  0.00  0.00    -0.353 OA
HETATM   12  C   UNK N   1      32.186  16.911   2.788  0.00  0.00     0.210 C 
ENDBRANCH   7  11
BRANCH   8  13
HETATM   13  O   UNK N   1      28.385  17.735   3.498  0.00  0.00    -0.356 OA
HETATM   14  H   UNK N   1      27.451  17.749   3.584  0.00  0.00     0.218 HD
ENDBRANCH   8  13
BRANCH   9  15
HETATM   15  O   UNK N   1      27.422  18.447   5.964  0.00  0.00    -0.353 OA
HETATM   16  C   UNK N   1      27.175  19.787   6.169  0.00  0.00     0.210 C 
ENDBRANCH   9  15
ENDBRANCH   3   5
BRANCH   1  17
HETATM   17  C   UNK N   1      33.516  16.163   8.993  0.00  0.00     0.065 A 
HETATM   18  C   UNK N   1      34.574  17.084   9.192  0.00  0.00     0.065 A 
HETATM   19  C   UNK N   1      35.428  16.911  10.291  0.00  0.00     0.021 A 
HETATM   20  C   UNK N   1      35.246  15.849  11.178  0.00  0.00     0.001 A 
HETATM   21  C   UNK N   1      34.204  14.942  10.976  0.00  0.00     0.002 A 
HETATM   22  C   UNK N   1      33.340  15.097   9.891  0.00  0.00     0.032 A 
BRANCH  18  23
HETATM   23  C   UNK N   1      34.801  18.241   8.279  0.00  0.00     0.178 C 
HETATM   24  O   UNK N   1      35.344  19.251   8.699  0.00  0.00    -0.646 OA
BRANCH  23  25
HETATM   25  O   UNK N   1      34.420  18.196   6.986  0.00  0.00    -0.773 OA
HETATM   26  H   UNK N   1      33.526  18.342   6.746  0.00  0.00     0.167 HD
ENDBRANCH  23  25
ENDBRANCH  18  23
ENDBRANCH   1  17
TORSDOF 7
ENDMDL
MODEL 3
REMARK VINA RESULT:      -6.3      8.360     10.790
REMARK  7 active torsions:
REMARK  status: ('A' for Active; 'I' for Inactive)
REMARK    1  A    between atoms: C_1  and  N_16 
REMARK    2  A    between atoms: C_2  and  C_13 
REMARK    3  A    between atoms: C_7  and  N_18 
REMARK    4  A    between atoms: C_9  and  O_22 
REMARK    5  A    between atoms: C_10  and  O_23 
REMARK    6  A    between atoms: C_11  and  O_24 
REMARK    7  A    between atoms: C_13  and  O_21 
ROOT
HETATM    1  N   UNK N   1      21.792  16.413   6.757  0.00  0.00    -0.299 N 
ATOM      2  HN  UNK N   1      20.939  16.910   6.502  1.00  0.00     0.187 HD
HETATM    3  N   UNK N   1      22.864  16.768   6.226  0.00  0.00    -0.300 N 
ATOM      4  HN  UNK N   1      23.750  16.357   6.523  1.00  0.00     0.187 HD
ENDROOT
BRANCH   3   5
HETATM    5  C   UNK N   1      22.834  17.751   5.207  0.00  0.00     0.053 A 
HETATM    6  C   UNK N   1      21.622  18.299   4.782  0.00  0.00     0.070 A 
HETATM    7  C   UNK N   1      21.607  19.333   3.823  0.00  0.00     0.106 A 
HETATM    8  C   UNK N   1      22.822  19.813   3.302  0.00  0.00     0.133 A 
HETATM    9  C   UNK N   1      24.040  19.263   3.724  0.00  0.00     0.106 A 
HETATM   10  C   UNK N   1      24.034  18.239   4.674  0.00  0.00     0.070 A 
BRANCH   7  11
HETATM   11  O   UNK N   1      20.444  19.887   3.399  0.00  0.00    -0.353 OA
HETATM   12  C   UNK N   1      19.480  19.186   2.710  0.00  0.00     0.210 C 
ENDBRANCH   7  11
BRANCH   8  13
HETATM   13  O   UNK N   1      22.817  20.808   2.396  0.00  0.00    -0.356 OA
HETATM   14  H   UNK N   1      22.265  21.555   2.521  0.00  0.00     0.218 HD
ENDBRANCH   8  13
BRANCH   9  15
HETATM   15  O   UNK N   1      25.205  19.737   3.216  0.00  0.00    -0.353 OA
HETATM   16  C   UNK N   1      26.215  20.248   4.001  0.00  0.00     0.210 C 
ENDBRANCH   9  15
ENDBRANCH   3   5
BRANCH   1  17
HETATM   17  C   UNK N   1      21.697  15.357   7.693  0.00  0.00     0.065 A 
HETATM   18  C   UNK N   1      20.684  15.394   8.683  0.00  0.00     0.065 A 
HETATM   19  C   UNK N   1      20.567  14.318   9.576  0.00  0.00     0.021 A 
HETATM   20  C   UNK N   1      21.433  13.227   9.498  0.00  0.00     0.001 A 
HETATM   21  C   UNK N   1      22.431  13.196   8.523  0.00  0.00     0.002 A 
HETATM   22  C   UNK N   1      22.563  14.254   7.621  0.00  0.00     0.032 A 
BRANCH  18  23
HETATM   23  C   UNK N   1      19.727  16.532   8.799  0.00  0.00     0.178 C 
HETATM   24  O   UNK N   1      20.144  17.679   8.832  0.00  0.00    -0.646 OA
BRANCH  23  25
HETATM   25  O   UNK N   1      18.396  16.321   8.865  0.00  0.00    -0.773 OA
HETATM   26  H   UNK N   1      17.962  16.258   9.693  0.00  0.00     0.167 HD
ENDBRANCH  23  25
ENDBRANCH  18  23
ENDBRANCH   1  17
TORSDOF 7
ENDMDL
MODEL 4
REMARK VINA RESULT:      -6.3      7.079     10.074
REMARK  7 active torsions:
REMARK  status: ('A' for Active; 'I' for Inactive)
REMARK    1  A    between atoms: C_1  and  N_16 
REMARK    2  A    between atoms: C_2  and  C_13 
REMARK    3  A    between atoms: C_7  and  N_18 
REMARK    4  A    between atoms: C_9  and  O_22 
REMARK    5  A    between atoms: C_10  and  O_23 
REMARK    6  A    between atoms: C_11  and  O_24 
REMARK    7  A    between atoms: C_13  and  O_21 
ROOT
HETATM    1  N   UNK N   1      24.309  17.897   4.549  0.00  0.00    -0.299 N 
ATOM      2  HN  UNK N   1      23.961  17.527   3.666  1.00  0.00     0.187 HD
HETATM    3  N   UNK N   1      23.588  17.791   5.561  0.00  0.00    -0.300 N 
ATOM      4  HN  UNK N   1      23.938  18.067   6.479  1.00  0.00     0.187 HD
ENDROOT
BRANCH   3   5
HETATM    5  C   UNK N   1      22.275  17.279   5.418  0.00  0.00     0.053 A 
HETATM    6  C   UNK N   1      21.685  16.534   6.442  0.00  0.00     0.070 A 
HETATM    7  C   UNK N   1      20.350  16.096   6.323  0.00  0.00     0.106 A 
HETATM    8  C   UNK N   1      19.614  16.419   5.169  0.00  0.00     0.133 A 
HETATM    9  C   UNK N   1      20.203  17.165   4.139  0.00  0.00     0.106 A 
HETATM   10  C   UNK N   1      21.527  17.589   4.275  0.00  0.00     0.070 A 
BRANCH   7  11
HETATM   11  O   UNK N   1      19.752  15.377   7.305  0.00  0.00    -0.353 OA
HETATM   12  C   UNK N   1      20.187  15.372   8.610  0.00  0.00     0.210 C 
ENDBRANCH   7  11
BRANCH   8  13
HETATM   13  O   UNK N   1      18.335  16.017   5.053  0.00  0.00    -0.356 OA
HETATM   14  H   UNK N   1      17.691  16.593   4.690  0.00  0.00     0.218 HD
ENDBRANCH   8  13
BRANCH   9  15
HETATM   15  O   UNK N   1      19.481  17.473   3.033  0.00  0.00    -0.353 OA
HETATM   16  C   UNK N   1      19.268  18.767   2.610  0.00  0.00     0.210 C 
ENDBRANCH   9  15
ENDBRANCH   3   5
BRANCH   1  17
HETATM   17  C   UNK N   1      25.586  18.507   4.562  0.00  0.00     0.065 A 
HETATM   18  C   UNK N   1      25.792  19.705   3.835  0.00  0.00     0.065 A 
HETATM   19  C   UNK N   1      27.048  20.328   3.892  0.00  0.00     0.021 A 
HETATM   20  C   UNK N   1      28.083  19.779   4.649  0.00  0.00     0.001 A 
HETATM   21  C   UNK N   1      27.877  18.596   5.362  0.00  0.00     0.002 A 
HETATM   22  C   UNK N   1      26.633  17.963   5.322  0.00  0.00     0.032 A 
BRANCH  18  23
HETATM   23  C   UNK N   1      24.713  20.336   3.021  0.00  0.00     0.178 C 
HETATM   24  O   UNK N   1      24.978  20.835   1.938  0.00  0.00    -0.646 OA
BRANCH  23  25
HETATM   25  O   UNK N   1      23.437  20.367   3.457  0.00  0.00    -0.773 OA
HETATM   26  H   UNK N   1      23.111  21.106   3.931  0.00  0.00     0.167 HD
ENDBRANCH  23  25
ENDBRANCH  18  23
ENDBRANCH   1  17
TORSDOF 7
ENDMDL
MODEL 5
REMARK VINA RESULT:      -6.3      9.559     11.737
REMARK  7 active torsions:
REMARK  status: ('A' for Active; 'I' for Inactive)
REMARK    1  A    between atoms: C_1  and  N_16 
REMARK    2  A    between atoms: C_2  and  C_13 
REMARK    3  A    between atoms: C_7  and  N_18 
REMARK    4  A    between atoms: C_9  and  O_22 
REMARK    5  A    between atoms: C_10  and  O_23 
REMARK    6  A    between atoms: C_11  and  O_24 
REMARK    7  A    between atoms: C_13  and  O_21 
ROOT
HETATM    1  N   UNK N   1      22.474  17.994   5.810  0.00  0.00    -0.299 N 
ATOM      2  HN  UNK N   1      22.184  18.504   6.644  1.00  0.00     0.187 HD
HETATM    3  N   UNK N   1      22.134  16.799   5.700  0.00  0.00    -0.300 N 
ATOM      4  HN  UNK N   1      22.327  16.283   4.841  1.00  0.00     0.187 HD
ENDROOT
BRANCH   3   5
HETATM    5  C   UNK N   1      21.476  16.169   6.784  0.00  0.00     0.053 A 
HETATM    6  C   UNK N   1      20.575  16.880   7.580  0.00  0.00     0.070 A 
HETATM    7  C   UNK N   1      19.865  16.224   8.607  0.00  0.00     0.106 A 
HETATM    8  C   UNK N   1      20.066  14.850   8.822  0.00  0.00     0.133 A 
HETATM    9  C   UNK N   1      20.972  14.134   8.027  0.00  0.00     0.106 A 
HETATM   10  C   UNK N   1      21.666  14.800   7.015  0.00  0.00     0.070 A 
BRANCH   7  11
HETATM   11  O   UNK N   1      18.979  16.890   9.390  0.00  0.00    -0.353 OA
HETATM   12  C   UNK N   1      17.698  17.196   8.991  0.00  0.00     0.210 C 
ENDBRANCH   7  11
BRANCH   8  13
HETATM   13  O   UNK N   1      19.383  14.214   9.792  0.00  0.00    -0.356 OA
HETATM   14  H   UNK N   1      19.355  14.571  10.659  0.00  0.00     0.218 HD
ENDBRANCH   8  13
BRANCH   9  15
HETATM   15  O   UNK N   1      21.154  12.807   8.243  0.00  0.00    -0.353 OA
HETATM   16  C   UNK N   1      22.201  12.302   8.982  0.00  0.00     0.210 C 
ENDBRANCH   9  15
ENDBRANCH   3   5
BRANCH   1  17
HETATM   17  C   UNK N   1      23.241  18.680   4.840  0.00  0.00     0.065 A 
HETATM   18  C   UNK N   1      22.583  19.427   3.833  0.00  0.00     0.065 A 
HETATM   19  C   UNK N   1      23.354  20.143   2.904  0.00  0.00     0.021 A 
HETATM   20  C   UNK N   1      24.748  20.122   2.965  0.00  0.00     0.001 A 
HETATM   21  C   UNK N   1      25.392  19.382   3.958  0.00  0.00     0.002 A 
HETATM   22  C   UNK N   1      24.645  18.666   4.894  0.00  0.00     0.032 A 
BRANCH  18  23
HETATM   23  C   UNK N   1      21.096  19.491   3.734  0.00  0.00     0.178 C 
HETATM   24  O   UNK N   1      20.450  18.464   3.596  0.00  0.00    -0.646 OA
BRANCH  23  25
HETATM   25  O   UNK N   1      20.442  20.668   3.796  0.00  0.00    -0.773 OA
HETATM   26  H   UNK N   1      20.065  21.049   3.027  0.00  0.00     0.167 HD
ENDBRANCH  23  25
ENDBRANCH  18  23
ENDBRANCH   1  17
TORSDOF 7
ENDMDL
MODEL 6
REMARK VINA RESULT:      -6.2      7.572     10.873
REMARK  7 active torsions:
REMARK  status: ('A' for Active; 'I' for Inactive)
REMARK    1  A    between atoms: C_1  and  N_16 
REMARK    2  A    between atoms: C_2  and  C_13 
REMARK    3  A    between atoms: C_7  and  N_18 
REMARK    4  A    between atoms: C_9  and  O_22 
REMARK    5  A    between atoms: C_10  and  O_23 
REMARK    6  A    between atoms: C_11  and  O_24 
REMARK    7  A    between atoms: C_13  and  O_21 
ROOT
HETATM    1  N   UNK N   1      22.350  17.054   6.506  0.00  0.00    -0.299 N 
ATOM      2  HN  UNK N   1      23.112  17.595   6.914  1.00  0.00     0.187 HD
HETATM    3  N   UNK N   1      22.062  17.248   5.308  0.00  0.00    -0.300 N 
ATOM      4  HN  UNK N   1      21.369  16.663   4.840  1.00  0.00     0.187 HD
ENDROOT
BRANCH   3   5
HETATM    5  C   UNK N   1      22.713  18.291   4.605  0.00  0.00     0.053 A 
HETATM    6  C   UNK N   1      24.068  18.555   4.816  0.00  0.00     0.070 A 
HETATM    7  C   UNK N   1      24.726  19.543   4.056  0.00  0.00     0.106 A 
HETATM    8  C   UNK N   1      24.011  20.258   3.079  0.00  0.00     0.133 A 
HETATM    9  C   UNK N   1      22.650  19.998   2.866  0.00  0.00     0.106 A 
HETATM   10  C   UNK N   1      22.015  19.016   3.630  0.00  0.00     0.070 A 
BRANCH   7  11
HETATM   11  O   UNK N   1      26.043  19.814   4.237  0.00  0.00    -0.353 OA
HETATM   12  C   UNK N   1      26.635  19.894   5.476  0.00  0.00     0.210 C 
ENDBRANCH   7  11
BRANCH   8  13
HETATM   13  O   UNK N   1      24.635  21.194   2.340  0.00  0.00    -0.356 OA
HETATM   14  H   UNK N   1      25.294  20.943   1.723  0.00  0.00     0.218 HD
ENDBRANCH   8  13
BRANCH   9  15
HETATM   15  O   UNK N   1      21.972  20.692   1.918  0.00  0.00    -0.353 OA
HETATM   16  C   UNK N   1      20.597  20.770   1.881  0.00  0.00     0.210 C 
ENDBRANCH   9  15
ENDBRANCH   3   5
BRANCH   1  17
HETATM   17  C   UNK N   1      21.675  16.123   7.330  0.00  0.00     0.065 A 
HETATM   18  C   UNK N   1      20.615  16.568   8.158  0.00  0.00     0.065 A 
HETATM   19  C   UNK N   1      19.920  15.629   8.935  0.00  0.00     0.021 A 
HETATM   20  C   UNK N   1      20.264  14.277   8.900  0.00  0.00     0.001 A 
HETATM   21  C   UNK N   1      21.311  13.844   8.085  0.00  0.00     0.002 A 
HETATM   22  C   UNK N   1      22.013  14.761   7.300  0.00  0.00     0.032 A 
BRANCH  18  23
HETATM   23  C   UNK N   1      20.202  17.999   8.220  0.00  0.00     0.178 C 
HETATM   24  O   UNK N   1      20.738  18.821   7.493  0.00  0.00    -0.646 OA
BRANCH  23  25
HETATM   25  O   UNK N   1      19.238  18.411   9.069  0.00  0.00    -0.773 OA
HETATM   26  H   UNK N   1      19.368  18.372   9.996  0.00  0.00     0.167 HD
ENDBRANCH  23  25
ENDBRANCH  18  23
ENDBRANCH   1  17
TORSDOF 7
ENDMDL
MODEL 7
REMARK VINA RESULT:      -6.1      7.401     10.546
REMARK  7 active torsions:
REMARK  status: ('A' for Active; 'I' for Inactive)
REMARK    1  A    between atoms: C_1  and  N_16 
REMARK    2  A    between atoms: C_2  and  C_13 
REMARK    3  A    between atoms: C_7  and  N_18 
REMARK    4  A    between atoms: C_9  and  O_22 
REMARK    5  A    between atoms: C_10  and  O_23 
REMARK    6  A    between atoms: C_11  and  O_24 
REMARK    7  A    between atoms: C_13  and  O_21 
ROOT
HETATM    1  N   UNK N   1      23.999  17.864   4.635  0.00  0.00    -0.299 N 
ATOM      2  HN  UNK N   1      23.707  17.297   3.840  1.00  0.00     0.187 HD
HETATM    3  N   UNK N   1      23.240  17.935   5.622  0.00  0.00    -0.300 N 
ATOM      4  HN  UNK N   1      23.537  18.416   6.471  1.00  0.00     0.187 HD
ENDROOT
BRANCH   3   5
HETATM    5  C   UNK N   1      21.959  17.335   5.548  0.00  0.00     0.053 A 
HETATM    6  C   UNK N   1      21.419  16.958   4.316  0.00  0.00     0.070 A 
HETATM    7  C   UNK N   1      20.179  16.290   4.258  0.00  0.00     0.106 A 
HETATM    8  C   UNK N   1      19.490  16.001   5.450  0.00  0.00     0.133 A 
HETATM    9  C   UNK N   1      20.027  16.380   6.688  0.00  0.00     0.106 A 
HETATM   10  C   UNK N   1      21.257  17.042   6.724  0.00  0.00     0.070 A 
BRANCH   7  11
HETATM   11  O   UNK N   1      19.636  15.907   3.075  0.00  0.00    -0.353 OA
HETATM   12  C   UNK N   1      20.030  14.780   2.392  0.00  0.00     0.210 C 
ENDBRANCH   7  11
BRANCH   8  13
HETATM   13  O   UNK N   1      18.312  15.353   5.404  0.00  0.00    -0.356 OA
HETATM   14  H   UNK N   1      17.511  15.837   5.350  0.00  0.00     0.218 HD
ENDBRANCH   8  13
BRANCH   9  15
HETATM   15  O   UNK N   1      19.354  16.093   7.830  0.00  0.00    -0.353 OA
HETATM   16  C   UNK N   1      18.966  17.054   8.737  0.00  0.00     0.210 C 
ENDBRANCH   9  15
ENDBRANCH   3   5
BRANCH   1  17
HETATM   17  C   UNK N   1      25.245  18.529   4.560  0.00  0.00     0.065 A 
HETATM   18  C   UNK N   1      25.350  19.726   3.809  0.00  0.00     0.065 A 
HETATM   19  C   UNK N   1      26.578  20.405   3.779  0.00  0.00     0.021 A 
HETATM   20  C   UNK N   1      27.683  19.913   4.475  0.00  0.00     0.001 A 
HETATM   21  C   UNK N   1      27.576  18.732   5.212  0.00  0.00     0.002 A 
HETATM   22  C   UNK N   1      26.362  18.043   5.258  0.00  0.00     0.032 A 
BRANCH  18  23
HETATM   23  C   UNK N   1      24.195  20.297   3.058  0.00  0.00     0.178 C 
HETATM   24  O   UNK N   1      24.378  20.857   1.989  0.00  0.00    -0.646 OA
BRANCH  23  25
HETATM   25  O   UNK N   1      22.938  20.207   3.538  0.00  0.00    -0.773 OA
HETATM   26  H   UNK N   1      22.614  20.834   4.155  0.00  0.00     0.167 HD
ENDBRANCH  23  25
ENDBRANCH  18  23
ENDBRANCH   1  17
TORSDOF 7
ENDMDL
MODEL 8
REMARK VINA RESULT:      -6.1      9.230     11.774
REMARK  7 active torsions:
REMARK  status: ('A' for Active; 'I' for Inactive)
REMARK    1  A    between atoms: C_1  and  N_16 
REMARK    2  A    between atoms: C_2  and  C_13 
REMARK    3  A    between atoms: C_7  and  N_18 
REMARK    4  A    between atoms: C_9  and  O_22 
REMARK    5  A    between atoms: C_10  and  O_23 
REMARK    6  A    between atoms: C_11  and  O_24 
REMARK    7  A    between atoms: C_13  and  O_21 
ROOT
HETATM    1  N   UNK N   1      23.041  17.582   5.403  0.00  0.00    -0.299 N 
ATOM      2  HN  UNK N   1      23.387  16.625   5.343  1.00  0.00     0.187 HD
HETATM    3  N   UNK N   1      22.145  17.836   6.233  0.00  0.00    -0.300 N 
ATOM      4  HN  UNK N   1      21.838  18.797   6.386  1.00  0.00     0.187 HD
ENDROOT
BRANCH   3   5
HETATM    5  C   UNK N   1      21.562  16.771   6.962  0.00  0.00     0.053 A 
HETATM    6  C   UNK N   1      22.188  15.524   7.025  0.00  0.00     0.070 A 
HETATM    7  C   UNK N   1      21.641  14.493   7.817  0.00  0.00     0.106 A 
HETATM    8  C   UNK N   1      20.463  14.730   8.547  0.00  0.00     0.133 A 
HETATM    9  C   UNK N   1      19.830  15.979   8.484  0.00  0.00     0.106 A 
HETATM   10  C   UNK N   1      20.387  16.988   7.694  0.00  0.00     0.070 A 
BRANCH   7  11
HETATM   11  O   UNK N   1      22.234  13.276   7.900  0.00  0.00    -0.353 OA
HETATM   12  C   UNK N   1      23.597  13.101   7.949  0.00  0.00     0.210 C 
ENDBRANCH   7  11
BRANCH   8  13
HETATM   13  O   UNK N   1      19.942  13.756   9.315  0.00  0.00    -0.356 OA
HETATM   14  H   UNK N   1      20.442  12.985   9.500  0.00  0.00     0.218 HD
ENDBRANCH   8  13
BRANCH   9  15
HETATM   15  O   UNK N   1      18.697  16.196   9.196  0.00  0.00    -0.353 OA
HETATM   16  C   UNK N   1      17.802  17.200   8.899  0.00  0.00     0.210 C 
ENDBRANCH   9  15
ENDBRANCH   3   5
BRANCH   1  17
HETATM   17  C   UNK N   1      23.601  18.552   4.539  0.00  0.00     0.065 A 
HETATM   18  C   UNK N   1      22.745  19.375   3.767  0.00  0.00     0.065 A 
HETATM   19  C   UNK N   1      23.309  20.366   2.950  0.00  0.00     0.021 A 
HETATM   20  C   UNK N   1      24.692  20.541   2.891  0.00  0.00     0.001 A 
HETATM   21  C   UNK N   1      25.533  19.727   3.651  0.00  0.00     0.002 A 
HETATM   22  C   UNK N   1      24.992  18.737   4.474  0.00  0.00     0.032 A 
BRANCH  18  23
HETATM   23  C   UNK N   1      21.261  19.233   3.805  0.00  0.00     0.178 C 
HETATM   24  O   UNK N   1      20.560  20.208   4.028  0.00  0.00    -0.646 OA
BRANCH  23  25
HETATM   25  O   UNK N   1      20.668  18.040   3.595  0.00  0.00    -0.773 OA
HETATM   26  H   UNK N   1      20.817  17.565   2.801  0.00  0.00     0.167 HD
ENDBRANCH  23  25
ENDBRANCH  18  23
ENDBRANCH   1  17
TORSDOF 7
ENDMDL
MODEL 9
REMARK VINA RESULT:      -6.0      2.774      7.063
REMARK  7 active torsions:
REMARK  status: ('A' for Active; 'I' for Inactive)
REMARK    1  A    between atoms: C_1  and  N_16 
REMARK    2  A    between atoms: C_2  and  C_13 
REMARK    3  A    between atoms: C_7  and  N_18 
REMARK    4  A    between atoms: C_9  and  O_22 
REMARK    5  A    between atoms: C_10  and  O_23 
REMARK    6  A    between atoms: C_11  and  O_24 
REMARK    7  A    between atoms: C_13  and  O_21 
ROOT
HETATM    1  N   UNK N   1      29.906  16.966   6.796  0.00  0.00    -0.299 N 
ATOM      2  HN  UNK N   1      29.523  16.031   6.932  1.00  0.00     0.187 HD
HETATM    3  N   UNK N   1      31.116  17.152   7.040  0.00  0.00    -0.300 N 
ATOM      4  HN  UNK N   1      31.555  18.049   6.829  1.00  0.00     0.187 HD
ENDROOT
BRANCH   3   5
HETATM    5  C   UNK N   1      31.871  16.099   7.611  0.00  0.00     0.053 A 
HETATM    6  C   UNK N   1      31.912  14.842   7.004  0.00  0.00     0.070 A 
HETATM    7  C   UNK N   1      32.729  13.823   7.536  0.00  0.00     0.106 A 
HETATM    8  C   UNK N   1      33.506  14.082   8.680  0.00  0.00     0.133 A 
HETATM    9  C   UNK N   1      33.464  15.342   9.293  0.00  0.00     0.106 A 
HETATM   10  C   UNK N   1      32.648  16.338   8.751  0.00  0.00     0.070 A 
BRANCH   7  11
HETATM   11  O   UNK N   1      32.793  12.596   6.962  0.00  0.00    -0.353 OA
HETATM   12  C   UNK N   1      33.399  12.359   5.750  0.00  0.00     0.210 C 
ENDBRANCH   7  11
BRANCH   8  13
HETATM   13  O   UNK N   1      34.297  13.119   9.186  0.00  0.00    -0.356 OA
HETATM   14  H   UNK N   1      34.859  13.307   9.913  0.00  0.00     0.218 HD
ENDBRANCH   8  13
BRANCH   9  15
HETATM   15  O   UNK N   1      34.221  15.580  10.393  0.00  0.00    -0.353 OA
HETATM   16  C   UNK N   1      35.192  16.556  10.441  0.00  0.00     0.210 C 
ENDBRANCH   9  15
ENDBRANCH   3   5
BRANCH   1  17
HETATM   17  C   UNK N   1      29.036  17.985   6.341  0.00  0.00     0.065 A 
HETATM   18  C   UNK N   1      28.342  18.780   7.286  0.00  0.00     0.065 A 
HETATM   19  C   UNK N   1      27.518  19.819   6.827  0.00  0.00     0.021 A 
HETATM   20  C   UNK N   1      27.380  20.069   5.461  0.00  0.00     0.001 A 
HETATM   21  C   UNK N   1      28.064  19.282   4.533  0.00  0.00     0.002 A 
HETATM   22  C   UNK N   1      28.891  18.246   4.969  0.00  0.00     0.032 A 
BRANCH  18  23
HETATM   23  C   UNK N   1      28.467  18.558   8.756  0.00  0.00     0.178 C 
HETATM   24  O   UNK N   1      29.529  18.777   9.317  0.00  0.00    -0.646 OA
BRANCH  23  25
HETATM   25  O   UNK N   1      27.422  18.120   9.487  0.00  0.00    -0.773 OA
HETATM   26  H   UNK N   1      27.369  17.225   9.758  0.00  0.00     0.167 HD
ENDBRANCH  23  25
ENDBRANCH  18  23
ENDBRANCH   1  17
TORSDOF 7
ENDMDL
