MODEL 1
REMARK VINA RESULT:      -8.2      0.000      0.000
REMARK  3 active torsions:
REMARK  status: ('A' for Active; 'I' for Inactive)
REMARK    1  A    between atoms: C_4  and  C_5 
REMARK    2  A    between atoms: C_15  and  C_14 
REMARK    3  A    between atoms: N_18  and  O_20 
REMARK       I    between atoms: N_27  and  C_26 
ROOT
HETATM    1  C   UNK N   1      26.647  18.430   4.912  0.00  0.00     0.031 C 
HETATM    2  C   UNK N   1      27.865  18.517   3.994  0.00  0.00     0.069 C 
HETATM    3  C   UNK N   1      28.998  17.735   4.615  0.00  0.00     0.046 C 
HETATM    4  N   UNK N   1      29.731  16.960   3.892  0.00  0.00    -0.272 N 
ATOM      5  HN  UNK N   1      30.489  16.438   4.332  1.00  0.00     0.194 HD
HETATM    6  C   UNK N   1      29.234  17.882   6.084  0.00  0.00     0.034 A 
HETATM    7  C   UNK N   1      27.032  19.153   6.221  0.00  0.00     0.068 C 
HETATM    8  C   UNK N   1      28.291  18.606   6.847  0.00  0.00     0.041 A 
HETATM    9  N   UNK N   1      28.494  18.792   8.174  0.00  0.00    -0.195 N 
ATOM     10  HN  UNK N   1      27.812  19.326   8.713  1.00  0.00     0.184 HD
HETATM   11  C   UNK N   1      29.585  18.283   8.799  0.00  0.00     0.676 A 
HETATM   12  N   UNK N   1      29.774  18.504  10.174  0.00  0.00    -0.234 N 
HETATM   13  N   UNK N   1      30.490  17.552   8.098  0.00  0.00    -0.195 N 
ATOM     14  HN  UNK N   1      31.295  17.158   8.584  1.00  0.00     0.184 HD
HETATM   15  C   UNK N   1      30.347  17.333   6.766  0.00  0.00     0.037 A 
HETATM   16  C   UNK N   1      31.389  16.522   6.074  0.00  0.00     0.070 C 
HETATM   17  H   UNK N   1      29.097  18.969  10.717  0.00  0.00     0.174 HD
HETATM   18  H   UNK N   1      30.601  18.186  10.604  0.00  0.00     0.174 HD
ENDROOT
BRANCH   1  19
HETATM   19  C   UNK N   1      25.392  19.000   4.257  0.00  0.00    -0.042 A 
HETATM   20  C   UNK N   1      24.077  18.437   4.423  0.00  0.00    -0.015 A 
HETATM   21  C   UNK N   1      23.000  19.052   3.755  0.00  0.00     0.055 A 
HETATM   22  C   UNK N   1      23.175  20.189   2.972  0.00  0.00     0.117 A 
HETATM   23  F   UNK N   1      22.108  20.768   2.371  0.00  0.00    -0.206 F 
HETATM   24  C   UNK N   1      24.441  20.735   2.817  0.00  0.00     0.043 A 
HETATM   25  C   UNK N   1      25.533  20.144   3.446  0.00  0.00     0.011 A 
BRANCH  20  26
HETATM   26  C   UNK N   1      23.747  17.233   5.258  0.00  0.00    -0.010 A 
HETATM   27  C   UNK N   1      22.497  17.156   5.899  0.00  0.00     0.099 A 
HETATM   28  N   UNK N   1      22.162  16.071   6.650  0.00  0.00    -0.374 N 
HETATM   29  C   UNK N   1      23.024  15.036   6.824  0.00  0.00     0.087 A 
ATOM     30  HN  UNK N   1      21.244  16.036   7.093  1.00  0.00     0.164 HD
HETATM   31  C   UNK N   1      24.285  15.073   6.232  0.00  0.00     0.018 A 
HETATM   32  C   UNK N   1      24.640  16.171   5.451  0.00  0.00     0.015 A 
ENDBRANCH  20  26
ENDBRANCH   1  19
BRANCH   4  33
HETATM   33  O   UNK N   1      29.524  16.828   2.599  0.00  0.00    -0.290 OA
HETATM   34  H   UNK N   1      30.089  16.315   2.057  0.00  0.00     0.244 HD
ENDBRANCH   4  33
TORSDOF 3
ENDMDL
MODEL 2
REMARK VINA RESULT:      -8.1      5.071      8.108
REMARK  3 active torsions:
REMARK  status: ('A' for Active; 'I' for Inactive)
REMARK    1  A    between atoms: C_4  and  C_5 
REMARK    2  A    between atoms: C_15  and  C_14 
REMARK    3  A    between atoms: N_18  and  O_20 
REMARK       I    between atoms: N_27  and  C_26 
ROOT
HETATM    1  C   UNK N   1      21.943  16.197   6.513  0.00  0.00     0.031 C 
HETATM    2  C   UNK N   1      23.278  16.329   5.780  0.00  0.00     0.069 C 
HETATM    3  C   UNK N   1      23.281  17.627   5.008  0.00  0.00     0.046 C 
HETATM    4  N   UNK N   1      24.322  18.386   5.009  0.00  0.00    -0.272 N 
ATOM      5  HN  UNK N   1      24.303  19.260   4.483  1.00  0.00     0.194 HD
HETATM    6  C   UNK N   1      22.045  18.002   4.255  0.00  0.00     0.034 A 
HETATM    7  C   UNK N   1      20.855  16.078   5.423  0.00  0.00     0.068 C 
HETATM    8  C   UNK N   1      20.884  17.219   4.436  0.00  0.00     0.041 A 
HETATM    9  N   UNK N   1      19.757  17.508   3.740  0.00  0.00    -0.195 N 
ATOM     10  HN  UNK N   1      18.927  16.929   3.870  1.00  0.00     0.184 HD
HETATM   11  C   UNK N   1      19.711  18.551   2.874  0.00  0.00     0.676 A 
HETATM   12  N   UNK N   1      18.532  18.817   2.156  0.00  0.00    -0.234 N 
HETATM   13  N   UNK N   1      20.801  19.343   2.706  0.00  0.00    -0.195 N 
ATOM     14  HN  UNK N   1      20.747  20.136   2.067  1.00  0.00     0.184 HD
HETATM   15  C   UNK N   1      21.961  19.105   3.370  0.00  0.00     0.037 A 
HETATM   16  C   UNK N   1      23.110  20.023   3.125  0.00  0.00     0.070 C 
HETATM   17  H   UNK N   1      17.708  18.301   2.313  0.00  0.00     0.174 HD
HETATM   18  H   UNK N   1      18.530  19.535   1.483  0.00  0.00     0.174 HD
ENDROOT
BRANCH   1  19
HETATM   19  C   UNK N   1      21.940  15.029   7.494  0.00  0.00    -0.042 A 
HETATM   20  C   UNK N   1      21.038  14.927   8.612  0.00  0.00    -0.015 A 
HETATM   21  C   UNK N   1      21.144  13.802   9.453  0.00  0.00     0.055 A 
HETATM   22  C   UNK N   1      22.070  12.791   9.213  0.00  0.00     0.117 A 
HETATM   23  F   UNK N   1      22.120  11.711  10.029  0.00  0.00    -0.206 F 
HETATM   24  C   UNK N   1      22.936  12.887   8.134  0.00  0.00     0.043 A 
HETATM   25  C   UNK N   1      22.874  13.993   7.291  0.00  0.00     0.011 A 
BRANCH  20  26
HETATM   26  C   UNK N   1      19.977  15.929   8.967  0.00  0.00    -0.010 A 
HETATM   27  C   UNK N   1      18.715  15.481   9.399  0.00  0.00     0.099 A 
HETATM   28  N   UNK N   1      17.739  16.364   9.742  0.00  0.00    -0.374 N 
HETATM   29  C   UNK N   1      17.937  17.706   9.664  0.00  0.00     0.087 A 
ATOM     30  HN  UNK N   1      16.838  16.011  10.064  1.00  0.00     0.164 HD
HETATM   31  C   UNK N   1      19.160  18.204   9.218  0.00  0.00     0.018 A 
HETATM   32  C   UNK N   1      20.174  17.313   8.872  0.00  0.00     0.015 A 
ENDBRANCH  20  26
ENDBRANCH   1  19
BRANCH   4  33
HETATM   33  O   UNK N   1      25.411  18.057   5.672  0.00  0.00    -0.290 OA
HETATM   34  H   UNK N   1      26.237  17.948   5.245  0.00  0.00     0.244 HD
ENDBRANCH   4  33
TORSDOF 3
ENDMDL
MODEL 3
REMARK VINA RESULT:      -8.0      4.301      7.734
REMARK  3 active torsions:
REMARK  status: ('A' for Active; 'I' for Inactive)
REMARK    1  A    between atoms: C_4  and  C_5 
REMARK    2  A    between atoms: C_15  and  C_14 
REMARK    3  A    between atoms: N_18  and  O_20 
REMARK       I    between atoms: N_27  and  C_26 
ROOT
HETATM    1  C   UNK N   1      30.101  17.508   7.001  0.00  0.00     0.031 C 
HETATM    2  C   UNK N   1      29.410  16.883   5.789  0.00  0.00     0.069 C 
HETATM    3  C   UNK N   1      28.656  17.964   5.051  0.00  0.00     0.046 C 
HETATM    4  N   UNK N   1      28.699  18.028   3.765  0.00  0.00    -0.272 N 
ATOM      5  HN  UNK N   1      28.185  18.767   3.285  1.00  0.00     0.194 HD
HETATM    6  C   UNK N   1      27.872  18.951   5.854  0.00  0.00     0.034 A 
HETATM    7  C   UNK N   1      28.978  17.999   7.940  0.00  0.00     0.068 C 
HETATM    8  C   UNK N   1      28.008  18.933   7.260  0.00  0.00     0.041 A 
HETATM    9  N   UNK N   1      27.283  19.788   8.021  0.00  0.00    -0.195 N 
ATOM     10  HN  UNK N   1      27.381  19.759   9.036  1.00  0.00     0.184 HD
HETATM   11  C   UNK N   1      26.430  20.682   7.461  0.00  0.00     0.676 A 
HETATM   12  N   UNK N   1      25.682  21.547   8.278  0.00  0.00    -0.234 N 
HETATM   13  N   UNK N   1      26.306  20.746   6.110  0.00  0.00    -0.195 N 
ATOM     14  HN  UNK N   1      25.676  21.436   5.701  1.00  0.00     0.184 HD
HETATM   15  C   UNK N   1      27.001  19.915   5.292  0.00  0.00     0.037 A 
HETATM   16  C   UNK N   1      26.802  20.053   3.821  0.00  0.00     0.070 C 
HETATM   17  H   UNK N   1      25.807  21.568   9.254  0.00  0.00     0.174 HD
HETATM   18  H   UNK N   1      25.018  22.146   7.864  0.00  0.00     0.174 HD
ENDROOT
BRANCH   1  19
HETATM   19  C   UNK N   1      31.066  16.537   7.675  0.00  0.00    -0.042 A 
HETATM   20  C   UNK N   1      32.131  15.858   6.983  0.00  0.00    -0.015 A 
HETATM   21  C   UNK N   1      32.947  14.976   7.718  0.00  0.00     0.055 A 
HETATM   22  C   UNK N   1      32.764  14.772   9.083  0.00  0.00     0.117 A 
HETATM   23  F   UNK N   1      33.590  13.938   9.759  0.00  0.00    -0.206 F 
HETATM   24  C   UNK N   1      31.742  15.430   9.751  0.00  0.00     0.043 A 
HETATM   25  C   UNK N   1      30.903  16.295   9.055  0.00  0.00     0.011 A 
BRANCH  20  26
HETATM   26  C   UNK N   1      32.454  16.009   5.524  0.00  0.00    -0.010 A 
HETATM   27  C   UNK N   1      32.327  14.900   4.668  0.00  0.00     0.099 A 
HETATM   28  N   UNK N   1      32.598  15.009   3.338  0.00  0.00    -0.374 N 
HETATM   29  C   UNK N   1      33.014  16.181   2.793  0.00  0.00     0.087 A 
ATOM     30  HN  UNK N   1      32.485  14.191   2.738  1.00  0.00     0.164 HD
HETATM   31  C   UNK N   1      33.181  17.304   3.601  0.00  0.00     0.018 A 
HETATM   32  C   UNK N   1      32.898  17.212   4.963  0.00  0.00     0.015 A 
ENDBRANCH  20  26
ENDBRANCH   1  19
BRANCH   4  33
HETATM   33  O   UNK N   1      29.389  17.160   3.056  0.00  0.00    -0.290 OA
HETATM   34  H   UNK N   1      30.315  17.242   2.937  0.00  0.00     0.244 HD
ENDBRANCH   4  33
TORSDOF 3
ENDMDL
MODEL 4
REMARK VINA RESULT:      -7.9      5.059      7.610
REMARK  3 active torsions:
REMARK  status: ('A' for Active; 'I' for Inactive)
REMARK    1  A    between atoms: C_4  and  C_5 
REMARK    2  A    between atoms: C_15  and  C_14 
REMARK    3  A    between atoms: N_18  and  O_20 
REMARK       I    between atoms: N_27  and  C_26 
ROOT
HETATM    1  C   UNK N   1      32.177  16.483   7.212  0.00  0.00     0.031 C 
HETATM    2  C   UNK N   1      32.627  17.587   8.168  0.00  0.00     0.069 C 
HETATM    3  C   UNK N   1      33.910  17.156   8.837  0.00  0.00     0.046 C 
HETATM    4  N   UNK N   1      34.886  17.986   8.977  0.00  0.00    -0.272 N 
ATOM      5  HN  UNK N   1      35.745  17.674   9.429  1.00  0.00     0.194 HD
HETATM    6  C   UNK N   1      34.013  15.746   9.323  0.00  0.00     0.034 A 
HETATM    7  C   UNK N   1      31.840  15.257   8.089  0.00  0.00     0.068 C 
HETATM    8  C   UNK N   1      32.981  14.842   8.984  0.00  0.00     0.041 A 
HETATM    9  N   UNK N   1      33.023  13.566   9.439  0.00  0.00    -0.195 N 
ATOM     10  HN  UNK N   1      32.267  12.925   9.199  1.00  0.00     0.184 HD
HETATM   11  C   UNK N   1      34.049  13.125  10.210  0.00  0.00     0.676 A 
HETATM   12  N   UNK N   1      34.057  11.800  10.678  0.00  0.00    -0.234 N 
HETATM   13  N   UNK N   1      35.072  13.962  10.521  0.00  0.00    -0.195 N 
ATOM     14  HN  UNK N   1      35.847  13.612  11.084  1.00  0.00     0.184 HD
HETATM   15  C   UNK N   1      35.088  15.252  10.100  0.00  0.00     0.037 A 
HETATM   16  C   UNK N   1      36.250  16.102  10.490  0.00  0.00     0.070 C 
HETATM   17  H   UNK N   1      33.363  11.155  10.407  0.00  0.00     0.174 HD
HETATM   18  H   UNK N   1      34.772  11.509  11.289  0.00  0.00     0.174 HD
ENDROOT
BRANCH   1  19
HETATM   19  C   UNK N   1      31.015  16.927   6.329  0.00  0.00    -0.042 A 
HETATM   20  C   UNK N   1      30.933  16.651   4.918  0.00  0.00    -0.015 A 
HETATM   21  C   UNK N   1      29.812  17.126   4.210  0.00  0.00     0.055 A 
HETATM   22  C   UNK N   1      28.785  17.822   4.842  0.00  0.00     0.117 A 
HETATM   23  F   UNK N   1      27.709  18.235   4.131  0.00  0.00    -0.206 F 
HETATM   24  C   UNK N   1      28.861  18.082   6.203  0.00  0.00     0.043 A 
HETATM   25  C   UNK N   1      29.963  17.646   6.932  0.00  0.00     0.011 A 
BRANCH  20  26
HETATM   26  C   UNK N   1      31.954  15.891   4.120  0.00  0.00    -0.010 A 
HETATM   27  C   UNK N   1      32.686  16.554   3.119  0.00  0.00     0.099 A 
HETATM   28  N   UNK N   1      33.629  15.896   2.390  0.00  0.00    -0.374 N 
HETATM   29  C   UNK N   1      33.885  14.577   2.588  0.00  0.00     0.087 A 
ATOM     30  HN  UNK N   1      34.154  16.405   1.679  1.00  0.00     0.164 HD
HETATM   31  C   UNK N   1      33.171  13.866   3.551  0.00  0.00     0.018 A 
HETATM   32  C   UNK N   1      32.210  14.527   4.313  0.00  0.00     0.015 A 
ENDBRANCH  20  26
ENDBRANCH   1  19
BRANCH   4  33
HETATM   33  O   UNK N   1      34.798  19.228   8.549  0.00  0.00    -0.290 OA
HETATM   34  H   UNK N   1      34.136  19.813   8.860  0.00  0.00     0.244 HD
ENDBRANCH   4  33
TORSDOF 3
ENDMDL
MODEL 5
REMARK VINA RESULT:      -7.7     11.910     14.168
REMARK  3 active torsions:
REMARK  status: ('A' for Active; 'I' for Inactive)
REMARK    1  A    between atoms: C_4  and  C_5 
REMARK    2  A    between atoms: C_15  and  C_14 
REMARK    3  A    between atoms: N_18  and  O_20 
REMARK       I    between atoms: N_27  and  C_26 
ROOT
HETATM    1  C   UNK N   1      28.456  23.905  -5.096  0.00  0.00     0.031 C 
HETATM    2  C   UNK N   1      27.001  23.482  -5.295  0.00  0.00     0.069 C 
HETATM    3  C   UNK N   1      26.182  24.706  -5.631  0.00  0.00     0.046 C 
HETATM    4  N   UNK N   1      25.299  24.664  -6.568  0.00  0.00    -0.272 N 
ATOM      5  HN  UNK N   1      24.758  25.503  -6.781  1.00  0.00     0.194 HD
HETATM    6  C   UNK N   1      26.432  25.957  -4.852  0.00  0.00     0.034 A 
HETATM    7  C   UNK N   1      28.480  24.821  -3.853  0.00  0.00     0.068 C 
HETATM    8  C   UNK N   1      27.530  25.987  -3.963  0.00  0.00     0.041 A 
HETATM    9  N   UNK N   1      27.763  27.092  -3.213  0.00  0.00    -0.195 N 
ATOM     10  HN  UNK N   1      28.551  27.099  -2.566  1.00  0.00     0.184 HD
HETATM   11  C   UNK N   1      26.968  28.188  -3.305  0.00  0.00     0.676 A 
HETATM   12  N   UNK N   1      27.228  29.313  -2.504  0.00  0.00    -0.234 N 
HETATM   13  N   UNK N   1      25.928  28.201  -4.177  0.00  0.00    -0.195 N 
ATOM     14  HN  UNK N   1      25.350  29.038  -4.251  1.00  0.00     0.184 HD
HETATM   15  C   UNK N   1      25.639  27.125  -4.954  0.00  0.00     0.037 A 
HETATM   16  C   UNK N   1      24.476  27.224  -5.883  0.00  0.00     0.070 C 
HETATM   17  H   UNK N   1      28.018  29.355  -1.917  0.00  0.00     0.174 HD
HETATM   18  H   UNK N   1      26.608  30.078  -2.531  0.00  0.00     0.174 HD
ENDROOT
BRANCH   1  19
HETATM   19  C   UNK N   1      29.392  22.706  -4.976  0.00  0.00    -0.042 A 
HETATM   20  C   UNK N   1      29.698  21.819  -6.068  0.00  0.00    -0.015 A 
HETATM   21  C   UNK N   1      30.569  20.739  -5.825  0.00  0.00     0.055 A 
HETATM   22  C   UNK N   1      31.150  20.531  -4.577  0.00  0.00     0.117 A 
HETATM   23  F   UNK N   1      32.006  19.498  -4.392  0.00  0.00    -0.206 F 
HETATM   24  C   UNK N   1      30.858  21.388  -3.527  0.00  0.00     0.043 A 
HETATM   25  C   UNK N   1      29.987  22.456  -3.723  0.00  0.00     0.011 A 
BRANCH  20  26
HETATM   26  C   UNK N   1      29.164  21.945  -7.467  0.00  0.00    -0.010 A 
HETATM   27  C   UNK N   1      29.752  22.864  -8.354  0.00  0.00     0.099 A 
HETATM   28  N   UNK N   1      29.300  22.991  -9.631  0.00  0.00    -0.374 N 
HETATM   29  C   UNK N   1      28.258  22.251 -10.091  0.00  0.00     0.087 A 
ATOM     30  HN  UNK N   1      29.755  23.656 -10.257  1.00  0.00     0.164 HD
HETATM   31  C   UNK N   1      27.622  21.343  -9.246  0.00  0.00     0.018 A 
HETATM   32  C   UNK N   1      28.079  21.194  -7.938  0.00  0.00     0.015 A 
ENDBRANCH  20  26
ENDBRANCH   1  19
BRANCH   4  33
HETATM   33  O   UNK N   1      25.078  23.564  -7.256  0.00  0.00    -0.290 OA
HETATM   34  H   UNK N   1      25.635  23.300  -7.961  0.00  0.00     0.244 HD
ENDBRANCH   4  33
TORSDOF 3
ENDMDL
MODEL 6
REMARK VINA RESULT:      -7.7      5.613      8.431
REMARK  3 active torsions:
REMARK  status: ('A' for Active; 'I' for Inactive)
REMARK    1  A    between atoms: C_4  and  C_5 
REMARK    2  A    between atoms: C_15  and  C_14 
REMARK    3  A    between atoms: N_18  and  O_20 
REMARK       I    between atoms: N_27  and  C_26 
ROOT
HETATM    1  C   UNK N   1      21.379  14.956   6.857  0.00  0.00     0.031 C 
HETATM    2  C   UNK N   1      19.983  15.570   6.758  0.00  0.00     0.069 C 
HETATM    3  C   UNK N   1      19.857  16.274   5.428  0.00  0.00     0.046 C 
HETATM    4  N   UNK N   1      18.786  16.151   4.722  0.00  0.00    -0.272 N 
ATOM      5  HN  UNK N   1      18.722  16.632   3.825  1.00  0.00     0.194 HD
HETATM    6  C   UNK N   1      21.006  17.106   4.959  0.00  0.00     0.034 A 
HETATM    7  C   UNK N   1      22.376  16.136   6.873  0.00  0.00     0.068 C 
HETATM    8  C   UNK N   1      22.213  17.060   5.692  0.00  0.00     0.041 A 
HETATM    9  N   UNK N   1      23.263  17.831   5.317  0.00  0.00    -0.195 N 
ATOM     10  HN  UNK N   1      24.126  17.798   5.860  1.00  0.00     0.184 HD
HETATM   11  C   UNK N   1      23.189  18.645   4.235  0.00  0.00     0.676 A 
HETATM   12  N   UNK N   1      24.291  19.443   3.879  0.00  0.00    -0.234 N 
HETATM   13  N   UNK N   1      22.054  18.684   3.490  0.00  0.00    -0.195 N 
ATOM     14  HN  UNK N   1      22.019  19.286   2.668  1.00  0.00     0.184 HD
HETATM   15  C   UNK N   1      20.966  17.940   3.815  0.00  0.00     0.037 A 
HETATM   16  C   UNK N   1      19.760  18.045   2.944  0.00  0.00     0.070 C 
HETATM   17  H   UNK N   1      25.147  19.379   4.360  0.00  0.00     0.174 HD
HETATM   18  H   UNK N   1      24.204  20.078   3.132  0.00  0.00     0.174 HD
ENDROOT
BRANCH   1  19
HETATM   19  C   UNK N   1      21.518  14.037   8.067  0.00  0.00    -0.042 A 
HETATM   20  C   UNK N   1      22.517  13.006   8.178  0.00  0.00    -0.015 A 
HETATM   21  C   UNK N   1      22.533  12.216   9.343  0.00  0.00     0.055 A 
HETATM   22  C   UNK N   1      21.633  12.425  10.384  0.00  0.00     0.117 A 
HETATM   23  F   UNK N   1      21.701  11.662  11.501  0.00  0.00    -0.206 F 
HETATM   24  C   UNK N   1      20.674  13.421  10.280  0.00  0.00     0.043 A 
HETATM   25  C   UNK N   1      20.615  14.211   9.135  0.00  0.00     0.011 A 
BRANCH  20  26
HETATM   26  C   UNK N   1      23.562  12.694   7.144  0.00  0.00    -0.010 A 
HETATM   27  C   UNK N   1      23.296  11.724   6.161  0.00  0.00     0.099 A 
HETATM   28  N   UNK N   1      24.216  11.430   5.202  0.00  0.00    -0.374 N 
HETATM   29  C   UNK N   1      25.426  12.046   5.167  0.00  0.00     0.087 A 
ATOM     30  HN  UNK N   1      23.991  10.731   4.493  1.00  0.00     0.164 HD
HETATM   31  C   UNK N   1      25.750  12.997   6.133  0.00  0.00     0.018 A 
HETATM   32  C   UNK N   1      24.816  13.317   7.115  0.00  0.00     0.015 A 
ENDBRANCH  20  26
ENDBRANCH   1  19
BRANCH   4  33
HETATM   33  O   UNK N   1      17.773  15.418   5.133  0.00  0.00    -0.290 OA
HETATM   34  H   UNK N   1      17.179  15.013   4.533  0.00  0.00     0.244 HD
ENDBRANCH   4  33
TORSDOF 3
ENDMDL
MODEL 7
REMARK VINA RESULT:      -7.6     12.644     15.576
REMARK  3 active torsions:
REMARK  status: ('A' for Active; 'I' for Inactive)
REMARK    1  A    between atoms: C_4  and  C_5 
REMARK    2  A    between atoms: C_15  and  C_14 
REMARK    3  A    between atoms: N_18  and  O_20 
REMARK       I    between atoms: N_27  and  C_26 
ROOT
HETATM    1  C   UNK N   1      35.787  11.960  14.434  0.00  0.00     0.031 C 
HETATM    2  C   UNK N   1      34.435  11.856  13.729  0.00  0.00     0.069 C 
HETATM    3  C   UNK N   1      34.672  11.553  12.269  0.00  0.00     0.046 C 
HETATM    4  N   UNK N   1      33.955  10.672  11.660  0.00  0.00    -0.272 N 
ATOM      5  HN  UNK N   1      34.133  10.480  10.674  1.00  0.00     0.194 HD
HETATM    6  C   UNK N   1      35.758  12.296  11.561  0.00  0.00     0.034 A 
HETATM    7  C   UNK N   1      36.504  13.186  13.827  0.00  0.00     0.068 C 
HETATM    8  C   UNK N   1      36.618  13.116  12.325  0.00  0.00     0.041 A 
HETATM    9  N   UNK N   1      37.591  13.834  11.711  0.00  0.00    -0.195 N 
ATOM     10  HN  UNK N   1      38.199  14.432  12.270  1.00  0.00     0.184 HD
HETATM   11  C   UNK N   1      37.769  13.774  10.368  0.00  0.00     0.676 A 
HETATM   12  N   UNK N   1      38.778  14.541   9.758  0.00  0.00    -0.234 N 
HETATM   13  N   UNK N   1      36.981  12.967   9.613  0.00  0.00    -0.195 N 
ATOM     14  HN  UNK N   1      37.139  12.916   8.606  1.00  0.00     0.184 HD
HETATM   15  C   UNK N   1      35.988  12.225  10.166  0.00  0.00     0.037 A 
HETATM   16  C   UNK N   1      35.167  11.368   9.262  0.00  0.00     0.070 C 
HETATM   17  H   UNK N   1      39.408  15.079  10.292  0.00  0.00     0.174 HD
HETATM   18  H   UNK N   1      38.857  14.541   8.777  0.00  0.00     0.174 HD
ENDROOT
BRANCH   1  19
HETATM   19  C   UNK N   1      35.639  12.040  15.951  0.00  0.00    -0.042 A 
HETATM   20  C   UNK N   1      35.864  10.927  16.836  0.00  0.00    -0.015 A 
HETATM   21  C   UNK N   1      35.683  11.128  18.218  0.00  0.00     0.055 A 
HETATM   22  C   UNK N   1      35.322  12.368  18.739  0.00  0.00     0.117 A 
HETATM   23  F   UNK N   1      35.187  12.527  20.077  0.00  0.00    -0.206 F 
HETATM   24  C   UNK N   1      35.110  13.442  17.886  0.00  0.00     0.043 A 
HETATM   25  C   UNK N   1      35.261  13.277  16.512  0.00  0.00     0.011 A 
BRANCH  20  26
HETATM   26  C   UNK N   1      36.281   9.549  16.410  0.00  0.00    -0.010 A 
HETATM   27  C   UNK N   1      37.623   9.306  16.065  0.00  0.00     0.099 A 
HETATM   28  N   UNK N   1      38.035   8.064  15.690  0.00  0.00    -0.374 N 
HETATM   29  C   UNK N   1      37.168   7.022  15.617  0.00  0.00     0.087 A 
ATOM     30  HN  UNK N   1      39.017   7.914  15.458  1.00  0.00     0.164 HD
HETATM   31  C   UNK N   1      35.822   7.213  15.922  0.00  0.00     0.018 A 
HETATM   32  C   UNK N   1      35.386   8.476  16.319  0.00  0.00     0.015 A 
ENDBRANCH  20  26
ENDBRANCH   1  19
BRANCH   4  33
HETATM   33  O   UNK N   1      32.998  10.015  12.281  0.00  0.00    -0.290 OA
HETATM   34  H   UNK N   1      32.302   9.596  11.815  0.00  0.00     0.244 HD
ENDBRANCH   4  33
TORSDOF 3
ENDMDL
MODEL 8
REMARK VINA RESULT:      -7.6     11.197     14.034
REMARK  3 active torsions:
REMARK  status: ('A' for Active; 'I' for Inactive)
REMARK    1  A    between atoms: C_4  and  C_5 
REMARK    2  A    between atoms: C_15  and  C_14 
REMARK    3  A    between atoms: N_18  and  O_20 
REMARK       I    between atoms: N_27  and  C_26 
ROOT
HETATM    1  C   UNK N   1      27.826  24.123  -6.683  0.00  0.00     0.031 C 
HETATM    2  C   UNK N   1      27.042  23.815  -5.409  0.00  0.00     0.069 C 
HETATM    3  C   UNK N   1      28.018  23.627  -4.272  0.00  0.00     0.046 C 
HETATM    4  N   UNK N   1      27.787  24.153  -3.119  0.00  0.00    -0.272 N 
ATOM      5  HN  UNK N   1      28.461  24.017  -2.365  1.00  0.00     0.194 HD
HETATM    6  C   UNK N   1      29.252  22.824  -4.528  0.00  0.00     0.034 A 
HETATM    7  C   UNK N   1      28.655  22.860  -7.003  0.00  0.00     0.068 C 
HETATM    8  C   UNK N   1      29.531  22.425  -5.855  0.00  0.00     0.041 A 
HETATM    9  N   UNK N   1      30.621  21.664  -6.117  0.00  0.00    -0.195 N 
ATOM     10  HN  UNK N   1      30.807  21.371  -7.077  1.00  0.00     0.184 HD
HETATM   11  C   UNK N   1      31.469  21.282  -5.130  0.00  0.00     0.676 A 
HETATM   12  N   UNK N   1      32.584  20.481  -5.432  0.00  0.00    -0.234 N 
HETATM   13  N   UNK N   1      31.246  21.681  -3.851  0.00  0.00    -0.195 N 
ATOM     14  HN  UNK N   1      31.903  21.403  -3.122  1.00  0.00     0.184 HD
HETATM   15  C   UNK N   1      30.171  22.441  -3.522  0.00  0.00     0.037 A 
HETATM   16  C   UNK N   1      30.001  22.832  -2.092  0.00  0.00     0.070 C 
HETATM   17  H   UNK N   1      32.806  20.238  -6.361  0.00  0.00     0.174 HD
HETATM   18  H   UNK N   1      33.156  20.155  -4.700  0.00  0.00     0.174 HD
ENDROOT
BRANCH   1  19
HETATM   19  C   UNK N   1      26.914  24.549  -7.831  0.00  0.00    -0.042 A 
HETATM   20  C   UNK N   1      26.213  25.806  -7.870  0.00  0.00    -0.015 A 
HETATM   21  C   UNK N   1      25.391  26.075  -8.982  0.00  0.00     0.055 A 
HETATM   22  C   UNK N   1      25.265  25.176 -10.037  0.00  0.00     0.117 A 
HETATM   23  F   UNK N   1      24.488  25.487 -11.102  0.00  0.00    -0.206 F 
HETATM   24  C   UNK N   1      25.945  23.968 -10.001  0.00  0.00     0.043 A 
HETATM   25  C   UNK N   1      26.752  23.658  -8.911  0.00  0.00     0.011 A 
BRANCH  20  26
HETATM   26  C   UNK N   1      26.282  26.873  -6.815  0.00  0.00    -0.010 A 
HETATM   27  C   UNK N   1      27.313  27.828  -6.860  0.00  0.00     0.099 A 
HETATM   28  N   UNK N   1      27.393  28.816  -5.927  0.00  0.00    -0.374 N 
HETATM   29  C   UNK N   1      26.496  28.906  -4.912  0.00  0.00     0.087 A 
ATOM     30  HN  UNK N   1      28.144  29.503  -5.993  1.00  0.00     0.164 HD
HETATM   31  C   UNK N   1      25.469  27.970  -4.805  0.00  0.00     0.018 A 
HETATM   32  C   UNK N   1      25.366  26.959  -5.758  0.00  0.00     0.015 A 
ENDBRANCH  20  26
ENDBRANCH   1  19
BRANCH   4  33
HETATM   33  O   UNK N   1      26.702  24.862  -2.891  0.00  0.00    -0.290 OA
HETATM   34  H   UNK N   1      25.859  24.463  -2.807  0.00  0.00     0.244 HD
ENDBRANCH   4  33
TORSDOF 3
ENDMDL
MODEL 9
REMARK VINA RESULT:      -7.6      2.352      3.274
REMARK  3 active torsions:
REMARK  status: ('A' for Active; 'I' for Inactive)
REMARK    1  A    between atoms: C_4  and  C_5 
REMARK    2  A    between atoms: C_15  and  C_14 
REMARK    3  A    between atoms: N_18  and  O_20 
REMARK       I    between atoms: N_27  and  C_26 
ROOT
HETATM    1  C   UNK N   1      29.129  17.561   5.023  0.00  0.00     0.031 C 
HETATM    2  C   UNK N   1      30.379  18.053   4.295  0.00  0.00     0.069 C 
HETATM    3  C   UNK N   1      31.508  17.087   4.564  0.00  0.00     0.046 C 
HETATM    4  N   UNK N   1      32.291  16.714   3.611  0.00  0.00    -0.272 N 
ATOM      5  HN  UNK N   1      33.046  16.059   3.813  1.00  0.00     0.194 HD
HETATM    6  C   UNK N   1      31.683  16.577   5.958  0.00  0.00     0.034 A 
HETATM    7  C   UNK N   1      29.442  17.640   6.533  0.00  0.00     0.068 C 
HETATM    8  C   UNK N   1      30.691  16.885   6.915  0.00  0.00     0.041 A 
HETATM    9  N   UNK N   1      30.836  16.471   8.198  0.00  0.00    -0.195 N 
ATOM     10  HN  UNK N   1      30.119  16.709   8.884  1.00  0.00     0.184 HD
HETATM   11  C   UNK N   1      31.916  15.749   8.588  0.00  0.00     0.676 A 
HETATM   12  N   UNK N   1      32.045  15.346   9.929  0.00  0.00    -0.234 N 
HETATM   13  N   UNK N   1      32.868  15.408   7.682  0.00  0.00    -0.195 N 
ATOM     14  HN  UNK N   1      33.665  14.848   7.984  1.00  0.00     0.184 HD
HETATM   15  C   UNK N   1      32.784  15.794   6.383  0.00  0.00     0.037 A 
HETATM   16  C   UNK N   1      33.875  15.378   5.456  0.00  0.00     0.070 C 
HETATM   17  H   UNK N   1      31.335  15.520  10.588  0.00  0.00     0.174 HD
HETATM   18  H   UNK N   1      32.864  14.879  10.215  0.00  0.00     0.174 HD
ENDROOT
BRANCH   1  19
HETATM   19  C   UNK N   1      27.885  18.350   4.626  0.00  0.00    -0.042 A 
HETATM   20  C   UNK N   1      26.728  17.759   4.004  0.00  0.00    -0.015 A 
HETATM   21  C   UNK N   1      25.647  18.599   3.675  0.00  0.00     0.055 A 
HETATM   22  C   UNK N   1      25.663  19.962   3.957  0.00  0.00     0.117 A 
HETATM   23  F   UNK N   1      24.590  20.730   3.652  0.00  0.00    -0.206 F 
HETATM   24  C   UNK N   1      26.775  20.530   4.561  0.00  0.00     0.043 A 
HETATM   25  C   UNK N   1      27.871  19.736   4.884  0.00  0.00     0.011 A 
BRANCH  20  26
HETATM   26  C   UNK N   1      26.570  16.303   3.670  0.00  0.00    -0.010 A 
HETATM   27  C   UNK N   1      25.844  15.467   4.538  0.00  0.00     0.099 A 
HETATM   28  N   UNK N   1      25.670  14.147   4.255  0.00  0.00    -0.374 N 
HETATM   29  C   UNK N   1      26.203  13.586   3.139  0.00  0.00     0.087 A 
ATOM     30  HN  UNK N   1      25.127  13.568   4.895  1.00  0.00     0.164 HD
HETATM   31  C   UNK N   1      26.953  14.363   2.258  0.00  0.00     0.018 A 
HETATM   32  C   UNK N   1      27.131  15.718   2.528  0.00  0.00     0.015 A 
ENDBRANCH  20  26
ENDBRANCH   1  19
BRANCH   4  33
HETATM   33  O   UNK N   1      32.138  17.161   2.382  0.00  0.00    -0.290 OA
HETATM   34  H   UNK N   1      32.151  18.076   2.182  0.00  0.00     0.244 HD
ENDBRANCH   4  33
TORSDOF 3
ENDMDL
