MODEL 1
REMARK VINA RESULT:      -7.1      0.000      0.000
REMARK  4 active torsions:
REMARK  status: ('A' for Active; 'I' for Inactive)
REMARK    1  A    between atoms: O_3  and  C_21 
REMARK    2  A    between atoms: C_8  and  C_12 
REMARK    3  A    between atoms: C_9  and  C_19 
REMARK    4  A    between atoms: C_12  and  C_13 
ROOT
HETATM    1  S   UNK N   1      29.006  17.743   9.540  0.00  0.00    -0.041 SA
HETATM    2  N   UNK N   1      31.406  17.664   9.070  0.00  0.00    -0.354 N 
HETATM    3  N   UNK N   1      29.850  17.159   7.257  0.00  0.00    -0.332 N 
HETATM    4  C   UNK N   1      30.091  17.513   8.614  0.00  0.00     0.174 A 
HETATM    5  C   UNK N   1      30.951  16.987   6.348  0.00  0.00     0.022 A 
HETATM    6  C   UNK N   1      32.261  17.168   6.748  0.00  0.00     0.042 A 
HETATM    7  C   UNK N   1      32.578  17.485   8.240  0.00  0.00     0.156 A 
HETATM    8  C   UNK N   1      28.493  17.019   6.763  0.00  0.00     0.158 C 
HETATM    9  C   UNK N   1      30.596  16.590   4.950  0.00  0.00     0.069 C 
HETATM   10  H   UNK N   1      31.542  17.908  10.014  0.00  0.00     0.163 HD
ENDROOT
BRANCH   6  11
HETATM   11  C   UNK N   1      33.472  17.053   5.812  0.00  0.00     0.192 C 
HETATM   12  O   UNK N   1      33.973  18.087   5.400  0.00  0.00    -0.287 OA
BRANCH  11  13
HETATM   13  C   UNK N   1      34.140  15.801   5.366  0.00  0.00     0.015 A 
HETATM   14  C   UNK N   1      33.822  15.169   4.155  0.00  0.00     0.015 A 
HETATM   15  C   UNK N   1      34.517  14.022   3.753  0.00  0.00     0.001 A 
HETATM   16  C   UNK N   1      35.542  13.509   4.552  0.00  0.00     0.000 A 
HETATM   17  C   UNK N   1      35.890  14.154   5.739  0.00  0.00     0.001 A 
HETATM   18  C   UNK N   1      35.207  15.306   6.132  0.00  0.00     0.015 A 
ENDBRANCH  11  13
ENDBRANCH   6  11
BRANCH   7  19
HETATM   19  C   UNK N   1      33.500  16.488   8.955  0.00  0.00    -0.028 A 
HETATM   20  C   UNK N   1      34.752  16.852   9.487  0.00  0.00     0.046 A 
HETATM   21  C   UNK N   1      35.498  15.950  10.250  0.00  0.00     0.066 A 
HETATM   22  C   UNK N   1      35.035  14.649  10.445  0.00  0.00     0.036 A 
HETATM   23  C   UNK N   1      33.815  14.256   9.891  0.00  0.00     0.003 A 
HETATM   24  C   UNK N   1      33.041  15.176   9.178  0.00  0.00     0.010 A 
BRANCH  21  25
HETATM   25  O   UNK N   1      36.646  16.346  10.826  0.00  0.00    -0.361 OA
HETATM   26  H   UNK N   1      36.743  17.116  11.350  0.00  0.00     0.217 HD
ENDBRANCH  21  25
ENDBRANCH   7  19
TORSDOF 4
ENDMDL
MODEL 2
REMARK VINA RESULT:      -6.9     10.766     13.347
REMARK  4 active torsions:
REMARK  status: ('A' for Active; 'I' for Inactive)
REMARK    1  A    between atoms: O_3  and  C_21 
REMARK    2  A    between atoms: C_8  and  C_12 
REMARK    3  A    between atoms: C_9  and  C_19 
REMARK    4  A    between atoms: C_12  and  C_13 
ROOT
HETATM    1  S   UNK N   1      20.555  17.270   3.947  0.00  0.00    -0.041 SA
HETATM    2  N   UNK N   1      20.685  17.113   6.386  0.00  0.00    -0.354 N 
HETATM    3  N   UNK N   1      20.470  15.049   5.099  0.00  0.00    -0.332 N 
HETATM    4  C   UNK N   1      20.563  16.468   5.149  0.00  0.00     0.174 A 
HETATM    5  C   UNK N   1      20.531  14.276   6.310  0.00  0.00     0.022 A 
HETATM    6  C   UNK N   1      20.693  14.873   7.547  0.00  0.00     0.042 A 
HETATM    7  C   UNK N   1      20.728  16.426   7.659  0.00  0.00     0.156 A 
HETATM    8  C   UNK N   1      20.364  14.363   3.824  0.00  0.00     0.158 C 
HETATM    9  C   UNK N   1      20.398  12.794   6.155  0.00  0.00     0.069 C 
HETATM   10  H   UNK N   1      20.746  18.096   6.390  0.00  0.00     0.163 HD
ENDROOT
BRANCH   6  11
HETATM   11  C   UNK N   1      20.821  14.099   8.866  0.00  0.00     0.192 C 
HETATM   12  O   UNK N   1      19.818  13.976   9.552  0.00  0.00    -0.287 OA
BRANCH  11  13
HETATM   13  C   UNK N   1      22.041  13.438   9.400  0.00  0.00     0.015 A 
HETATM   14  C   UNK N   1      23.300  13.584   8.799  0.00  0.00     0.015 A 
HETATM   15  C   UNK N   1      24.430  12.987   9.370  0.00  0.00     0.001 A 
HETATM   16  C   UNK N   1      24.310  12.252  10.553  0.00  0.00     0.000 A 
HETATM   17  C   UNK N   1      23.069  12.135  11.178  0.00  0.00     0.001 A 
HETATM   18  C   UNK N   1      21.945  12.743  10.616  0.00  0.00     0.015 A 
ENDBRANCH  11  13
ENDBRANCH   6  11
BRANCH   7  19
HETATM   19  C   UNK N   1      19.656  17.056   8.558  0.00  0.00    -0.028 A 
HETATM   20  C   UNK N   1      19.918  18.147   9.409  0.00  0.00     0.046 A 
HETATM   21  C   UNK N   1      18.885  18.780  10.106  0.00  0.00     0.066 A 
HETATM   22  C   UNK N   1      17.580  18.294  10.013  0.00  0.00     0.036 A 
HETATM   23  C   UNK N   1      17.307  17.188   9.207  0.00  0.00     0.003 A 
HETATM   24  C   UNK N   1      18.330  16.593   8.463  0.00  0.00     0.010 A 
BRANCH  21  25
HETATM   25  O   UNK N   1      19.142  19.876  10.840  0.00  0.00    -0.361 OA
HETATM   26  H   UNK N   1      19.284  20.732  10.489  0.00  0.00     0.217 HD
ENDBRANCH  21  25
ENDBRANCH   7  19
TORSDOF 4
ENDMDL
MODEL 3
REMARK VINA RESULT:      -6.8     13.872     16.386
REMARK  4 active torsions:
REMARK  status: ('A' for Active; 'I' for Inactive)
REMARK    1  A    between atoms: O_3  and  C_21 
REMARK    2  A    between atoms: C_8  and  C_12 
REMARK    3  A    between atoms: C_9  and  C_19 
REMARK    4  A    between atoms: C_12  and  C_13 
ROOT
HETATM    1  S   UNK N   1      30.655  28.861  -4.157  0.00  0.00    -0.041 SA
HETATM    2  N   UNK N   1      29.898  26.650  -4.884  0.00  0.00    -0.354 N 
HETATM    3  N   UNK N   1      28.290  28.127  -3.789  0.00  0.00    -0.332 N 
HETATM    4  C   UNK N   1      29.606  27.874  -4.269  0.00  0.00     0.174 A 
HETATM    5  C   UNK N   1      27.255  27.143  -3.960  0.00  0.00     0.022 A 
HETATM    6  C   UNK N   1      27.493  25.940  -4.599  0.00  0.00     0.042 A 
HETATM    7  C   UNK N   1      28.933  25.588  -5.077  0.00  0.00     0.156 A 
HETATM    8  C   UNK N   1      27.965  29.398  -3.169  0.00  0.00     0.158 C 
HETATM    9  C   UNK N   1      25.913  27.492  -3.399  0.00  0.00     0.069 C 
HETATM   10  H   UNK N   1      30.817  26.502  -5.204  0.00  0.00     0.163 HD
ENDROOT
BRANCH   6  11
HETATM   11  C   UNK N   1      26.417  24.876  -4.860  0.00  0.00     0.192 C 
HETATM   12  O   UNK N   1      25.824  24.420  -3.896  0.00  0.00    -0.287 OA
BRANCH  11  13
HETATM   13  C   UNK N   1      25.983  24.351  -6.181  0.00  0.00     0.015 A 
HETATM   14  C   UNK N   1      25.865  25.169  -7.315  0.00  0.00     0.015 A 
HETATM   15  C   UNK N   1      25.504  24.618  -8.550  0.00  0.00     0.001 A 
HETATM   16  C   UNK N   1      25.273  23.244  -8.662  0.00  0.00     0.000 A 
HETATM   17  C   UNK N   1      25.427  22.418  -7.549  0.00  0.00     0.001 A 
HETATM   18  C   UNK N   1      25.800  22.966  -6.320  0.00  0.00     0.015 A 
ENDBRANCH  11  13
ENDBRANCH   6  11
BRANCH   7  19
HETATM   19  C   UNK N   1      29.538  24.305  -4.492  0.00  0.00    -0.028 A 
HETATM   20  C   UNK N   1      29.910  24.185  -3.139  0.00  0.00     0.046 A 
HETATM   21  C   UNK N   1      30.327  22.958  -2.614  0.00  0.00     0.066 A 
HETATM   22  C   UNK N   1      30.440  21.845  -3.447  0.00  0.00     0.036 A 
HETATM   23  C   UNK N   1      30.116  21.954  -4.800  0.00  0.00     0.003 A 
HETATM   24  C   UNK N   1      29.641  23.166  -5.312  0.00  0.00     0.010 A 
BRANCH  21  25
HETATM   25  O   UNK N   1      30.588  22.843  -1.301  0.00  0.00    -0.361 OA
HETATM   26  H   UNK N   1      30.045  22.391  -0.687  0.00  0.00     0.217 HD
ENDBRANCH  21  25
ENDBRANCH   7  19
TORSDOF 4
ENDMDL
MODEL 4
REMARK VINA RESULT:      -6.8     14.411     17.159
REMARK  4 active torsions:
REMARK  status: ('A' for Active; 'I' for Inactive)
REMARK    1  A    between atoms: O_3  and  C_21 
REMARK    2  A    between atoms: C_8  and  C_12 
REMARK    3  A    between atoms: C_9  and  C_19 
REMARK    4  A    between atoms: C_12  and  C_13 
ROOT
HETATM    1  S   UNK N   1      30.244  21.986  -9.456  0.00  0.00    -0.041 SA
HETATM    2  N   UNK N   1      29.310  22.310  -7.217  0.00  0.00    -0.354 N 
HETATM    3  N   UNK N   1      28.135  23.293  -9.119  0.00  0.00    -0.332 N 
HETATM    4  C   UNK N   1      29.224  22.541  -8.596  0.00  0.00     0.174 A 
HETATM    5  C   UNK N   1      27.110  23.789  -8.242  0.00  0.00     0.022 A 
HETATM    6  C   UNK N   1      27.136  23.547  -6.881  0.00  0.00     0.042 A 
HETATM    7  C   UNK N   1      28.344  22.791  -6.253  0.00  0.00     0.156 A 
HETATM    8  C   UNK N   1      28.020  23.523 -10.548  0.00  0.00     0.158 C 
HETATM    9  C   UNK N   1      26.021  24.589  -8.884  0.00  0.00     0.069 C 
HETATM   10  H   UNK N   1      30.075  21.789  -6.883  0.00  0.00     0.163 HD
ENDROOT
BRANCH   6  11
HETATM   11  C   UNK N   1      26.043  24.002  -5.904  0.00  0.00     0.192 C 
HETATM   12  O   UNK N   1      25.171  23.200  -5.613  0.00  0.00    -0.287 OA
BRANCH  11  13
HETATM   13  C   UNK N   1      25.942  25.324  -5.231  0.00  0.00     0.015 A 
HETATM   14  C   UNK N   1      25.263  26.410  -5.803  0.00  0.00     0.015 A 
HETATM   15  C   UNK N   1      25.148  27.619  -5.106  0.00  0.00     0.001 A 
HETATM   16  C   UNK N   1      25.699  27.744  -3.828  0.00  0.00     0.000 A 
HETATM   17  C   UNK N   1      26.342  26.657  -3.236  0.00  0.00     0.001 A 
HETATM   18  C   UNK N   1      26.444  25.447  -3.926  0.00  0.00     0.015 A 
ENDBRANCH  11  13
ENDBRANCH   6  11
BRANCH   7  19
HETATM   19  C   UNK N   1      29.118  23.551  -5.167  0.00  0.00    -0.028 A 
HETATM   20  C   UNK N   1      29.365  23.015  -3.889  0.00  0.00     0.046 A 
HETATM   21  C   UNK N   1      30.191  23.679  -2.978  0.00  0.00     0.066 A 
HETATM   22  C   UNK N   1      30.734  24.922  -3.305  0.00  0.00     0.036 A 
HETATM   23  C   UNK N   1      30.466  25.490  -4.551  0.00  0.00     0.003 A 
HETATM   24  C   UNK N   1      29.690  24.797  -5.485  0.00  0.00     0.010 A 
BRANCH  21  25
HETATM   25  O   UNK N   1      30.489  23.106  -1.799  0.00  0.00    -0.361 OA
HETATM   26  H   UNK N   1      30.143  23.376  -0.972  0.00  0.00     0.217 HD
ENDBRANCH  21  25
ENDBRANCH   7  19
TORSDOF 4
ENDMDL
MODEL 5
REMARK VINA RESULT:      -6.7      3.642      6.144
REMARK  4 active torsions:
REMARK  status: ('A' for Active; 'I' for Inactive)
REMARK    1  A    between atoms: O_3  and  C_21 
REMARK    2  A    between atoms: C_8  and  C_12 
REMARK    3  A    between atoms: C_9  and  C_19 
REMARK    4  A    between atoms: C_12  and  C_13 
ROOT
HETATM    1  S   UNK N   1      26.611  14.077   3.488  0.00  0.00    -0.041 SA
HETATM    2  N   UNK N   1      27.762  16.223   3.731  0.00  0.00    -0.354 N 
HETATM    3  N   UNK N   1      28.946  14.189   4.382  0.00  0.00    -0.332 N 
HETATM    4  C   UNK N   1      27.780  14.830   3.877  0.00  0.00     0.174 A 
HETATM    5  C   UNK N   1      30.112  14.963   4.713  0.00  0.00     0.022 A 
HETATM    6  C   UNK N   1      30.148  16.334   4.544  0.00  0.00     0.042 A 
HETATM    7  C   UNK N   1      28.873  17.089   4.063  0.00  0.00     0.156 A 
HETATM    8  C   UNK N   1      28.990  12.745   4.519  0.00  0.00     0.158 C 
HETATM    9  C   UNK N   1      31.277  14.200   5.260  0.00  0.00     0.069 C 
HETATM   10  H   UNK N   1      26.941  16.640   3.382  0.00  0.00     0.163 HD
ENDROOT
BRANCH   6  11
HETATM   11  C   UNK N   1      31.380  17.205   4.828  0.00  0.00     0.192 C 
HETATM   12  O   UNK N   1      31.840  17.857   3.904  0.00  0.00    -0.287 OA
BRANCH  11  13
HETATM   13  C   UNK N   1      32.071  17.376   6.133  0.00  0.00     0.015 A 
HETATM   14  C   UNK N   1      31.391  17.322   7.358  0.00  0.00     0.015 A 
HETATM   15  C   UNK N   1      32.094  17.434   8.563  0.00  0.00     0.001 A 
HETATM   16  C   UNK N   1      33.483  17.587   8.550  0.00  0.00     0.000 A 
HETATM   17  C   UNK N   1      34.172  17.602   7.337  0.00  0.00     0.001 A 
HETATM   18  C   UNK N   1      33.472  17.476   6.136  0.00  0.00     0.015 A 
ENDBRANCH  11  13
ENDBRANCH   6  11
BRANCH   7  19
HETATM   19  C   UNK N   1      28.343  18.177   5.007  0.00  0.00    -0.028 A 
HETATM   20  C   UNK N   1      28.132  17.958   6.382  0.00  0.00     0.046 A 
HETATM   21  C   UNK N   1      27.781  19.010   7.232  0.00  0.00     0.066 A 
HETATM   22  C   UNK N   1      27.573  20.288   6.712  0.00  0.00     0.036 A 
HETATM   23  C   UNK N   1      27.737  20.517   5.345  0.00  0.00     0.003 A 
HETATM   24  C   UNK N   1      28.146  19.477   4.505  0.00  0.00     0.010 A 
BRANCH  21  25
HETATM   25  O   UNK N   1      27.676  18.799   8.555  0.00  0.00    -0.361 OA
HETATM   26  H   UNK N   1      27.344  18.015   8.945  0.00  0.00     0.217 HD
ENDBRANCH  21  25
ENDBRANCH   7  19
TORSDOF 4
ENDMDL
MODEL 6
REMARK VINA RESULT:      -6.6     14.446     17.290
REMARK  4 active torsions:
REMARK  status: ('A' for Active; 'I' for Inactive)
REMARK    1  A    between atoms: O_3  and  C_21 
REMARK    2  A    between atoms: C_8  and  C_12 
REMARK    3  A    between atoms: C_9  and  C_19 
REMARK    4  A    between atoms: C_12  and  C_13 
ROOT
HETATM    1  S   UNK N   1      30.914  22.485  -2.955  0.00  0.00    -0.041 SA
HETATM    2  N   UNK N   1      28.808  23.669  -3.346  0.00  0.00    -0.354 N 
HETATM    3  N   UNK N   1      29.705  22.270  -5.136  0.00  0.00    -0.332 N 
HETATM    4  C   UNK N   1      29.808  22.812  -3.824  0.00  0.00     0.174 A 
HETATM    5  C   UNK N   1      28.566  22.575  -5.958  0.00  0.00     0.022 A 
HETATM    6  C   UNK N   1      27.538  23.383  -5.508  0.00  0.00     0.042 A 
HETATM    7  C   UNK N   1      27.640  24.057  -4.107  0.00  0.00     0.156 A 
HETATM    8  C   UNK N   1      30.721  21.364  -5.639  0.00  0.00     0.158 C 
HETATM    9  C   UNK N   1      28.562  21.978  -7.330  0.00  0.00     0.069 C 
HETATM   10  H   UNK N   1      28.907  24.031  -2.436  0.00  0.00     0.163 HD
ENDROOT
BRANCH   6  11
HETATM   11  C   UNK N   1      26.272  23.699  -6.317  0.00  0.00     0.192 C 
HETATM   12  O   UNK N   1      25.218  23.216  -5.936  0.00  0.00    -0.287 OA
BRANCH  11  13
HETATM   13  C   UNK N   1      26.175  24.571  -7.518  0.00  0.00     0.015 A 
HETATM   14  C   UNK N   1      26.879  25.779  -7.630  0.00  0.00     0.015 A 
HETATM   15  C   UNK N   1      26.797  26.539  -8.802  0.00  0.00     0.001 A 
HETATM   16  C   UNK N   1      26.023  26.088  -9.875  0.00  0.00     0.000 A 
HETATM   17  C   UNK N   1      25.351  24.869  -9.787  0.00  0.00     0.001 A 
HETATM   18  C   UNK N   1      25.445  24.104  -8.622  0.00  0.00     0.015 A 
ENDBRANCH  11  13
ENDBRANCH   6  11
BRANCH   7  19
HETATM   19  C   UNK N   1      27.571  25.590  -4.095  0.00  0.00    -0.028 A 
HETATM   20  C   UNK N   1      26.423  26.299  -3.696  0.00  0.00     0.046 A 
HETATM   21  C   UNK N   1      26.446  27.691  -3.567  0.00  0.00     0.066 A 
HETATM   22  C   UNK N   1      27.600  28.404  -3.895  0.00  0.00     0.036 A 
HETATM   23  C   UNK N   1      28.736  27.722  -4.332  0.00  0.00     0.003 A 
HETATM   24  C   UNK N   1      28.731  26.325  -4.403  0.00  0.00     0.010 A 
BRANCH  21  25
HETATM   25  O   UNK N   1      25.368  28.340  -3.096  0.00  0.00    -0.361 OA
HETATM   26  H   UNK N   1      24.601  27.925  -2.756  0.00  0.00     0.217 HD
ENDBRANCH  21  25
ENDBRANCH   7  19
TORSDOF 4
ENDMDL
MODEL 7
REMARK VINA RESULT:      -6.4      5.804      9.532
REMARK  4 active torsions:
REMARK  status: ('A' for Active; 'I' for Inactive)
REMARK    1  A    between atoms: O_3  and  C_21 
REMARK    2  A    between atoms: C_8  and  C_12 
REMARK    3  A    between atoms: C_9  and  C_19 
REMARK    4  A    between atoms: C_12  and  C_13 
ROOT
HETATM    1  S   UNK N   1      38.615  10.115  10.303  0.00  0.00    -0.041 SA
HETATM    2  N   UNK N   1      37.580  12.081  11.331  0.00  0.00    -0.354 N 
HETATM    3  N   UNK N   1      37.101   9.884  12.283  0.00  0.00    -0.332 N 
HETATM    4  C   UNK N   1      37.754  10.691  11.310  0.00  0.00     0.174 A 
HETATM    5  C   UNK N   1      36.291  10.492  13.303  0.00  0.00     0.022 A 
HETATM    6  C   UNK N   1      36.129  11.862  13.383  0.00  0.00     0.042 A 
HETATM    7  C   UNK N   1      36.764  12.782  12.299  0.00  0.00     0.156 A 
HETATM    8  C   UNK N   1      37.287   8.444  12.289  0.00  0.00     0.158 C 
HETATM    9  C   UNK N   1      35.627   9.557  14.264  0.00  0.00     0.069 C 
HETATM   10  H   UNK N   1      38.042  12.614  10.644  0.00  0.00     0.163 HD
ENDROOT
BRANCH   6  11
HETATM   11  C   UNK N   1      35.322  12.572  14.480  0.00  0.00     0.192 C 
HETATM   12  O   UNK N   1      34.121  12.361  14.529  0.00  0.00    -0.287 OA
BRANCH  11  13
HETATM   13  C   UNK N   1      35.852  13.479  15.533  0.00  0.00     0.015 A 
HETATM   14  C   UNK N   1      36.845  14.435  15.273  0.00  0.00     0.015 A 
HETATM   15  C   UNK N   1      37.272  15.303  16.284  0.00  0.00     0.001 A 
HETATM   16  C   UNK N   1      36.700  15.230  17.557  0.00  0.00     0.000 A 
HETATM   17  C   UNK N   1      35.684  14.309  17.813  0.00  0.00     0.001 A 
HETATM   18  C   UNK N   1      35.248  13.453  16.800  0.00  0.00     0.015 A 
ENDBRANCH  11  13
ENDBRANCH   6  11
BRANCH   7  19
HETATM   19  C   UNK N   1      35.786  13.670  11.517  0.00  0.00    -0.028 A 
HETATM   20  C   UNK N   1      35.773  15.073  11.630  0.00  0.00     0.046 A 
HETATM   21  C   UNK N   1      34.963  15.854  10.800  0.00  0.00     0.066 A 
HETATM   22  C   UNK N   1      34.105  15.242   9.885  0.00  0.00     0.036 A 
HETATM   23  C   UNK N   1      34.073  13.850   9.788  0.00  0.00     0.003 A 
HETATM   24  C   UNK N   1      34.927  13.072  10.576  0.00  0.00     0.010 A 
BRANCH  21  25
HETATM   25  O   UNK N   1      35.034  17.195  10.860  0.00  0.00    -0.361 OA
HETATM   26  H   UNK N   1      34.668  17.718  11.545  0.00  0.00     0.217 HD
ENDBRANCH  21  25
ENDBRANCH   7  19
TORSDOF 4
ENDMDL
MODEL 8
REMARK VINA RESULT:      -6.2     14.742     16.927
REMARK  4 active torsions:
REMARK  status: ('A' for Active; 'I' for Inactive)
REMARK    1  A    between atoms: O_3  and  C_21 
REMARK    2  A    between atoms: C_8  and  C_12 
REMARK    3  A    between atoms: C_9  and  C_19 
REMARK    4  A    between atoms: C_12  and  C_13 
ROOT
HETATM    1  S   UNK N   1      33.525  28.856  -4.720  0.00  0.00    -0.041 SA
HETATM    2  N   UNK N   1      31.364  28.070  -3.883  0.00  0.00    -0.354 N 
HETATM    3  N   UNK N   1      32.922  26.428  -4.801  0.00  0.00    -0.332 N 
HETATM    4  C   UNK N   1      32.599  27.775  -4.474  0.00  0.00     0.174 A 
HETATM    5  C   UNK N   1      31.999  25.368  -4.498  0.00  0.00     0.022 A 
HETATM    6  C   UNK N   1      30.788  25.613  -3.877  0.00  0.00     0.042 A 
HETATM    7  C   UNK N   1      30.359  27.078  -3.566  0.00  0.00     0.156 A 
HETATM    8  C   UNK N   1      34.206  26.103  -5.394  0.00  0.00     0.158 C 
HETATM    9  C   UNK N   1      32.419  23.991  -4.902  0.00  0.00     0.069 C 
HETATM   10  H   UNK N   1      31.167  29.010  -3.670  0.00  0.00     0.163 HD
ENDROOT
BRANCH   6  11
HETATM   11  C   UNK N   1      29.787  24.519  -3.479  0.00  0.00     0.192 C 
HETATM   12  O   UNK N   1      30.047  23.841  -2.497  0.00  0.00    -0.287 OA
BRANCH  11  13
HETATM   13  C   UNK N   1      28.496  24.205  -4.145  0.00  0.00     0.015 A 
HETATM   14  C   UNK N   1      27.255  24.495  -3.556  0.00  0.00     0.015 A 
HETATM   15  C   UNK N   1      26.067  24.231  -4.246  0.00  0.00     0.001 A 
HETATM   16  C   UNK N   1      26.111  23.689  -5.533  0.00  0.00     0.000 A 
HETATM   17  C   UNK N   1      27.340  23.434  -6.142  0.00  0.00     0.001 A 
HETATM   18  C   UNK N   1      28.526  23.711  -5.459  0.00  0.00     0.015 A 
ENDBRANCH  11  13
ENDBRANCH   6  11
BRANCH   7  19
HETATM   19  C   UNK N   1      29.041  27.539  -4.202  0.00  0.00    -0.028 A 
HETATM   20  C   UNK N   1      27.994  28.114  -3.457  0.00  0.00     0.046 A 
HETATM   21  C   UNK N   1      26.868  28.647  -4.091  0.00  0.00     0.066 A 
HETATM   22  C   UNK N   1      26.740  28.558  -5.478  0.00  0.00     0.036 A 
HETATM   23  C   UNK N   1      27.748  27.954  -6.231  0.00  0.00     0.003 A 
HETATM   24  C   UNK N   1      28.902  27.475  -5.601  0.00  0.00     0.010 A 
BRANCH  21  25
HETATM   25  O   UNK N   1      25.924  29.275  -3.370  0.00  0.00    -0.361 OA
HETATM   26  H   UNK N   1      25.364  29.950  -3.696  0.00  0.00     0.217 HD
ENDBRANCH  21  25
ENDBRANCH   7  19
TORSDOF 4
ENDMDL
MODEL 9
REMARK VINA RESULT:      -6.2     15.206     17.892
REMARK  4 active torsions:
REMARK  status: ('A' for Active; 'I' for Inactive)
REMARK    1  A    between atoms: O_3  and  C_21 
REMARK    2  A    between atoms: C_8  and  C_12 
REMARK    3  A    between atoms: C_9  and  C_19 
REMARK    4  A    between atoms: C_12  and  C_13 
ROOT
HETATM    1  S   UNK N   1      25.189  25.823 -10.073  0.00  0.00    -0.041 SA
HETATM    2  N   UNK N   1      26.785  26.753  -8.468  0.00  0.00    -0.354 N 
HETATM    3  N   UNK N   1      26.356  24.349  -8.420  0.00  0.00    -0.332 N 
HETATM    4  C   UNK N   1      26.110  25.636  -8.976  0.00  0.00     0.174 A 
HETATM    5  C   UNK N   1      27.316  24.189  -7.362  0.00  0.00     0.022 A 
HETATM    6  C   UNK N   1      28.034  25.260  -6.862  0.00  0.00     0.042 A 
HETATM    7  C   UNK N   1      27.747  26.697  -7.388  0.00  0.00     0.156 A 
HETATM    8  C   UNK N   1      25.681  23.178  -8.949  0.00  0.00     0.158 C 
HETATM    9  C   UNK N   1      27.485  22.802  -6.827  0.00  0.00     0.069 C 
HETATM   10  H   UNK N   1      26.594  27.630  -8.870  0.00  0.00     0.163 HD
ENDROOT
BRANCH   6  11
HETATM   11  C   UNK N   1      29.109  25.142  -5.772  0.00  0.00     0.192 C 
HETATM   12  O   UNK N   1      30.193  25.661  -5.987  0.00  0.00    -0.287 OA
BRANCH  11  13
HETATM   13  C   UNK N   1      28.969  24.486  -4.446  0.00  0.00     0.015 A 
HETATM   14  C   UNK N   1      27.751  24.444  -3.751  0.00  0.00     0.015 A 
HETATM   15  C   UNK N   1      27.656  23.767  -2.530  0.00  0.00     0.001 A 
HETATM   16  C   UNK N   1      28.774  23.116  -2.003  0.00  0.00     0.000 A 
HETATM   17  C   UNK N   1      29.979  23.119  -2.706  0.00  0.00     0.001 A 
HETATM   18  C   UNK N   1      30.069  23.782  -3.931  0.00  0.00     0.015 A 
ENDBRANCH  11  13
ENDBRANCH   6  11
BRANCH   7  19
HETATM   19  C   UNK N   1      27.312  27.723  -6.332  0.00  0.00    -0.028 A 
HETATM   20  C   UNK N   1      26.360  27.435  -5.336  0.00  0.00     0.046 A 
HETATM   21  C   UNK N   1      26.093  28.347  -4.311  0.00  0.00     0.066 A 
HETATM   22  C   UNK N   1      26.729  29.589  -4.298  0.00  0.00     0.036 A 
HETATM   23  C   UNK N   1      27.645  29.910  -5.301  0.00  0.00     0.003 A 
HETATM   24  C   UNK N   1      27.956  28.973  -6.292  0.00  0.00     0.010 A 
BRANCH  21  25
HETATM   25  O   UNK N   1      25.250  28.015  -3.318  0.00  0.00    -0.361 OA
HETATM   26  H   UNK N   1      24.882  28.621  -2.706  0.00  0.00     0.217 HD
ENDBRANCH  21  25
ENDBRANCH   7  19
TORSDOF 4
ENDMDL
