REMARK  4 active torsions:
REMARK  status: ('A' for Active; 'I' for Inactive)
REMARK    1  A    between atoms: O_3  and  C_21 
REMARK    2  A    between atoms: C_8  and  C_12 
REMARK    3  A    between atoms: C_9  and  C_19 
REMARK    4  A    between atoms: C_12  and  C_13 
ROOT
HETATM    1  S   UNK N   1       3.672  -2.294  -0.666  0.00  0.00    -0.041 SA
HETATM    2  N   UNK N   1       2.364  -0.452   0.276  0.00  0.00    -0.354 N 
HETATM    3  N   UNK N   1       1.176  -2.261  -0.856  0.00  0.00    -0.332 N 
HETATM    4  C   UNK N   1       2.394  -1.666  -0.422  0.00  0.00     0.174 A 
HETATM    5  C   UNK N   1      -0.083  -1.636  -0.554  0.00  0.00     0.022 A 
HETATM    6  C   UNK N   1      -0.157  -0.460   0.169  0.00  0.00     0.042 A 
HETATM    7  C   UNK N   1       1.151   0.266   0.603  0.00  0.00     0.156 A 
HETATM    8  C   UNK N   1       1.188  -3.529  -1.562  0.00  0.00     0.158 C 
HETATM    9  C   UNK N   1      -1.304  -2.325  -1.075  0.00  0.00     0.069 C 
HETATM   10  H   UNK N   1       3.222  -0.063   0.562  0.00  0.00     0.163 HD
ENDROOT
BRANCH   6  11
HETATM   11  C   UNK N   1      -1.472   0.224   0.569  0.00  0.00     0.192 C 
HETATM   12  O   UNK N   1      -1.401   1.275   1.186  0.00  0.00    -0.287 OA
BRANCH  11  13
HETATM   13  C   UNK N   1      -2.850  -0.238   0.256  0.00  0.00     0.015 A 
HETATM   14  C   UNK N   1      -3.311  -1.518   0.598  0.00  0.00     0.015 A 
HETATM   15  C   UNK N   1      -4.634  -1.888   0.331  0.00  0.00     0.001 A 
HETATM   16  C   UNK N   1      -5.508  -0.976  -0.267  0.00  0.00     0.000 A 
HETATM   17  C   UNK N   1      -5.069   0.312  -0.575  0.00  0.00     0.001 A 
HETATM   18  C   UNK N   1      -3.753   0.685  -0.295  0.00  0.00     0.015 A 
ENDBRANCH  11  13
ENDBRANCH   6  11
BRANCH   7  19
HETATM   19  C   UNK N   1       1.318   1.705   0.096  0.00  0.00    -0.028 A 
HETATM   20  C   UNK N   1       0.275   2.423  -0.519  0.00  0.00     0.046 A 
HETATM   21  C   UNK N   1       0.425   3.775  -0.841  0.00  0.00     0.066 A 
HETATM   22  C   UNK N   1       1.642   4.417  -0.610  0.00  0.00     0.036 A 
HETATM   23  C   UNK N   1       2.702   3.711  -0.039  0.00  0.00     0.003 A 
HETATM   24  C   UNK N   1       2.532   2.375   0.338  0.00  0.00     0.010 A 
BRANCH  21  25
HETATM   25  O   UNK N   1      -0.613   4.466  -1.342  0.00  0.00    -0.361 OA
HETATM   26  H   UNK N   1      -0.558   5.333  -1.691  0.00  0.00     0.217 HD
ENDBRANCH  21  25
ENDBRANCH   7  19
TORSDOF 4
