MODEL 1
REMARK VINA RESULT:      -5.8      0.000      0.000
REMARK  10 active torsions:
REMARK  status: ('A' for Active; 'I' for Inactive)
REMARK       I    between atoms: C_2  and  N_3 
REMARK    1  A    between atoms: C_2  and  O_14 
REMARK    2  A    between atoms: C_4  and  N_3 
REMARK    3  A    between atoms: C_4  and  C_5 
REMARK    4  A    between atoms: C_4  and  C_7 
REMARK    5  A    between atoms: C_5  and  S_6 
REMARK       I    between atoms: C_7  and  N_9 
REMARK    6  A    between atoms: N_9  and  C_10 
REMARK    7  A    between atoms: C_10  and  C_11 
REMARK    8  A    between atoms: C_11  and  O_12 
REMARK    9  A    between atoms: O_14  and  C_15 
REMARK   10  A    between atoms: C_15  and  C_16 
ROOT
HETATM    1  C   UNK N   1      33.002  16.741   7.818  0.00  0.00     0.188 C 
ENDROOT
BRANCH   1   2
HETATM    2  N   UNK N   1      32.240  17.639   8.664  0.00  0.00    -0.323 N 
HETATM    3  C   UNK N   1      30.939  17.961   8.484  0.00  0.00     0.361 C 
HETATM    4  O   UNK N   1      30.377  18.623   9.347  0.00  0.00    -0.238 OA
HETATM    5  H   UNK N   1      32.706  18.046   9.430  0.00  0.00     0.165 HD
BRANCH   3   6
HETATM    6  O   UNK N   1      30.278  17.600   7.349  0.00  0.00    -0.299 OA
BRANCH   6   7
HETATM    7  C   UNK N   1      28.896  17.519   7.233  0.00  0.00     0.219 C 
BRANCH   7   8
HETATM    8  C   UNK N   1      28.307  18.664   6.463  0.00  0.00    -0.034 A 
HETATM    9  C   UNK N   1      28.255  18.590   5.066  0.00  0.00     0.009 A 
HETATM   10  C   UNK N   1      27.654  19.615   4.330  0.00  0.00     0.001 A 
HETATM   11  C   UNK N   1      27.098  20.714   4.989  0.00  0.00     0.000 A 
HETATM   12  C   UNK N   1      27.152  20.794   6.385  0.00  0.00     0.001 A 
HETATM   13  C   UNK N   1      27.754  19.769   7.124  0.00  0.00     0.009 A 
ENDBRANCH   7   8
ENDBRANCH   6   7
ENDBRANCH   3   6
ENDBRANCH   1   2
BRANCH   1  14
HETATM   14  C   UNK N   1      33.939  15.954   8.731  0.00  0.00     0.105 C 
BRANCH  14  15
HETATM   15  S   UNK N   1      34.879  14.699   7.810  0.00  0.00    -0.180 SA
HETATM   16  H   UNK N   1      36.040  14.985   7.163  0.00  0.00     0.101 HD
ENDBRANCH  14  15
ENDBRANCH   1  14
BRANCH   1  17
HETATM   17  C   UNK N   1      33.805  17.526   6.792  0.00  0.00     0.241 C 
HETATM   18  O   UNK N   1      34.653  18.319   7.172  0.00  0.00    -0.271 OA
HETATM   19  N   UNK N   1      33.605  17.377   5.456  0.00  0.00    -0.349 N 
HETATM   20  H   UNK N   1      34.129  17.939   4.840  0.00  0.00     0.163 HD
BRANCH  19  21
HETATM   21  C   UNK N   1      32.666  16.438   4.892  0.00  0.00     0.232 C 
BRANCH  21  22
HETATM   22  C   UNK N   1      32.486  16.734   3.436  0.00  0.00     0.158 C 
HETATM   23  O   UNK N   1      33.329  16.374   2.632  0.00  0.00    -0.649 OA
BRANCH  22  24
HETATM   24  O   UNK N   1      31.404  17.413   3.012  0.00  0.00    -0.775 OA
HETATM   25  H   UNK N   1      31.451  18.116   2.395  0.00  0.00     0.167 HD
ENDBRANCH  22  24
ENDBRANCH  21  22
ENDBRANCH  19  21
ENDBRANCH   1  17
TORSDOF 10
ENDMDL
MODEL 2
REMARK VINA RESULT:      -5.7      3.729      5.247
REMARK  10 active torsions:
REMARK  status: ('A' for Active; 'I' for Inactive)
REMARK       I    between atoms: C_2  and  N_3 
REMARK    1  A    between atoms: C_2  and  O_14 
REMARK    2  A    between atoms: C_4  and  N_3 
REMARK    3  A    between atoms: C_4  and  C_5 
REMARK    4  A    between atoms: C_4  and  C_7 
REMARK    5  A    between atoms: C_5  and  S_6 
REMARK       I    between atoms: C_7  and  N_9 
REMARK    6  A    between atoms: N_9  and  C_10 
REMARK    7  A    between atoms: C_10  and  C_11 
REMARK    8  A    between atoms: C_11  and  O_12 
REMARK    9  A    between atoms: O_14  and  C_15 
REMARK   10  A    between atoms: C_15  and  C_16 
ROOT
HETATM    1  C   UNK N   1      35.484  14.875   9.396  0.00  0.00     0.188 C 
ENDROOT
BRANCH   1   2
HETATM    2  N   UNK N   1      34.305  14.039   9.518  0.00  0.00    -0.323 N 
HETATM    3  C   UNK N   1      33.511  13.659   8.491  0.00  0.00     0.361 C 
HETATM    4  O   UNK N   1      32.625  12.842   8.710  0.00  0.00    -0.238 OA
HETATM    5  H   UNK N   1      34.062  13.724  10.418  0.00  0.00     0.165 HD
BRANCH   3   6
HETATM    6  O   UNK N   1      33.659  14.203   7.251  0.00  0.00    -0.299 OA
BRANCH   6   7
HETATM    7  C   UNK N   1      32.813  13.961   6.176  0.00  0.00     0.219 C 
BRANCH   7   8
HETATM    8  C   UNK N   1      32.571  15.181   5.337  0.00  0.00    -0.034 A 
HETATM    9  C   UNK N   1      31.712  16.178   5.816  0.00  0.00     0.009 A 
HETATM   10  C   UNK N   1      31.519  17.351   5.083  0.00  0.00     0.001 A 
HETATM   11  C   UNK N   1      32.189  17.535   3.871  0.00  0.00     0.000 A 
HETATM   12  C   UNK N   1      33.045  16.540   3.387  0.00  0.00     0.001 A 
HETATM   13  C   UNK N   1      33.239  15.363   4.119  0.00  0.00     0.009 A 
ENDBRANCH   7   8
ENDBRANCH   6   7
ENDBRANCH   3   6
ENDBRANCH   1   2
BRANCH   1  14
HETATM   14  C   UNK N   1      36.691  13.990   9.696  0.00  0.00     0.105 C 
BRANCH  14  15
HETATM   15  S   UNK N   1      37.340  13.204   8.190  0.00  0.00    -0.180 SA
HETATM   16  H   UNK N   1      38.285  12.227   8.224  0.00  0.00     0.101 HD
ENDBRANCH  14  15
ENDBRANCH   1  14
BRANCH   1  17
HETATM   17  C   UNK N   1      35.423  16.032  10.380  0.00  0.00     0.241 C 
HETATM   18  O   UNK N   1      36.079  15.981  11.409  0.00  0.00    -0.271 OA
HETATM   19  N   UNK N   1      34.651  17.129  10.153  0.00  0.00    -0.349 N 
HETATM   20  H   UNK N   1      34.624  17.831  10.843  0.00  0.00     0.163 HD
BRANCH  19  21
HETATM   21  C   UNK N   1      33.872  17.319   8.953  0.00  0.00     0.232 C 
BRANCH  21  22
HETATM   22  C   UNK N   1      34.589  18.268   8.046  0.00  0.00     0.158 C 
HETATM   23  O   UNK N   1      35.248  19.181   8.515  0.00  0.00    -0.649 OA
BRANCH  22  24
HETATM   24  O   UNK N   1      34.496  18.129   6.710  0.00  0.00    -0.775 OA
HETATM   25  H   UNK N   1      35.147  17.695   6.195  0.00  0.00     0.167 HD
ENDBRANCH  22  24
ENDBRANCH  21  22
ENDBRANCH  19  21
ENDBRANCH   1  17
TORSDOF 10
ENDMDL
MODEL 3
REMARK VINA RESULT:      -5.7      7.974     11.517
REMARK  10 active torsions:
REMARK  status: ('A' for Active; 'I' for Inactive)
REMARK       I    between atoms: C_2  and  N_3 
REMARK    1  A    between atoms: C_2  and  O_14 
REMARK    2  A    between atoms: C_4  and  N_3 
REMARK    3  A    between atoms: C_4  and  C_5 
REMARK    4  A    between atoms: C_4  and  C_7 
REMARK    5  A    between atoms: C_5  and  S_6 
REMARK       I    between atoms: C_7  and  N_9 
REMARK    6  A    between atoms: N_9  and  C_10 
REMARK    7  A    between atoms: C_10  and  C_11 
REMARK    8  A    between atoms: C_11  and  O_12 
REMARK    9  A    between atoms: O_14  and  C_15 
REMARK   10  A    between atoms: C_15  and  C_16 
ROOT
HETATM    1  C   UNK N   1      36.718  13.046  12.551  0.00  0.00     0.188 C 
ENDROOT
BRANCH   1   2
HETATM    2  N   UNK N   1      37.104  13.863  13.685  0.00  0.00    -0.323 N 
HETATM    3  C   UNK N   1      36.516  13.833  14.903  0.00  0.00     0.361 C 
HETATM    4  O   UNK N   1      37.025  14.475  15.813  0.00  0.00    -0.238 OA
HETATM    5  H   UNK N   1      37.853  14.489  13.560  0.00  0.00     0.165 HD
BRANCH   3   6
HETATM    6  O   UNK N   1      35.359  13.143  15.105  0.00  0.00    -0.299 OA
BRANCH   6   7
HETATM    7  C   UNK N   1      34.581  13.227  16.252  0.00  0.00     0.219 C 
BRANCH   7   8
HETATM    8  C   UNK N   1      35.122  12.407  17.387  0.00  0.00    -0.034 A 
HETATM    9  C   UNK N   1      35.123  12.947  18.678  0.00  0.00     0.009 A 
HETATM   10  C   UNK N   1      35.562  12.180  19.760  0.00  0.00     0.001 A 
HETATM   11  C   UNK N   1      35.996  10.868  19.555  0.00  0.00     0.000 A 
HETATM   12  C   UNK N   1      36.000  10.325  18.266  0.00  0.00     0.001 A 
HETATM   13  C   UNK N   1      35.561  11.092  17.180  0.00  0.00     0.009 A 
ENDBRANCH   7   8
ENDBRANCH   6   7
ENDBRANCH   3   6
ENDBRANCH   1   2
BRANCH   1  14
HETATM   14  C   UNK N   1      37.361  11.676  12.749  0.00  0.00     0.105 C 
BRANCH  14  15
HETATM   15  S   UNK N   1      36.117  10.390  13.075  0.00  0.00    -0.180 SA
HETATM   16  H   UNK N   1      35.936   9.844  14.307  0.00  0.00     0.101 HD
ENDBRANCH  14  15
ENDBRANCH   1  14
BRANCH   1  17
HETATM   17  C   UNK N   1      37.201  13.671  11.252  0.00  0.00     0.241 C 
HETATM   18  O   UNK N   1      38.103  13.135  10.627  0.00  0.00    -0.271 OA
HETATM   19  N   UNK N   1      36.663  14.820  10.763  0.00  0.00    -0.349 N 
HETATM   20  H   UNK N   1      37.041  15.197   9.936  0.00  0.00     0.163 HD
BRANCH  19  21
HETATM   21  C   UNK N   1      35.564  15.514  11.391  0.00  0.00     0.232 C 
BRANCH  21  22
HETATM   22  C   UNK N   1      35.062  16.578  10.468  0.00  0.00     0.158 C 
HETATM   23  O   UNK N   1      35.730  17.579  10.270  0.00  0.00    -0.649 OA
BRANCH  22  24
HETATM   24  O   UNK N   1      33.865  16.444   9.867  0.00  0.00    -0.775 OA
HETATM   25  H   UNK N   1      33.321  15.689   9.974  0.00  0.00     0.167 HD
ENDBRANCH  22  24
ENDBRANCH  21  22
ENDBRANCH  19  21
ENDBRANCH   1  17
TORSDOF 10
ENDMDL
MODEL 4
REMARK VINA RESULT:      -5.7      7.073     10.528
REMARK  10 active torsions:
REMARK  status: ('A' for Active; 'I' for Inactive)
REMARK       I    between atoms: C_2  and  N_3 
REMARK    1  A    between atoms: C_2  and  O_14 
REMARK    2  A    between atoms: C_4  and  N_3 
REMARK    3  A    between atoms: C_4  and  C_5 
REMARK    4  A    between atoms: C_4  and  C_7 
REMARK    5  A    between atoms: C_5  and  S_6 
REMARK       I    between atoms: C_7  and  N_9 
REMARK    6  A    between atoms: N_9  and  C_10 
REMARK    7  A    between atoms: C_10  and  C_11 
REMARK    8  A    between atoms: C_11  and  O_12 
REMARK    9  A    between atoms: O_14  and  C_15 
REMARK   10  A    between atoms: C_15  and  C_16 
ROOT
HETATM    1  C   UNK N   1      35.827  14.421  11.836  0.00  0.00     0.188 C 
ENDROOT
BRANCH   1   2
HETATM    2  N   UNK N   1      36.616  14.785  12.996  0.00  0.00    -0.323 N 
HETATM    3  C   UNK N   1      36.384  14.361  14.260  0.00  0.00     0.361 C 
HETATM    4  O   UNK N   1      37.205  14.633  15.127  0.00  0.00    -0.238 OA
HETATM    5  H   UNK N   1      37.381  15.387  12.855  0.00  0.00     0.165 HD
BRANCH   3   6
HETATM    6  O   UNK N   1      35.242  13.688  14.574  0.00  0.00    -0.299 OA
BRANCH   6   7
HETATM    7  C   UNK N   1      35.200  12.374  15.023  0.00  0.00     0.219 C 
BRANCH   7   8
HETATM    8  C   UNK N   1      35.213  12.266  16.519  0.00  0.00    -0.034 A 
HETATM    9  C   UNK N   1      35.494  11.030  17.111  0.00  0.00     0.009 A 
HETATM   10  C   UNK N   1      35.575  10.918  18.502  0.00  0.00     0.001 A 
HETATM   11  C   UNK N   1      35.381  12.045  19.305  0.00  0.00     0.000 A 
HETATM   12  C   UNK N   1      35.097  13.282  18.717  0.00  0.00     0.001 A 
HETATM   13  C   UNK N   1      35.014  13.396  17.325  0.00  0.00     0.009 A 
ENDBRANCH   7   8
ENDBRANCH   6   7
ENDBRANCH   3   6
ENDBRANCH   1   2
BRANCH   1  14
HETATM   14  C   UNK N   1      36.617  13.360  11.074  0.00  0.00     0.105 C 
BRANCH  14  15
HETATM   15  S   UNK N   1      35.931  11.695  11.334  0.00  0.00    -0.180 SA
HETATM   16  H   UNK N   1      34.597  11.465  11.460  0.00  0.00     0.101 HD
ENDBRANCH  14  15
ENDBRANCH   1  14
BRANCH   1  17
HETATM   17  C   UNK N   1      35.586  15.633  10.951  0.00  0.00     0.241 C 
HETATM   18  O   UNK N   1      36.452  16.490  10.857  0.00  0.00    -0.271 OA
HETATM   19  N   UNK N   1      34.428  15.800  10.259  0.00  0.00    -0.349 N 
HETATM   20  H   UNK N   1      34.314  16.624   9.731  0.00  0.00     0.163 HD
BRANCH  19  21
HETATM   21  C   UNK N   1      33.356  14.834  10.257  0.00  0.00     0.232 C 
BRANCH  21  22
HETATM   22  C   UNK N   1      33.084  14.403   8.851  0.00  0.00     0.158 C 
HETATM   23  O   UNK N   1      32.223  13.569   8.624  0.00  0.00    -0.649 OA
BRANCH  22  24
HETATM   24  O   UNK N   1      33.798  14.919   7.833  0.00  0.00    -0.775 OA
HETATM   25  H   UNK N   1      33.404  15.319   7.083  0.00  0.00     0.167 HD
ENDBRANCH  22  24
ENDBRANCH  21  22
ENDBRANCH  19  21
ENDBRANCH   1  17
TORSDOF 10
ENDMDL
MODEL 5
REMARK VINA RESULT:      -5.6      7.584     11.099
REMARK  10 active torsions:
REMARK  status: ('A' for Active; 'I' for Inactive)
REMARK       I    between atoms: C_2  and  N_3 
REMARK    1  A    between atoms: C_2  and  O_14 
REMARK    2  A    between atoms: C_4  and  N_3 
REMARK    3  A    between atoms: C_4  and  C_5 
REMARK    4  A    between atoms: C_4  and  C_7 
REMARK    5  A    between atoms: C_5  and  S_6 
REMARK       I    between atoms: C_7  and  N_9 
REMARK    6  A    between atoms: N_9  and  C_10 
REMARK    7  A    between atoms: C_10  and  C_11 
REMARK    8  A    between atoms: C_11  and  O_12 
REMARK    9  A    between atoms: O_14  and  C_15 
REMARK   10  A    between atoms: C_15  and  C_16 
ROOT
HETATM    1  C   UNK N   1      34.923  12.805  11.815  0.00  0.00     0.188 C 
ENDROOT
BRANCH   1   2
HETATM    2  N   UNK N   1      34.725  11.540  12.495  0.00  0.00    -0.323 N 
HETATM    3  C   UNK N   1      34.309  11.400  13.774  0.00  0.00     0.361 C 
HETATM    4  O   UNK N   1      34.052  10.275  14.184  0.00  0.00    -0.238 OA
HETATM    5  H   UNK N   1      34.907  10.717  11.985  0.00  0.00     0.165 HD
BRANCH   3   6
HETATM    6  O   UNK N   1      34.222  12.477  14.604  0.00  0.00    -0.299 OA
BRANCH   6   7
HETATM    7  C   UNK N   1      35.286  13.010  15.320  0.00  0.00     0.219 C 
BRANCH   7   8
HETATM    8  C   UNK N   1      35.241  12.664  16.779  0.00  0.00    -0.034 A 
HETATM    9  C   UNK N   1      35.369  11.325  17.166  0.00  0.00     0.009 A 
HETATM   10  C   UNK N   1      35.395  10.984  18.521  0.00  0.00     0.001 A 
HETATM   11  C   UNK N   1      35.296  11.983  19.493  0.00  0.00     0.000 A 
HETATM   12  C   UNK N   1      35.164  13.322  19.110  0.00  0.00     0.001 A 
HETATM   13  C   UNK N   1      35.138  13.665  17.754  0.00  0.00     0.009 A 
ENDBRANCH   7   8
ENDBRANCH   6   7
ENDBRANCH   3   6
ENDBRANCH   1   2
BRANCH   1  14
HETATM   14  C   UNK N   1      34.577  12.582  10.345  0.00  0.00     0.105 C 
BRANCH  14  15
HETATM   15  S   UNK N   1      34.910  10.870   9.829  0.00  0.00    -0.180 SA
HETATM   16  H   UNK N   1      34.099   9.833  10.167  0.00  0.00     0.101 HD
ENDBRANCH  14  15
ENDBRANCH   1  14
BRANCH   1  17
HETATM   17  C   UNK N   1      36.366  13.265  11.951  0.00  0.00     0.241 C 
HETATM   18  O   UNK N   1      37.259  12.433  12.002  0.00  0.00    -0.271 OA
HETATM   19  N   UNK N   1      36.697  14.581  12.025  0.00  0.00    -0.349 N 
HETATM   20  H   UNK N   1      37.645  14.818  12.149  0.00  0.00     0.163 HD
BRANCH  19  21
HETATM   21  C   UNK N   1      35.733  15.651  11.928  0.00  0.00     0.232 C 
BRANCH  21  22
HETATM   22  C   UNK N   1      35.822  16.273  10.570  0.00  0.00     0.158 C 
HETATM   23  O   UNK N   1      35.543  17.451  10.420  0.00  0.00    -0.649 OA
BRANCH  22  24
HETATM   24  O   UNK N   1      36.192  15.533   9.509  0.00  0.00    -0.775 OA
HETATM   25  H   UNK N   1      35.741  14.755   9.246  0.00  0.00     0.167 HD
ENDBRANCH  22  24
ENDBRANCH  21  22
ENDBRANCH  19  21
ENDBRANCH   1  17
TORSDOF 10
ENDMDL
MODEL 6
REMARK VINA RESULT:      -5.5      7.623     11.194
REMARK  10 active torsions:
REMARK  status: ('A' for Active; 'I' for Inactive)
REMARK       I    between atoms: C_2  and  N_3 
REMARK    1  A    between atoms: C_2  and  O_14 
REMARK    2  A    between atoms: C_4  and  N_3 
REMARK    3  A    between atoms: C_4  and  C_5 
REMARK    4  A    between atoms: C_4  and  C_7 
REMARK    5  A    between atoms: C_5  and  S_6 
REMARK       I    between atoms: C_7  and  N_9 
REMARK    6  A    between atoms: N_9  and  C_10 
REMARK    7  A    between atoms: C_10  and  C_11 
REMARK    8  A    between atoms: C_11  and  O_12 
REMARK    9  A    between atoms: O_14  and  C_15 
REMARK   10  A    between atoms: C_15  and  C_16 
ROOT
HETATM    1  C   UNK N   1      36.591  12.561  11.643  0.00  0.00     0.188 C 
ENDROOT
BRANCH   1   2
HETATM    2  N   UNK N   1      37.380  11.827  12.614  0.00  0.00    -0.323 N 
HETATM    3  C   UNK N   1      37.233  11.906  13.956  0.00  0.00     0.361 C 
HETATM    4  O   UNK N   1      37.870  11.133  14.660  0.00  0.00    -0.238 OA
HETATM    5  H   UNK N   1      38.077  11.223  12.270  0.00  0.00     0.165 HD
BRANCH   3   6
HETATM    6  O   UNK N   1      36.431  12.853  14.519  0.00  0.00    -0.299 OA
BRANCH   6   7
HETATM    7  C   UNK N   1      35.200  12.596  15.109  0.00  0.00     0.219 C 
BRANCH   7   8
HETATM    8  C   UNK N   1      35.283  12.467  16.601  0.00  0.00    -0.034 A 
HETATM    9  C   UNK N   1      35.178  13.617  17.391  0.00  0.00     0.009 A 
HETATM   10  C   UNK N   1      35.189  13.517  18.785  0.00  0.00     0.001 A 
HETATM   11  C   UNK N   1      35.299  12.263  19.393  0.00  0.00     0.000 A 
HETATM   12  C   UNK N   1      35.408  11.112  18.607  0.00  0.00     0.001 A 
HETATM   13  C   UNK N   1      35.398  11.211  17.211  0.00  0.00     0.009 A 
ENDBRANCH   7   8
ENDBRANCH   6   7
ENDBRANCH   3   6
ENDBRANCH   1   2
BRANCH   1  14
HETATM   14  C   UNK N   1      36.035  11.538  10.655  0.00  0.00     0.105 C 
BRANCH  14  15
HETATM   15  S   UNK N   1      34.533  12.147   9.831  0.00  0.00    -0.180 SA
HETATM   16  H   UNK N   1      34.539  13.228   9.007  0.00  0.00     0.101 HD
ENDBRANCH  14  15
ENDBRANCH   1  14
BRANCH   1  17
HETATM   17  C   UNK N   1      37.452  13.580  10.916  0.00  0.00     0.241 C 
HETATM   18  O   UNK N   1      38.470  13.213  10.350  0.00  0.00    -0.271 OA
HETATM   19  N   UNK N   1      37.127  14.900  10.879  0.00  0.00    -0.349 N 
HETATM   20  H   UNK N   1      37.742  15.520  10.423  0.00  0.00     0.163 HD
BRANCH  19  21
HETATM   21  C   UNK N   1      35.927  15.441  11.470  0.00  0.00     0.232 C 
BRANCH  21  22
HETATM   22  C   UNK N   1      35.226  16.299  10.465  0.00  0.00     0.158 C 
HETATM   23  O   UNK N   1      34.357  15.821   9.756  0.00  0.00    -0.649 OA
BRANCH  22  24
HETATM   24  O   UNK N   1      35.563  17.595  10.329  0.00  0.00    -0.775 OA
HETATM   25  H   UNK N   1      34.962  18.298  10.480  0.00  0.00     0.167 HD
ENDBRANCH  22  24
ENDBRANCH  21  22
ENDBRANCH  19  21
ENDBRANCH   1  17
TORSDOF 10
ENDMDL
MODEL 7
REMARK VINA RESULT:      -5.5      7.080     10.642
REMARK  10 active torsions:
REMARK  status: ('A' for Active; 'I' for Inactive)
REMARK       I    between atoms: C_2  and  N_3 
REMARK    1  A    between atoms: C_2  and  O_14 
REMARK    2  A    between atoms: C_4  and  N_3 
REMARK    3  A    between atoms: C_4  and  C_5 
REMARK    4  A    between atoms: C_4  and  C_7 
REMARK    5  A    between atoms: C_5  and  S_6 
REMARK       I    between atoms: C_7  and  N_9 
REMARK    6  A    between atoms: N_9  and  C_10 
REMARK    7  A    between atoms: C_10  and  C_11 
REMARK    8  A    between atoms: C_11  and  O_12 
REMARK    9  A    between atoms: O_14  and  C_15 
REMARK   10  A    between atoms: C_15  and  C_16 
ROOT
HETATM    1  C   UNK N   1      36.679  12.574  10.891  0.00  0.00     0.188 C 
ENDROOT
BRANCH   1   2
HETATM    2  N   UNK N   1      37.531  11.832  11.800  0.00  0.00    -0.323 N 
HETATM    3  C   UNK N   1      37.342  11.730  13.135  0.00  0.00     0.361 C 
HETATM    4  O   UNK N   1      38.056  10.962  13.768  0.00  0.00    -0.238 OA
HETATM    5  H   UNK N   1      38.307  11.365  11.415  0.00  0.00     0.165 HD
BRANCH   3   6
HETATM    6  O   UNK N   1      36.413  12.496  13.772  0.00  0.00    -0.299 OA
BRANCH   6   7
HETATM    7  C   UNK N   1      35.941  12.258  15.057  0.00  0.00     0.219 C 
BRANCH   7   8
HETATM    8  C   UNK N   1      36.093  13.442  15.964  0.00  0.00    -0.034 A 
HETATM    9  C   UNK N   1      35.336  13.502  17.140  0.00  0.00     0.009 A 
HETATM   10  C   UNK N   1      35.506  14.563  18.033  0.00  0.00     0.001 A 
HETATM   11  C   UNK N   1      36.438  15.566  17.755  0.00  0.00     0.000 A 
HETATM   12  C   UNK N   1      37.194  15.512  16.579  0.00  0.00     0.001 A 
HETATM   13  C   UNK N   1      37.025  14.451  15.683  0.00  0.00     0.009 A 
ENDBRANCH   7   8
ENDBRANCH   6   7
ENDBRANCH   3   6
ENDBRANCH   1   2
BRANCH   1  14
HETATM   14  C   UNK N   1      36.414  11.671   9.689  0.00  0.00     0.105 C 
BRANCH  14  15
HETATM   15  S   UNK N   1      35.100  12.337   8.624  0.00  0.00    -0.180 SA
HETATM   16  H   UNK N   1      34.748  13.651   8.630  0.00  0.00     0.101 HD
ENDBRANCH  14  15
ENDBRANCH   1  14
BRANCH   1  17
HETATM   17  C   UNK N   1      37.362  13.857  10.445  0.00  0.00     0.241 C 
HETATM   18  O   UNK N   1      38.303  13.797   9.669  0.00  0.00    -0.271 OA
HETATM   19  N   UNK N   1      36.960  15.078  10.889  0.00  0.00    -0.349 N 
HETATM   20  H   UNK N   1      37.464  15.871  10.593  0.00  0.00     0.163 HD
BRANCH  19  21
HETATM   21  C   UNK N   1      35.833  15.273  11.768  0.00  0.00     0.232 C 
BRANCH  21  22
HETATM   22  C   UNK N   1      34.623  15.604  10.954  0.00  0.00     0.158 C 
HETATM   23  O   UNK N   1      34.685  16.463  10.091  0.00  0.00    -0.649 OA
BRANCH  22  24
HETATM   24  O   UNK N   1      33.459  14.967  11.180  0.00  0.00    -0.775 OA
HETATM   25  H   UNK N   1      33.113  14.314  10.605  0.00  0.00     0.167 HD
ENDBRANCH  22  24
ENDBRANCH  21  22
ENDBRANCH  19  21
ENDBRANCH   1  17
TORSDOF 10
ENDMDL
MODEL 8
REMARK VINA RESULT:      -5.5      8.922     11.414
REMARK  10 active torsions:
REMARK  status: ('A' for Active; 'I' for Inactive)
REMARK       I    between atoms: C_2  and  N_3 
REMARK    1  A    between atoms: C_2  and  O_14 
REMARK    2  A    between atoms: C_4  and  N_3 
REMARK    3  A    between atoms: C_4  and  C_5 
REMARK    4  A    between atoms: C_4  and  C_7 
REMARK    5  A    between atoms: C_5  and  S_6 
REMARK       I    between atoms: C_7  and  N_9 
REMARK    6  A    between atoms: N_9  and  C_10 
REMARK    7  A    between atoms: C_10  and  C_11 
REMARK    8  A    between atoms: C_11  and  O_12 
REMARK    9  A    between atoms: O_14  and  C_15 
REMARK   10  A    between atoms: C_15  and  C_16 
ROOT
HETATM    1  C   UNK N   1      19.975  15.951   3.962  0.00  0.00     0.188 C 
ENDROOT
BRANCH   1   2
HETATM    2  N   UNK N   1      19.281  17.140   3.504  0.00  0.00    -0.323 N 
HETATM    3  C   UNK N   1      19.878  18.293   3.126  0.00  0.00     0.361 C 
HETATM    4  O   UNK N   1      19.186  19.173   2.632  0.00  0.00    -0.238 OA
HETATM    5  H   UNK N   1      18.298  17.105   3.465  0.00  0.00     0.165 HD
BRANCH   3   6
HETATM    6  O   UNK N   1      21.210  18.492   3.331  0.00  0.00    -0.299 OA
BRANCH   6   7
HETATM    7  C   UNK N   1      21.840  19.729   3.280  0.00  0.00     0.219 C 
BRANCH   7   8
HETATM    8  C   UNK N   1      23.328  19.634   3.443  0.00  0.00    -0.034 A 
HETATM    9  C   UNK N   1      23.871  18.539   4.125  0.00  0.00     0.009 A 
HETATM   10  C   UNK N   1      25.256  18.395   4.235  0.00  0.00     0.001 A 
HETATM   11  C   UNK N   1      26.104  19.345   3.658  0.00  0.00     0.000 A 
HETATM   12  C   UNK N   1      25.566  20.443   2.979  0.00  0.00     0.001 A 
HETATM   13  C   UNK N   1      24.179  20.589   2.869  0.00  0.00     0.009 A 
ENDBRANCH   7   8
ENDBRANCH   6   7
ENDBRANCH   3   6
ENDBRANCH   1   2
BRANCH   1  14
HETATM   14  C   UNK N   1      19.932  14.941   2.818  0.00  0.00     0.105 C 
BRANCH  14  15
HETATM   15  S   UNK N   1      21.501  14.898   1.900  0.00  0.00    -0.180 SA
HETATM   16  H   UNK N   1      22.306  13.802   1.878  0.00  0.00     0.101 HD
ENDBRANCH  14  15
ENDBRANCH   1  14
BRANCH   1  17
HETATM   17  C   UNK N   1      19.297  15.378   5.196  0.00  0.00     0.241 C 
HETATM   18  O   UNK N   1      18.236  14.783   5.077  0.00  0.00    -0.271 OA
HETATM   19  N   UNK N   1      19.833  15.511   6.438  0.00  0.00    -0.349 N 
HETATM   20  H   UNK N   1      19.330  15.150   7.205  0.00  0.00     0.163 HD
BRANCH  19  21
HETATM   21  C   UNK N   1      21.101  16.151   6.693  0.00  0.00     0.232 C 
BRANCH  21  22
HETATM   22  C   UNK N   1      20.859  17.521   7.243  0.00  0.00     0.158 C 
HETATM   23  O   UNK N   1      21.307  18.498   6.665  0.00  0.00    -0.649 OA
BRANCH  22  24
HETATM   24  O   UNK N   1      20.163  17.681   8.384  0.00  0.00    -0.775 OA
HETATM   25  H   UNK N   1      19.632  17.006   8.757  0.00  0.00     0.167 HD
ENDBRANCH  22  24
ENDBRANCH  21  22
ENDBRANCH  19  21
ENDBRANCH   1  17
TORSDOF 10
ENDMDL
MODEL 9
REMARK VINA RESULT:      -5.5      8.342     10.681
REMARK  10 active torsions:
REMARK  status: ('A' for Active; 'I' for Inactive)
REMARK       I    between atoms: C_2  and  N_3 
REMARK    1  A    between atoms: C_2  and  O_14 
REMARK    2  A    between atoms: C_4  and  N_3 
REMARK    3  A    between atoms: C_4  and  C_5 
REMARK    4  A    between atoms: C_4  and  C_7 
REMARK    5  A    between atoms: C_5  and  S_6 
REMARK       I    between atoms: C_7  and  N_9 
REMARK    6  A    between atoms: N_9  and  C_10 
REMARK    7  A    between atoms: C_10  and  C_11 
REMARK    8  A    between atoms: C_11  and  O_12 
REMARK    9  A    between atoms: O_14  and  C_15 
REMARK   10  A    between atoms: C_15  and  C_16 
ROOT
HETATM    1  C   UNK N   1      20.903  16.717   2.791  0.00  0.00     0.188 C 
ENDROOT
BRANCH   1   2
HETATM    2  N   UNK N   1      21.783  15.620   2.438  0.00  0.00    -0.323 N 
HETATM    3  C   UNK N   1      23.008  15.405   2.967  0.00  0.00     0.361 C 
HETATM    4  O   UNK N   1      23.592  14.367   2.682  0.00  0.00    -0.238 OA
HETATM    5  H   UNK N   1      21.463  14.982   1.760  0.00  0.00     0.165 HD
BRANCH   3   6
HETATM    6  O   UNK N   1      23.603  16.338   3.761  0.00  0.00    -0.299 OA
BRANCH   6   7
HETATM    7  C   UNK N   1      24.976  16.477   3.924  0.00  0.00     0.219 C 
BRANCH   7   8
HETATM    8  C   UNK N   1      25.431  17.905   3.861  0.00  0.00    -0.034 A 
HETATM    9  C   UNK N   1      26.793  18.193   4.004  0.00  0.00     0.009 A 
HETATM   10  C   UNK N   1      27.250  19.508   3.886  0.00  0.00     0.001 A 
HETATM   11  C   UNK N   1      26.345  20.539   3.619  0.00  0.00     0.000 A 
HETATM   12  C   UNK N   1      24.983  20.256   3.479  0.00  0.00     0.001 A 
HETATM   13  C   UNK N   1      24.523  18.940   3.598  0.00  0.00     0.009 A 
ENDBRANCH   7   8
ENDBRANCH   6   7
ENDBRANCH   3   6
ENDBRANCH   1   2
BRANCH   1  14
HETATM   14  C   UNK N   1      19.869  16.164   3.769  0.00  0.00     0.105 C 
BRANCH  14  15
HETATM   15  S   UNK N   1      20.330  16.501   5.496  0.00  0.00    -0.180 SA
HETATM   16  H   UNK N   1      20.389  15.525   6.440  0.00  0.00     0.101 HD
ENDBRANCH  14  15
ENDBRANCH   1  14
BRANCH   1  17
HETATM   17  C   UNK N   1      20.213  17.269   1.554  0.00  0.00     0.241 C 
HETATM   18  O   UNK N   1      19.890  16.506   0.656  0.00  0.00    -0.271 OA
HETATM   19  N   UNK N   1      19.945  18.594   1.410  0.00  0.00    -0.349 N 
HETATM   20  H   UNK N   1      19.529  18.898   0.570  0.00  0.00     0.163 HD
BRANCH  19  21
HETATM   21  C   UNK N   1      20.238  19.579   2.423  0.00  0.00     0.232 C 
BRANCH  21  22
HETATM   22  C   UNK N   1      21.125  20.635   1.843  0.00  0.00     0.158 C 
HETATM   23  O   UNK N   1      21.346  20.655   0.644  0.00  0.00    -0.649 OA
BRANCH  22  24
HETATM   24  O   UNK N   1      21.696  21.555   2.643  0.00  0.00    -0.775 OA
HETATM   25  H   UNK N   1      22.004  21.361   3.506  0.00  0.00     0.167 HD
ENDBRANCH  22  24
ENDBRANCH  21  22
ENDBRANCH  19  21
ENDBRANCH   1  17
TORSDOF 10
ENDMDL
