MODEL 1
REMARK VINA RESULT:      -5.8      0.000      0.000
REMARK  9 active torsions:
REMARK  status: ('A' for Active; 'I' for Inactive)
REMARK    1  A    between atoms: C_1  and  C_2 
REMARK    2  A    between atoms: C_1  and  P_19 
REMARK    3  A    between atoms: C_2  and  C_3 
REMARK    4  A    between atoms: C_3  and  C_4 
REMARK    5  A    between atoms: C_4  and  C_5 
REMARK    6  A    between atoms: C_7  and  O_17 
REMARK    7  A    between atoms: C_12  and  C_14 
REMARK    8  A    between atoms: P_19  and  O_17 
REMARK    9  A    between atoms: P_19  and  O_20 
ROOT
HETATM    1  O   UNK N   1      29.765  17.691   7.654  0.00  0.00    -0.313 OA
ENDROOT
BRANCH   1   2
HETATM    2  C   UNK N   1      30.989  17.026   7.394  0.00  0.00     0.136 C 
HETATM    3  C   UNK N   1      32.120  17.747   8.152  0.00  0.00     0.037 C 
HETATM    4  C   UNK N   1      33.399  17.960   7.329  0.00  0.00    -0.016 C 
HETATM    5  C   UNK N   1      33.717  16.723   6.494  0.00  0.00     0.005 C 
HETATM    6  C   UNK N   1      34.555  18.260   8.259  0.00  0.00     0.010 C 
HETATM    7  C   UNK N   1      32.574  16.342   5.539  0.00  0.00     0.008 C 
HETATM    8  C   UNK N   1      31.225  17.020   5.867  0.00  0.00     0.018 C 
BRANCH   8   9
HETATM    9  C   UNK N   1      30.067  16.341   5.111  0.00  0.00    -0.016 C 
HETATM   10  C   UNK N   1      29.942  14.855   5.421  0.00  0.00     0.010 C 
HETATM   11  C   UNK N   1      30.181  16.537   3.608  0.00  0.00     0.010 C 
ENDBRANCH   8   9
ENDBRANCH   1   2
BRANCH   1  12
HETATM   12  P   UNK N   1      29.335  17.519   9.340  0.00  0.00     0.238 P 
HETATM   13  O   UNK N   1      27.869  17.050   9.544  0.00  0.00    -0.653 OA
BRANCH  12  14
HETATM   14  C   UNK N   1      28.380  18.981   8.597  0.00  0.00     0.125 C 
BRANCH  14  15
HETATM   15  C   UNK N   1      27.991  18.879   7.119  0.00  0.00     0.012 C 
BRANCH  15  16
HETATM   16  C   UNK N   1      27.610  20.255   6.609  0.00  0.00     0.001 C 
BRANCH  16  17
HETATM   17  C   UNK N   1      26.418  20.155   5.675  0.00  0.00    -0.000 C 
BRANCH  17  18
HETATM   18  C   UNK N   1      26.818  20.492   4.252  0.00  0.00    -0.005 C 
HETATM   19  C   UNK N   1      25.804  19.904   3.295  0.00  0.00     0.005 C 
ENDBRANCH  17  18
ENDBRANCH  16  17
ENDBRANCH  15  16
ENDBRANCH  14  15
ENDBRANCH  12  14
BRANCH  12  20
HETATM   20  O   UNK N   1      29.767  18.844  10.382  0.00  0.00    -0.329 OA
HETATM   21  H   UNK N   1      30.631  19.282  10.324  0.00  0.00     0.220 HD
ENDBRANCH  12  20
ENDBRANCH   1  12
TORSDOF 9
ENDMDL
MODEL 2
REMARK VINA RESULT:      -5.7      2.332      6.374
REMARK  9 active torsions:
REMARK  status: ('A' for Active; 'I' for Inactive)
REMARK    1  A    between atoms: C_1  and  C_2 
REMARK    2  A    between atoms: C_1  and  P_19 
REMARK    3  A    between atoms: C_2  and  C_3 
REMARK    4  A    between atoms: C_3  and  C_4 
REMARK    5  A    between atoms: C_4  and  C_5 
REMARK    6  A    between atoms: C_7  and  O_17 
REMARK    7  A    between atoms: C_12  and  C_14 
REMARK    8  A    between atoms: P_19  and  O_17 
REMARK    9  A    between atoms: P_19  and  O_20 
ROOT
HETATM    1  O   UNK N   1      29.318  16.919   5.491  0.00  0.00    -0.313 OA
ENDROOT
BRANCH   1   2
HETATM    2  C   UNK N   1      28.231  17.770   5.809  0.00  0.00     0.136 C 
HETATM    3  C   UNK N   1      27.792  18.516   4.533  0.00  0.00     0.037 C 
HETATM    4  C   UNK N   1      27.516  20.013   4.738  0.00  0.00    -0.016 C 
HETATM    5  C   UNK N   1      26.772  20.252   6.048  0.00  0.00     0.005 C 
HETATM    6  C   UNK N   1      26.696  20.539   3.580  0.00  0.00     0.010 C 
HETATM    7  C   UNK N   1      27.538  19.719   7.271  0.00  0.00     0.008 C 
HETATM    8  C   UNK N   1      28.680  18.740   6.923  0.00  0.00     0.018 C 
BRANCH   8   9
HETATM    9  C   UNK N   1      29.165  17.988   8.178  0.00  0.00    -0.016 C 
HETATM   10  C   UNK N   1      28.026  17.564   9.096  0.00  0.00     0.010 C 
HETATM   11  C   UNK N   1      30.178  18.798   8.968  0.00  0.00     0.010 C 
ENDBRANCH   8   9
ENDBRANCH   1   2
BRANCH   1  12
HETATM   12  P   UNK N   1      29.091  16.222   3.903  0.00  0.00     0.238 P 
HETATM   13  O   UNK N   1      29.107  14.669   3.918  0.00  0.00    -0.653 OA
BRANCH  12  14
HETATM   14  C   UNK N   1      30.864  15.883   4.488  0.00  0.00     0.125 C 
BRANCH  14  15
HETATM   15  C   UNK N   1      31.528  16.955   5.358  0.00  0.00     0.012 C 
BRANCH  15  16
HETATM   16  C   UNK N   1      32.906  17.259   4.807  0.00  0.00     0.001 C 
BRANCH  16  17
HETATM   17  C   UNK N   1      33.920  17.316   5.936  0.00  0.00    -0.000 C 
BRANCH  17  18
HETATM   18  C   UNK N   1      33.258  17.732   7.234  0.00  0.00    -0.005 C 
HETATM   19  C   UNK N   1      34.296  18.340   8.153  0.00  0.00     0.005 C 
ENDBRANCH  17  18
ENDBRANCH  16  17
ENDBRANCH  15  16
ENDBRANCH  14  15
ENDBRANCH  12  14
BRANCH  12  20
HETATM   20  O   UNK N   1      30.062  16.891   2.625  0.00  0.00    -0.329 OA
HETATM   21  H   UNK N   1      30.153  17.849   2.496  0.00  0.00     0.220 HD
ENDBRANCH  12  20
ENDBRANCH   1  12
TORSDOF 9
ENDMDL
MODEL 3
REMARK VINA RESULT:      -5.6     10.956     12.386
REMARK  9 active torsions:
REMARK  status: ('A' for Active; 'I' for Inactive)
REMARK    1  A    between atoms: C_1  and  C_2 
REMARK    2  A    between atoms: C_1  and  P_19 
REMARK    3  A    between atoms: C_2  and  C_3 
REMARK    4  A    between atoms: C_3  and  C_4 
REMARK    5  A    between atoms: C_4  and  C_5 
REMARK    6  A    between atoms: C_7  and  O_17 
REMARK    7  A    between atoms: C_12  and  C_14 
REMARK    8  A    between atoms: P_19  and  O_17 
REMARK    9  A    between atoms: P_19  and  O_20 
ROOT
HETATM    1  O   UNK N   1      30.189  21.350  -3.464  0.00  0.00    -0.313 OA
ENDROOT
BRANCH   1   2
HETATM    2  C   UNK N   1      31.164  20.646  -4.212  0.00  0.00     0.136 C 
HETATM    3  C   UNK N   1      32.553  20.913  -3.599  0.00  0.00     0.037 C 
HETATM    4  C   UNK N   1      33.654  21.205  -4.629  0.00  0.00    -0.016 C 
HETATM    5  C   UNK N   1      33.526  20.282  -5.836  0.00  0.00     0.005 C 
HETATM    6  C   UNK N   1      35.011  21.019  -3.984  0.00  0.00     0.010 C 
HETATM    7  C   UNK N   1      32.158  20.399  -6.529  0.00  0.00     0.008 C 
HETATM    8  C   UNK N   1      31.080  21.110  -5.683  0.00  0.00     0.018 C 
BRANCH   8   9
HETATM    9  C   UNK N   1      29.675  20.886  -6.276  0.00  0.00    -0.016 C 
HETATM   10  C   UNK N   1      29.666  19.892  -7.429  0.00  0.00     0.010 C 
HETATM   11  C   UNK N   1      29.036  22.189  -6.724  0.00  0.00     0.010 C 
ENDBRANCH   8   9
ENDBRANCH   1   2
BRANCH   1  12
HETATM   12  P   UNK N   1      30.864  22.844  -2.854  0.00  0.00     0.238 P 
HETATM   13  O   UNK N   1      30.479  23.120  -1.375  0.00  0.00    -0.653 OA
BRANCH  12  14
HETATM   14  C   UNK N   1      28.980  23.021  -2.997  0.00  0.00     0.125 C 
BRANCH  14  15
HETATM   15  C   UNK N   1      28.449  24.283  -3.682  0.00  0.00     0.012 C 
BRANCH  15  16
HETATM   16  C   UNK N   1      26.935  24.291  -3.606  0.00  0.00     0.001 C 
BRANCH  16  17
HETATM   17  C   UNK N   1      26.396  25.642  -4.040  0.00  0.00    -0.000 C 
BRANCH  17  18
HETATM   18  C   UNK N   1      25.608  25.518  -5.329  0.00  0.00    -0.005 C 
HETATM   19  C   UNK N   1      24.950  26.845  -5.642  0.00  0.00     0.005 C 
ENDBRANCH  17  18
ENDBRANCH  16  17
ENDBRANCH  15  16
ENDBRANCH  14  15
ENDBRANCH  12  14
BRANCH  12  20
HETATM   20  O   UNK N   1      30.675  24.243  -3.870  0.00  0.00    -0.329 OA
HETATM   21  H   UNK N   1      30.932  24.238  -4.805  0.00  0.00     0.220 HD
ENDBRANCH  12  20
ENDBRANCH   1  12
TORSDOF 9
ENDMDL
MODEL 4
REMARK VINA RESULT:      -5.6      1.468      5.013
REMARK  9 active torsions:
REMARK  status: ('A' for Active; 'I' for Inactive)
REMARK    1  A    between atoms: C_1  and  C_2 
REMARK    2  A    between atoms: C_1  and  P_19 
REMARK    3  A    between atoms: C_2  and  C_3 
REMARK    4  A    between atoms: C_3  and  C_4 
REMARK    5  A    between atoms: C_4  and  C_5 
REMARK    6  A    between atoms: C_7  and  O_17 
REMARK    7  A    between atoms: C_12  and  C_14 
REMARK    8  A    between atoms: P_19  and  O_17 
REMARK    9  A    between atoms: P_19  and  O_20 
ROOT
HETATM    1  O   UNK N   1      28.561  17.462   7.967  0.00  0.00    -0.313 OA
ENDROOT
BRANCH   1   2
HETATM    2  C   UNK N   1      28.639  18.391   6.901  0.00  0.00     0.136 C 
HETATM    3  C   UNK N   1      27.841  19.654   7.281  0.00  0.00     0.037 C 
HETATM    4  C   UNK N   1      26.949  20.202   6.158  0.00  0.00    -0.016 C 
HETATM    5  C   UNK N   1      27.670  20.139   4.815  0.00  0.00     0.005 C 
HETATM    6  C   UNK N   1      26.568  21.634   6.468  0.00  0.00     0.010 C 
HETATM    7  C   UNK N   1      28.111  18.714   4.445  0.00  0.00     0.008 C 
HETATM    8  C   UNK N   1      28.087  17.719   5.626  0.00  0.00     0.018 C 
BRANCH   8   9
HETATM    9  C   UNK N   1      28.858  16.430   5.278  0.00  0.00    -0.016 C 
HETATM   10  C   UNK N   1      29.404  16.426   3.856  0.00  0.00     0.010 C 
HETATM   11  C   UNK N   1      28.012  15.187   5.499  0.00  0.00     0.010 C 
ENDBRANCH   8   9
ENDBRANCH   1   2
BRANCH   1  12
HETATM   12  P   UNK N   1      29.298  18.131   9.404  0.00  0.00     0.238 P 
HETATM   13  O   UNK N   1      30.512  19.047   9.090  0.00  0.00    -0.653 OA
BRANCH  12  14
HETATM   14  C   UNK N   1      30.492  16.890   8.610  0.00  0.00     0.125 C 
BRANCH  14  15
HETATM   15  C   UNK N   1      31.799  17.448   8.038  0.00  0.00     0.012 C 
BRANCH  15  16
HETATM   16  C   UNK N   1      32.277  16.545   6.919  0.00  0.00     0.001 C 
BRANCH  16  17
HETATM   17  C   UNK N   1      32.710  17.376   5.724  0.00  0.00    -0.000 C 
BRANCH  17  18
HETATM   18  C   UNK N   1      33.263  16.491   4.625  0.00  0.00    -0.005 C 
HETATM   19  C   UNK N   1      32.812  17.023   3.281  0.00  0.00     0.005 C 
ENDBRANCH  17  18
ENDBRANCH  16  17
ENDBRANCH  15  16
ENDBRANCH  14  15
ENDBRANCH  12  14
BRANCH  12  20
HETATM   20  O   UNK N   1      29.618  17.012  10.696  0.00  0.00    -0.329 OA
HETATM   21  H   UNK N   1      29.210  17.106  11.571  0.00  0.00     0.220 HD
ENDBRANCH  12  20
ENDBRANCH   1  12
TORSDOF 9
ENDMDL
MODEL 5
REMARK VINA RESULT:      -5.5     12.047     14.553
REMARK  9 active torsions:
REMARK  status: ('A' for Active; 'I' for Inactive)
REMARK    1  A    between atoms: C_1  and  C_2 
REMARK    2  A    between atoms: C_1  and  P_19 
REMARK    3  A    between atoms: C_2  and  C_3 
REMARK    4  A    between atoms: C_3  and  C_4 
REMARK    5  A    between atoms: C_4  and  C_5 
REMARK    6  A    between atoms: C_7  and  O_17 
REMARK    7  A    between atoms: C_12  and  C_14 
REMARK    8  A    between atoms: P_19  and  O_17 
REMARK    9  A    between atoms: P_19  and  O_20 
ROOT
HETATM    1  O   UNK N   1      28.445  23.767  -4.202  0.00  0.00    -0.313 OA
ENDROOT
BRANCH   1   2
HETATM    2  C   UNK N   1      27.782  24.795  -4.916  0.00  0.00     0.136 C 
HETATM    3  C   UNK N   1      27.407  25.923  -3.935  0.00  0.00     0.037 C 
HETATM    4  C   UNK N   1      25.985  26.473  -4.116  0.00  0.00    -0.016 C 
HETATM    5  C   UNK N   1      25.643  26.614  -5.596  0.00  0.00     0.005 C 
HETATM    6  C   UNK N   1      25.873  27.820  -3.435  0.00  0.00     0.010 C 
HETATM    7  C   UNK N   1      25.759  25.285  -6.361  0.00  0.00     0.008 C 
HETATM    8  C   UNK N   1      26.540  24.188  -5.604  0.00  0.00     0.018 C 
BRANCH   8   9
HETATM    9  C   UNK N   1      26.916  23.028  -6.547  0.00  0.00    -0.016 C 
HETATM   10  C   UNK N   1      27.750  23.476  -7.740  0.00  0.00     0.010 C 
HETATM   11  C   UNK N   1      25.690  22.278  -7.039  0.00  0.00     0.010 C 
ENDBRANCH   8   9
ENDBRANCH   1   2
BRANCH   1  12
HETATM   12  P   UNK N   1      29.944  24.369  -3.533  0.00  0.00     0.238 P 
HETATM   13  O   UNK N   1      31.072  24.492  -4.594  0.00  0.00    -0.653 OA
BRANCH  12  14
HETATM   14  C   UNK N   1      30.168  22.553  -4.035  0.00  0.00     0.125 C 
BRANCH  14  15
HETATM   15  C   UNK N   1      30.518  22.273  -5.499  0.00  0.00     0.012 C 
BRANCH  15  16
HETATM   16  C   UNK N   1      30.108  20.856  -5.846  0.00  0.00     0.001 C 
BRANCH  16  17
HETATM   17  C   UNK N   1      30.154  20.651  -7.350  0.00  0.00    -0.000 C 
BRANCH  17  18
HETATM   18  C   UNK N   1      28.974  19.821  -7.816  0.00  0.00    -0.005 C 
HETATM   19  C   UNK N   1      29.387  18.367  -7.894  0.00  0.00     0.005 C 
ENDBRANCH  17  18
ENDBRANCH  16  17
ENDBRANCH  15  16
ENDBRANCH  14  15
ENDBRANCH  12  14
BRANCH  12  20
HETATM   20  O   UNK N   1      30.485  23.618  -2.061  0.00  0.00    -0.329 OA
HETATM   21  H   UNK N   1      30.312  24.009  -1.190  0.00  0.00     0.220 HD
ENDBRANCH  12  20
ENDBRANCH   1  12
TORSDOF 9
ENDMDL
MODEL 6
REMARK VINA RESULT:      -5.4      2.758      5.959
REMARK  9 active torsions:
REMARK  status: ('A' for Active; 'I' for Inactive)
REMARK    1  A    between atoms: C_1  and  C_2 
REMARK    2  A    between atoms: C_1  and  P_19 
REMARK    3  A    between atoms: C_2  and  C_3 
REMARK    4  A    between atoms: C_3  and  C_4 
REMARK    5  A    between atoms: C_4  and  C_5 
REMARK    6  A    between atoms: C_7  and  O_17 
REMARK    7  A    between atoms: C_12  and  C_14 
REMARK    8  A    between atoms: P_19  and  O_17 
REMARK    9  A    between atoms: P_19  and  O_20 
ROOT
HETATM    1  O   UNK N   1      32.432  16.712   7.386  0.00  0.00    -0.313 OA
ENDROOT
BRANCH   1   2
HETATM    2  C   UNK N   1      31.269  17.440   7.034  0.00  0.00     0.136 C 
HETATM    3  C   UNK N   1      30.400  17.632   8.292  0.00  0.00     0.037 C 
HETATM    4  C   UNK N   1      28.901  17.381   8.072  0.00  0.00    -0.016 C 
HETATM    5  C   UNK N   1      28.443  17.969   6.740  0.00  0.00     0.005 C 
HETATM    6  C   UNK N   1      28.112  18.002   9.204  0.00  0.00     0.010 C 
HETATM    7  C   UNK N   1      29.221  17.399   5.542  0.00  0.00     0.008 C 
HETATM    8  C   UNK N   1      30.523  16.663   5.927  0.00  0.00     0.018 C 
BRANCH   8   9
HETATM    9  C   UNK N   1      31.413  16.431   4.690  0.00  0.00    -0.016 C 
HETATM   10  C   UNK N   1      32.079  17.705   4.188  0.00  0.00     0.010 C 
HETATM   11  C   UNK N   1      30.644  15.779   3.554  0.00  0.00     0.010 C 
ENDBRANCH   8   9
ENDBRANCH   1   2
BRANCH   1  12
HETATM   12  P   UNK N   1      33.585  17.765   8.172  0.00  0.00     0.238 P 
HETATM   13  O   UNK N   1      34.694  18.271   7.210  0.00  0.00    -0.653 OA
BRANCH  12  14
HETATM   14  C   UNK N   1      34.439  16.134   7.714  0.00  0.00     0.125 C 
BRANCH  14  15
HETATM   15  C   UNK N   1      34.705  15.881   6.227  0.00  0.00     0.012 C 
BRANCH  15  16
HETATM   16  C   UNK N   1      34.959  14.403   6.011  0.00  0.00     0.001 C 
BRANCH  16  17
HETATM   17  C   UNK N   1      34.007  13.856   4.962  0.00  0.00    -0.000 C 
BRANCH  17  18
HETATM   18  C   UNK N   1      34.326  14.428   3.595  0.00  0.00    -0.005 C 
HETATM   19  C   UNK N   1      33.544  13.671   2.542  0.00  0.00     0.005 C 
ENDBRANCH  17  18
ENDBRANCH  16  17
ENDBRANCH  15  16
ENDBRANCH  14  15
ENDBRANCH  12  14
BRANCH  12  20
HETATM   20  O   UNK N   1      34.218  17.210   9.694  0.00  0.00    -0.329 OA
HETATM   21  H   UNK N   1      33.640  16.903  10.410  0.00  0.00     0.220 HD
ENDBRANCH  12  20
ENDBRANCH   1  12
TORSDOF 9
ENDMDL
MODEL 7
REMARK VINA RESULT:      -5.4     13.076     14.878
REMARK  9 active torsions:
REMARK  status: ('A' for Active; 'I' for Inactive)
REMARK    1  A    between atoms: C_1  and  C_2 
REMARK    2  A    between atoms: C_1  and  P_19 
REMARK    3  A    between atoms: C_2  and  C_3 
REMARK    4  A    between atoms: C_3  and  C_4 
REMARK    5  A    between atoms: C_4  and  C_5 
REMARK    6  A    between atoms: C_7  and  O_17 
REMARK    7  A    between atoms: C_12  and  C_14 
REMARK    8  A    between atoms: P_19  and  O_17 
REMARK    9  A    between atoms: P_19  and  O_20 
ROOT
HETATM    1  O   UNK N   1      27.821  24.250  -7.185  0.00  0.00    -0.313 OA
ENDROOT
BRANCH   1   2
HETATM    2  C   UNK N   1      28.931  23.536  -6.670  0.00  0.00     0.136 C 
HETATM    3  C   UNK N   1      29.094  22.226  -7.465  0.00  0.00     0.037 C 
HETATM    4  C   UNK N   1      29.373  20.989  -6.598  0.00  0.00    -0.016 C 
HETATM    5  C   UNK N   1      30.355  21.322  -5.480  0.00  0.00     0.005 C 
HETATM    6  C   UNK N   1      29.937  19.883  -7.463  0.00  0.00     0.010 C 
HETATM    7  C   UNK N   1      29.858  22.460  -4.572  0.00  0.00     0.008 C 
HETATM    8  C   UNK N   1      28.689  23.277  -5.167  0.00  0.00     0.018 C 
BRANCH   8   9
HETATM    9  C   UNK N   1      28.478  24.588  -4.385  0.00  0.00    -0.016 C 
HETATM   10  C   UNK N   1      29.763  25.132  -3.776  0.00  0.00     0.010 C 
HETATM   11  C   UNK N   1      27.426  24.437  -3.299  0.00  0.00     0.010 C 
ENDBRANCH   8   9
ENDBRANCH   1   2
BRANCH   1  12
HETATM   12  P   UNK N   1      26.467  23.168  -7.419  0.00  0.00     0.238 P 
HETATM   13  O   UNK N   1      25.822  23.304  -8.825  0.00  0.00    -0.653 OA
BRANCH  12  14
HETATM   14  C   UNK N   1      25.835  24.956  -7.357  0.00  0.00     0.125 C 
BRANCH  14  15
HETATM   15  C   UNK N   1      25.327  25.469  -6.006  0.00  0.00     0.012 C 
BRANCH  15  16
HETATM   16  C   UNK N   1      25.206  26.979  -6.060  0.00  0.00     0.001 C 
BRANCH  16  17
HETATM   17  C   UNK N   1      26.567  27.620  -5.854  0.00  0.00    -0.000 C 
BRANCH  17  18
HETATM   18  C   UNK N   1      26.508  28.671  -4.764  0.00  0.00    -0.005 C 
HETATM   19  C   UNK N   1      25.972  28.044  -3.494  0.00  0.00     0.005 C 
ENDBRANCH  17  18
ENDBRANCH  16  17
ENDBRANCH  15  16
ENDBRANCH  14  15
ENDBRANCH  12  14
BRANCH  12  20
HETATM   20  O   UNK N   1      25.288  23.126  -6.141  0.00  0.00    -0.329 OA
HETATM   21  H   UNK N   1      25.524  22.881  -5.232  0.00  0.00     0.220 HD
ENDBRANCH  12  20
ENDBRANCH   1  12
TORSDOF 9
ENDMDL
MODEL 8
REMARK VINA RESULT:      -5.4      3.194      6.950
REMARK  9 active torsions:
REMARK  status: ('A' for Active; 'I' for Inactive)
REMARK    1  A    between atoms: C_1  and  C_2 
REMARK    2  A    between atoms: C_1  and  P_19 
REMARK    3  A    between atoms: C_2  and  C_3 
REMARK    4  A    between atoms: C_3  and  C_4 
REMARK    5  A    between atoms: C_4  and  C_5 
REMARK    6  A    between atoms: C_7  and  O_17 
REMARK    7  A    between atoms: C_12  and  C_14 
REMARK    8  A    between atoms: P_19  and  O_17 
REMARK    9  A    between atoms: P_19  and  O_20 
ROOT
HETATM    1  O   UNK N   1      32.647  16.810   8.119  0.00  0.00    -0.313 OA
ENDROOT
BRANCH   1   2
HETATM    2  C   UNK N   1      31.533  17.486   7.562  0.00  0.00     0.136 C 
HETATM    3  C   UNK N   1      30.479  17.703   8.665  0.00  0.00     0.037 C 
HETATM    4  C   UNK N   1      29.037  17.396   8.232  0.00  0.00    -0.016 C 
HETATM    5  C   UNK N   1      28.773  17.913   6.821  0.00  0.00     0.005 C 
HETATM    6  C   UNK N   1      28.071  18.040   9.203  0.00  0.00     0.010 C 
HETATM    7  C   UNK N   1      29.738  17.318   5.782  0.00  0.00     0.008 C 
HETATM    8  C   UNK N   1      30.984  16.639   6.392  0.00  0.00     0.018 C 
BRANCH   8   9
HETATM    9  C   UNK N   1      32.057  16.384   5.316  0.00  0.00    -0.016 C 
HETATM   10  C   UNK N   1      32.224  17.550   4.352  0.00  0.00     0.010 C 
HETATM   11  C   UNK N   1      31.779  15.113   4.530  0.00  0.00     0.010 C 
ENDBRANCH   8   9
ENDBRANCH   1   2
BRANCH   1  12
HETATM   12  P   UNK N   1      34.016  17.891   8.222  0.00  0.00     0.238 P 
HETATM   13  O   UNK N   1      34.739  18.083   6.861  0.00  0.00    -0.653 OA
BRANCH  12  14
HETATM   14  C   UNK N   1      34.635  16.129   7.889  0.00  0.00     0.125 C 
BRANCH  14  15
HETATM   15  C   UNK N   1      33.834  14.980   8.510  0.00  0.00     0.012 C 
BRANCH  15  16
HETATM   16  C   UNK N   1      34.771  14.095   9.308  0.00  0.00     0.001 C 
BRANCH  16  17
HETATM   17  C   UNK N   1      36.202  14.291   8.839  0.00  0.00    -0.000 C 
BRANCH  17  18
HETATM   18  C   UNK N   1      37.119  14.567  10.014  0.00  0.00    -0.005 C 
HETATM   19  C   UNK N   1      36.472  14.058  11.284  0.00  0.00     0.005 C 
ENDBRANCH  17  18
ENDBRANCH  16  17
ENDBRANCH  15  16
ENDBRANCH  14  15
ENDBRANCH  12  14
BRANCH  12  20
HETATM   20  O   UNK N   1      35.122  17.607   9.535  0.00  0.00    -0.329 OA
HETATM   21  H   UNK N   1      35.053  16.825  10.105  0.00  0.00     0.220 HD
ENDBRANCH  12  20
ENDBRANCH   1  12
TORSDOF 9
ENDMDL
MODEL 9
REMARK VINA RESULT:      -5.3      3.658      7.319
REMARK  9 active torsions:
REMARK  status: ('A' for Active; 'I' for Inactive)
REMARK    1  A    between atoms: C_1  and  C_2 
REMARK    2  A    between atoms: C_1  and  P_19 
REMARK    3  A    between atoms: C_2  and  C_3 
REMARK    4  A    between atoms: C_3  and  C_4 
REMARK    5  A    between atoms: C_4  and  C_5 
REMARK    6  A    between atoms: C_7  and  O_17 
REMARK    7  A    between atoms: C_12  and  C_14 
REMARK    8  A    between atoms: P_19  and  O_17 
REMARK    9  A    between atoms: P_19  and  O_20 
ROOT
HETATM    1  O   UNK N   1      32.517  16.357   7.831  0.00  0.00    -0.313 OA
ENDROOT
BRANCH   1   2
HETATM    2  C   UNK N   1      31.562  16.327   6.785  0.00  0.00     0.136 C 
HETATM    3  C   UNK N   1      32.301  16.402   5.434  0.00  0.00     0.037 C 
HETATM    4  C   UNK N   1      31.668  17.365   4.418  0.00  0.00    -0.016 C 
HETATM    5  C   UNK N   1      30.146  17.256   4.443  0.00  0.00     0.005 C 
HETATM    6  C   UNK N   1      32.181  17.046   3.031  0.00  0.00     0.010 C 
HETATM    7  C   UNK N   1      29.554  17.543   5.833  0.00  0.00     0.008 C 
HETATM    8  C   UNK N   1      30.588  17.510   6.979  0.00  0.00     0.018 C 
BRANCH   8   9
HETATM    9  C   UNK N   1      29.889  17.456   8.352  0.00  0.00    -0.016 C 
HETATM   10  C   UNK N   1      28.376  17.330   8.247  0.00  0.00     0.010 C 
HETATM   11  C   UNK N   1      30.238  18.659   9.212  0.00  0.00     0.010 C 
ENDBRANCH   8   9
ENDBRANCH   1   2
BRANCH   1  12
HETATM   12  P   UNK N   1      34.106  16.695   7.186  0.00  0.00     0.238 P 
HETATM   13  O   UNK N   1      35.158  15.622   7.578  0.00  0.00    -0.653 OA
BRANCH  12  14
HETATM   14  C   UNK N   1      34.142  16.895   9.072  0.00  0.00     0.125 C 
BRANCH  14  15
HETATM   15  C   UNK N   1      34.133  15.612   9.908  0.00  0.00     0.012 C 
BRANCH  15  16
HETATM   16  C   UNK N   1      35.067  15.782  11.090  0.00  0.00     0.001 C 
BRANCH  16  17
HETATM   17  C   UNK N   1      35.144  14.492  11.886  0.00  0.00    -0.000 C 
BRANCH  17  18
HETATM   18  C   UNK N   1      36.100  14.636  13.054  0.00  0.00    -0.005 C 
HETATM   19  C   UNK N   1      35.792  13.571  14.086  0.00  0.00     0.005 C 
ENDBRANCH  17  18
ENDBRANCH  16  17
ENDBRANCH  15  16
ENDBRANCH  14  15
ENDBRANCH  12  14
BRANCH  12  20
HETATM   20  O   UNK N   1      34.692  18.319   7.399  0.00  0.00    -0.329 OA
HETATM   21  H   UNK N   1      34.635  18.983   6.694  0.00  0.00     0.220 HD
ENDBRANCH  12  20
ENDBRANCH   1  12
TORSDOF 9
ENDMDL
