REMARK  9 active torsions:
REMARK  status: ('A' for Active; 'I' for Inactive)
REMARK    1  A    between atoms: C_1  and  C_2 
REMARK    2  A    between atoms: C_1  and  P_19 
REMARK    3  A    between atoms: C_2  and  C_3 
REMARK    4  A    between atoms: C_3  and  C_4 
REMARK    5  A    between atoms: C_4  and  C_5 
REMARK    6  A    between atoms: C_7  and  O_17 
REMARK    7  A    between atoms: C_12  and  C_14 
REMARK    8  A    between atoms: P_19  and  O_17 
REMARK    9  A    between atoms: P_19  and  O_20 
ROOT
HETATM    1  O   UNK N   1       2.041   2.761  -0.257  0.00  0.00    -0.313 OA
ENDROOT
BRANCH   1   2
HETATM    2  C   UNK N   1       3.119   1.985   0.235  0.00  0.00     0.136 C 
HETATM    3  C   UNK N   1       4.418   2.807   0.122  0.00  0.00     0.037 C 
HETATM    4  C   UNK N   1       5.620   2.021  -0.422  0.00  0.00    -0.016 C 
HETATM    5  C   UNK N   1       5.663   0.617   0.173  0.00  0.00     0.005 C 
HETATM    6  C   UNK N   1       6.899   2.758  -0.088  0.00  0.00     0.010 C 
HETATM    7  C   UNK N   1       4.381  -0.185  -0.106  0.00  0.00     0.008 C 
HETATM    8  C   UNK N   1       3.189   0.675  -0.580  0.00  0.00     0.018 C 
BRANCH   8   9
HETATM    9  C   UNK N   1       1.870  -0.119  -0.503  0.00  0.00    -0.016 C 
HETATM   10  C   UNK N   1       1.554  -0.616   0.901  0.00  0.00     0.010 C 
HETATM   11  C   UNK N   1       1.858  -1.291  -1.470  0.00  0.00     0.010 C 
ENDBRANCH   8   9
ENDBRANCH   1   2
BRANCH   1  12
HETATM   12  P   UNK N   1       1.167   3.487   1.072  0.00  0.00     0.238 P 
HETATM   13  O   UNK N   1       0.580   2.437   2.054  0.00  0.00    -0.653 OA
BRANCH  12  14
HETATM   14  C   UNK N   1      -0.056   2.578  -0.058  0.00  0.00     0.125 C 
BRANCH  14  15
HETATM   15  C   UNK N   1      -1.522   2.547   0.384  0.00  0.00     0.012 C 
BRANCH  15  16
HETATM   16  C   UNK N   1      -2.351   1.870  -0.689  0.00  0.00     0.001 C 
BRANCH  16  17
HETATM   17  C   UNK N   1      -3.652   2.624  -0.899  0.00  0.00    -0.000 C 
BRANCH  17  18
HETATM   18  C   UNK N   1      -4.613   2.369   0.245  0.00  0.00    -0.005 C 
HETATM   19  C   UNK N   1      -5.845   3.230   0.064  0.00  0.00     0.005 C 
ENDBRANCH  17  18
ENDBRANCH  16  17
ENDBRANCH  15  16
ENDBRANCH  14  15
ENDBRANCH  12  14
BRANCH  12  20
HETATM   20  O   UNK N   1       0.022   4.727   0.652  0.00  0.00    -0.329 OA
HETATM   21  H   UNK N   1       0.301   5.626   0.417  0.00  0.00     0.220 HD
ENDBRANCH  12  20
ENDBRANCH   1  12
TORSDOF 9
