MODEL 1
REMARK VINA RESULT:      -6.2      0.000      0.000
REMARK  6 active torsions:
REMARK  status: ('A' for Active; 'I' for Inactive)
REMARK    1  A    between atoms: C_1  and  S_18 
REMARK    2  A    between atoms: C_4  and  N_7 
REMARK    3  A    between atoms: N_7  and  C_8 
REMARK    4  A    between atoms: C_8  and  N_10 
REMARK    5  A    between atoms: N_10  and  N_11 
REMARK    6  A    between atoms: S_18  and  N_19 
ROOT
HETATM    1  N   UNK N   1      30.612  17.489   3.655  0.00  0.00    -0.332 N 
HETATM    2  H   UNK N   1      30.771  18.239   3.037  0.00  0.00     0.168 HD
ENDROOT
BRANCH   1   3
HETATM    3  C   UNK N   1      31.531  17.244   4.712  0.00  0.00     0.034 A 
HETATM    4  C   UNK N   1      32.912  17.251   4.472  0.00  0.00     0.031 A 
HETATM    5  C   UNK N   1      33.810  17.206   5.552  0.00  0.00     0.027 A 
HETATM    6  C   UNK N   1      33.326  17.132   6.869  0.00  0.00     0.079 A 
HETATM    7  C   UNK N   1      31.937  17.092   7.086  0.00  0.00     0.027 A 
HETATM    8  C   UNK N   1      31.055  17.141   6.021  0.00  0.00     0.031 A 
BRANCH   6   9
HETATM    9  S   UNK N   1      34.457  17.317   8.280  0.00  0.00     0.256 S 
HETATM   10  O   UNK N   1      33.021  17.343   8.829  0.00  0.00    -0.201 OA
HETATM   11  O   UNK N   1      34.524  18.851   8.239  0.00  0.00    -0.201 OA
BRANCH   9  12
HETATM   12  N   UNK N   1      34.619  17.223  10.033  0.00  0.00    -0.324 N 
HETATM   13  H   UNK N   1      35.242  17.818  10.580  0.00  0.00     0.169 HD
HETATM   14  H   UNK N   1      34.055  16.533  10.530  0.00  0.00     0.169 HD
ENDBRANCH   9  12
ENDBRANCH   6   9
ENDBRANCH   1   3
BRANCH   1  15
HETATM   15  C   UNK N   1      29.456  16.655   3.476  0.00  0.00     0.187 C 
HETATM   16  S   UNK N   1      29.611  15.270   3.079  0.00  0.00    -0.040 SA
BRANCH  15  17
HETATM   17  N   UNK N   1      28.162  17.168   3.777  0.00  0.00    -0.295 N 
HETATM   18  H   UNK N   1      27.362  16.643   3.543  0.00  0.00     0.183 HD
BRANCH  17  19
HETATM   19  N   UNK N   1      28.015  18.410   4.403  0.00  0.00    -0.226 NA
HETATM   20  C   UNK N   1      26.939  19.143   3.740  0.00  0.00     0.144 C 
HETATM   21  C   UNK N   1      26.599  20.433   4.514  0.00  0.00     0.288 C 
HETATM   22  N   UNK N   1      27.517  20.638   5.638  0.00  0.00     0.086 N 
HETATM   23  C   UNK N   1      27.056  21.797   6.379  0.00  0.00     0.310 C 
HETATM   24  C   UNK N   1      27.452  19.493   6.547  0.00  0.00     0.288 C 
HETATM   25  C   UNK N   1      27.629  18.168   5.796  0.00  0.00     0.144 C 
ENDBRANCH  17  19
ENDBRANCH  15  17
ENDBRANCH   1  15
TORSDOF 6
ENDMDL
MODEL 2
REMARK VINA RESULT:      -6.1      5.952      9.103
REMARK  6 active torsions:
REMARK  status: ('A' for Active; 'I' for Inactive)
REMARK    1  A    between atoms: C_1  and  S_18 
REMARK    2  A    between atoms: C_4  and  N_7 
REMARK    3  A    between atoms: N_7  and  C_8 
REMARK    4  A    between atoms: C_8  and  N_10 
REMARK    5  A    between atoms: N_10  and  N_11 
REMARK    6  A    between atoms: S_18  and  N_19 
ROOT
HETATM    1  N   UNK N   1      26.549  19.584   4.376  0.00  0.00    -0.332 N 
HETATM    2  H   UNK N   1      27.260  19.481   3.703  0.00  0.00     0.168 HD
ENDROOT
BRANCH   1   3
HETATM    3  C   UNK N   1      25.192  19.404   3.996  0.00  0.00     0.034 A 
HETATM    4  C   UNK N   1      24.437  18.347   4.524  0.00  0.00     0.031 A 
HETATM    5  C   UNK N   1      23.050  18.296   4.298  0.00  0.00     0.027 A 
HETATM    6  C   UNK N   1      22.425  19.289   3.525  0.00  0.00     0.079 A 
HETATM    7  C   UNK N   1      23.206  20.322   2.976  0.00  0.00     0.027 A 
HETATM    8  C   UNK N   1      24.569  20.372   3.204  0.00  0.00     0.031 A 
BRANCH   6   9
HETATM    9  S   UNK N   1      20.612  19.374   3.424  0.00  0.00     0.256 S 
HETATM   10  O   UNK N   1      21.163  19.482   1.992  0.00  0.00    -0.201 OA
HETATM   11  O   UNK N   1      20.509  20.901   3.556  0.00  0.00    -0.201 OA
BRANCH   9  12
HETATM   12  N   UNK N   1      19.209  19.236   2.365  0.00  0.00    -0.324 N 
HETATM   13  H   UNK N   1      19.264  18.985   1.378  0.00  0.00     0.169 HD
HETATM   14  H   UNK N   1      18.288  19.419   2.763  0.00  0.00     0.169 HD
ENDBRANCH   9  12
ENDBRANCH   6   9
ENDBRANCH   1   3
BRANCH   1  15
HETATM   15  C   UNK N   1      26.897  19.914   5.730  0.00  0.00     0.187 C 
HETATM   16  S   UNK N   1      26.912  21.296   6.162  0.00  0.00    -0.040 SA
BRANCH  15  17
HETATM   17  N   UNK N   1      27.140  18.872   6.671  0.00  0.00    -0.295 N 
HETATM   18  H   UNK N   1      26.381  18.366   7.044  0.00  0.00     0.183 HD
BRANCH  17  19
HETATM   19  N   UNK N   1      28.443  18.559   7.069  0.00  0.00    -0.226 NA
HETATM   20  C   UNK N   1      28.509  18.601   8.528  0.00  0.00     0.144 C 
HETATM   21  C   UNK N   1      29.867  18.069   9.029  0.00  0.00     0.288 C 
HETATM   22  N   UNK N   1      30.768  17.772   7.912  0.00  0.00     0.086 N 
HETATM   23  C   UNK N   1      31.967  17.168   8.461  0.00  0.00     0.310 C 
HETATM   24  C   UNK N   1      30.154  16.782   7.027  0.00  0.00     0.288 C 
HETATM   25  C   UNK N   1      28.732  17.193   6.625  0.00  0.00     0.144 C 
ENDBRANCH  17  19
ENDBRANCH  15  17
ENDBRANCH   1  15
TORSDOF 6
ENDMDL
MODEL 3
REMARK VINA RESULT:      -5.8     11.992     14.249
REMARK  6 active torsions:
REMARK  status: ('A' for Active; 'I' for Inactive)
REMARK    1  A    between atoms: C_1  and  S_18 
REMARK    2  A    between atoms: C_4  and  N_7 
REMARK    3  A    between atoms: N_7  and  C_8 
REMARK    4  A    between atoms: C_8  and  N_10 
REMARK    5  A    between atoms: N_10  and  N_11 
REMARK    6  A    between atoms: S_18  and  N_19 
ROOT
HETATM    1  N   UNK N   1      25.420  23.200  -6.101  0.00  0.00    -0.332 N 
HETATM    2  H   UNK N   1      24.730  22.570  -5.791  0.00  0.00     0.168 HD
ENDROOT
BRANCH   1   3
HETATM    3  C   UNK N   1      25.646  24.404  -5.379  0.00  0.00     0.034 A 
HETATM    4  C   UNK N   1      26.269  24.376  -4.124  0.00  0.00     0.031 A 
HETATM    5  C   UNK N   1      26.665  25.578  -3.512  0.00  0.00     0.027 A 
HETATM    6  C   UNK N   1      26.417  26.807  -4.147  0.00  0.00     0.079 A 
HETATM    7  C   UNK N   1      25.761  26.815  -5.390  0.00  0.00     0.027 A 
HETATM    8  C   UNK N   1      25.376  25.630  -5.992  0.00  0.00     0.031 A 
BRANCH   6   9
HETATM    9  S   UNK N   1      27.133  28.344  -3.491  0.00  0.00     0.256 S 
HETATM   10  O   UNK N   1      26.218  27.756  -2.404  0.00  0.00    -0.201 OA
HETATM   11  O   UNK N   1      26.020  29.274  -3.997  0.00  0.00    -0.201 OA
BRANCH   9  12
HETATM   12  N   UNK N   1      27.451  29.294  -2.040  0.00  0.00    -0.324 N 
HETATM   13  H   UNK N   1      27.049  29.088  -1.126  0.00  0.00     0.169 HD
HETATM   14  H   UNK N   1      28.075  30.097  -2.120  0.00  0.00     0.169 HD
ENDBRANCH   9  12
ENDBRANCH   6   9
ENDBRANCH   1   3
BRANCH   1  15
HETATM   15  C   UNK N   1      26.185  22.892  -7.277  0.00  0.00     0.187 C 
HETATM   16  S   UNK N   1      25.518  22.449  -8.484  0.00  0.00    -0.040 SA
BRANCH  15  17
HETATM   17  N   UNK N   1      27.593  23.111  -7.281  0.00  0.00    -0.295 N 
HETATM   18  H   UNK N   1      27.983  23.763  -7.908  0.00  0.00     0.183 HD
BRANCH  17  19
HETATM   19  N   UNK N   1      28.426  22.409  -6.404  0.00  0.00    -0.226 NA
HETATM   20  C   UNK N   1      29.131  21.374  -7.156  0.00  0.00     0.144 C 
HETATM   21  C   UNK N   1      30.210  20.704  -6.282  0.00  0.00     0.288 C 
HETATM   22  N   UNK N   1      30.165  21.201  -4.904  0.00  0.00     0.086 N 
HETATM   23  C   UNK N   1      31.282  20.614  -4.187  0.00  0.00     0.310 C 
HETATM   24  C   UNK N   1      30.361  22.651  -4.892  0.00  0.00     0.288 C 
HETATM   25  C   UNK N   1      29.410  23.354  -5.869  0.00  0.00     0.144 C 
ENDBRANCH  17  19
ENDBRANCH  15  17
ENDBRANCH   1  15
TORSDOF 6
ENDMDL
MODEL 4
REMARK VINA RESULT:      -5.7      5.753      8.744
REMARK  6 active torsions:
REMARK  status: ('A' for Active; 'I' for Inactive)
REMARK    1  A    between atoms: C_1  and  S_18 
REMARK    2  A    between atoms: C_4  and  N_7 
REMARK    3  A    between atoms: N_7  and  C_8 
REMARK    4  A    between atoms: C_8  and  N_10 
REMARK    5  A    between atoms: N_10  and  N_11 
REMARK    6  A    between atoms: S_18  and  N_19 
ROOT
HETATM    1  N   UNK N   1      25.405  17.068   5.287  0.00  0.00    -0.332 N 
HETATM    2  H   UNK N   1      25.345  16.695   6.196  0.00  0.00     0.168 HD
ENDROOT
BRANCH   1   3
HETATM    3  C   UNK N   1      24.377  17.928   4.813  0.00  0.00     0.034 A 
HETATM    4  C   UNK N   1      24.694  19.095   4.103  0.00  0.00     0.031 A 
HETATM    5  C   UNK N   1      23.675  19.829   3.472  0.00  0.00     0.027 A 
HETATM    6  C   UNK N   1      22.338  19.407   3.569  0.00  0.00     0.079 A 
HETATM    7  C   UNK N   1      22.038  18.252   4.314  0.00  0.00     0.027 A 
HETATM    8  C   UNK N   1      23.043  17.530   4.931  0.00  0.00     0.031 A 
BRANCH   6   9
HETATM    9  S   UNK N   1      21.045  20.198   2.566  0.00  0.00     0.256 S 
HETATM   10  O   UNK N   1      22.163  21.232   2.784  0.00  0.00    -0.201 OA
HETATM   11  O   UNK N   1      20.233  20.751   3.747  0.00  0.00    -0.201 OA
BRANCH   9  12
HETATM   12  N   UNK N   1      20.659  21.546   1.497  0.00  0.00    -0.324 N 
HETATM   13  H   UNK N   1      21.344  22.018   0.906  0.00  0.00     0.169 HD
HETATM   14  H   UNK N   1      19.693  21.873   1.467  0.00  0.00     0.169 HD
ENDBRANCH   9  12
ENDBRANCH   6   9
ENDBRANCH   1   3
BRANCH   1  15
HETATM   15  C   UNK N   1      26.528  16.736   4.455  0.00  0.00     0.187 C 
HETATM   16  S   UNK N   1      26.332  15.991   3.229  0.00  0.00    -0.040 SA
BRANCH  15  17
HETATM   17  N   UNK N   1      27.825  17.219   4.795  0.00  0.00    -0.295 N 
HETATM   18  H   UNK N   1      28.478  17.406   4.081  0.00  0.00     0.183 HD
BRANCH  17  19
HETATM   19  N   UNK N   1      28.180  17.432   6.130  0.00  0.00    -0.226 NA
HETATM   20  C   UNK N   1      29.589  17.086   6.300  0.00  0.00     0.144 C 
HETATM   21  C   UNK N   1      30.086  17.491   7.702  0.00  0.00     0.288 C 
HETATM   22  N   UNK N   1      28.990  18.008   8.528  0.00  0.00     0.086 N 
HETATM   23  C   UNK N   1      29.561  18.475   9.777  0.00  0.00     0.310 C 
HETATM   24  C   UNK N   1      28.379  19.166   7.874  0.00  0.00     0.288 C 
HETATM   25  C   UNK N   1      28.009  18.859   6.418  0.00  0.00     0.144 C 
ENDBRANCH  17  19
ENDBRANCH  15  17
ENDBRANCH   1  15
TORSDOF 6
ENDMDL
MODEL 5
REMARK VINA RESULT:      -5.6      2.173      2.583
REMARK  6 active torsions:
REMARK  status: ('A' for Active; 'I' for Inactive)
REMARK    1  A    between atoms: C_1  and  S_18 
REMARK    2  A    between atoms: C_4  and  N_7 
REMARK    3  A    between atoms: N_7  and  C_8 
REMARK    4  A    between atoms: C_8  and  N_10 
REMARK    5  A    between atoms: N_10  and  N_11 
REMARK    6  A    between atoms: S_18  and  N_19 
ROOT
HETATM    1  N   UNK N   1      29.042  17.983   4.088  0.00  0.00    -0.332 N 
HETATM    2  H   UNK N   1      29.076  18.860   3.640  0.00  0.00     0.168 HD
ENDROOT
BRANCH   1   3
HETATM    3  C   UNK N   1      30.141  17.559   4.882  0.00  0.00     0.034 A 
HETATM    4  C   UNK N   1      31.452  17.646   4.390  0.00  0.00     0.031 A 
HETATM    5  C   UNK N   1      32.539  17.412   5.250  0.00  0.00     0.027 A 
HETATM    6  C   UNK N   1      32.313  17.070   6.594  0.00  0.00     0.079 A 
HETATM    7  C   UNK N   1      30.991  16.954   7.059  0.00  0.00     0.027 A 
HETATM    8  C   UNK N   1      29.923  17.189   6.211  0.00  0.00     0.031 A 
BRANCH   6   9
HETATM    9  S   UNK N   1      33.695  17.002   7.773  0.00  0.00     0.256 S 
HETATM   10  O   UNK N   1      32.712  18.075   8.270  0.00  0.00    -0.201 OA
HETATM   11  O   UNK N   1      34.567  18.052   7.068  0.00  0.00    -0.201 OA
BRANCH   9  12
HETATM   12  N   UNK N   1      34.246  17.436   9.391  0.00  0.00    -0.324 N 
HETATM   13  H   UNK N   1      33.880  17.020  10.248  0.00  0.00     0.169 HD
HETATM   14  H   UNK N   1      34.975  18.145   9.475  0.00  0.00     0.169 HD
ENDBRANCH   9  12
ENDBRANCH   6   9
ENDBRANCH   1   3
BRANCH   1  15
HETATM   15  C   UNK N   1      27.882  17.150   3.929  0.00  0.00     0.187 C 
HETATM   16  S   UNK N   1      27.935  15.984   3.072  0.00  0.00    -0.040 SA
BRANCH  15  17
HETATM   17  N   UNK N   1      26.708  17.423   4.687  0.00  0.00    -0.295 N 
HETATM   18  H   UNK N   1      26.665  17.154   5.634  0.00  0.00     0.183 HD
BRANCH  17  19
HETATM   19  N   UNK N   1      25.615  18.071   4.102  0.00  0.00    -0.226 NA
HETATM   20  C   UNK N   1      24.407  17.711   4.842  0.00  0.00     0.144 C 
HETATM   21  C   UNK N   1      23.205  18.552   4.367  0.00  0.00     0.288 C 
HETATM   22  N   UNK N   1      23.566  19.403   3.229  0.00  0.00     0.086 N 
HETATM   23  C   UNK N   1      22.422  20.242   2.926  0.00  0.00     0.310 C 
HETATM   24  C   UNK N   1      24.666  20.292   3.602  0.00  0.00     0.288 C 
HETATM   25  C   UNK N   1      25.830  19.515   4.229  0.00  0.00     0.144 C 
ENDBRANCH  17  19
ENDBRANCH  15  17
ENDBRANCH   1  15
TORSDOF 6
ENDMDL
MODEL 6
REMARK VINA RESULT:      -5.6      3.210      4.199
REMARK  6 active torsions:
REMARK  status: ('A' for Active; 'I' for Inactive)
REMARK    1  A    between atoms: C_1  and  S_18 
REMARK    2  A    between atoms: C_4  and  N_7 
REMARK    3  A    between atoms: N_7  and  C_8 
REMARK    4  A    between atoms: C_8  and  N_10 
REMARK    5  A    between atoms: N_10  and  N_11 
REMARK    6  A    between atoms: S_18  and  N_19 
ROOT
HETATM    1  N   UNK N   1      27.090  18.679   6.745  0.00  0.00    -0.332 N 
HETATM    2  H   UNK N   1      26.339  18.227   7.193  0.00  0.00     0.168 HD
ENDROOT
BRANCH   1   3
HETATM    3  C   UNK N   1      28.423  18.377   7.135  0.00  0.00     0.034 A 
HETATM    4  C   UNK N   1      28.878  18.694   8.422  0.00  0.00     0.031 A 
HETATM    5  C   UNK N   1      30.125  18.216   8.861  0.00  0.00     0.027 A 
HETATM    6  C   UNK N   1      30.924  17.440   8.004  0.00  0.00     0.079 A 
HETATM    7  C   UNK N   1      30.463  17.162   6.705  0.00  0.00     0.027 A 
HETATM    8  C   UNK N   1      29.234  17.630   6.277  0.00  0.00     0.031 A 
BRANCH   6   9
HETATM    9  S   UNK N   1      32.418  16.615   8.630  0.00  0.00     0.256 S 
HETATM   10  O   UNK N   1      32.747  18.107   8.460  0.00  0.00    -0.201 OA
HETATM   11  O   UNK N   1      33.009  16.274   7.254  0.00  0.00    -0.201 OA
BRANCH   9  12
HETATM   12  N   UNK N   1      33.989  16.843   9.398  0.00  0.00    -0.324 N 
HETATM   13  H   UNK N   1      34.872  16.873   8.888  0.00  0.00     0.169 HD
HETATM   14  H   UNK N   1      34.016  16.953  10.412  0.00  0.00     0.169 HD
ENDBRANCH   9  12
ENDBRANCH   6   9
ENDBRANCH   1   3
BRANCH   1  15
HETATM   15  C   UNK N   1      26.825  19.636   5.707  0.00  0.00     0.187 C 
HETATM   16  S   UNK N   1      27.291  21.001   5.839  0.00  0.00    -0.040 SA
BRANCH  15  17
HETATM   17  N   UNK N   1      26.180  19.217   4.508  0.00  0.00    -0.295 N 
HETATM   18  H   UNK N   1      26.720  18.867   3.761  0.00  0.00     0.183 HD
BRANCH  17  19
HETATM   19  N   UNK N   1      24.790  19.297   4.379  0.00  0.00    -0.226 NA
HETATM   20  C   UNK N   1      24.474  20.214   3.287  0.00  0.00     0.144 C 
HETATM   21  C   UNK N   1      22.965  20.185   2.970  0.00  0.00     0.288 C 
HETATM   22  N   UNK N   1      22.237  19.336   3.917  0.00  0.00     0.086 N 
HETATM   23  C   UNK N   1      20.856  19.268   3.477  0.00  0.00     0.310 C 
HETATM   24  C   UNK N   1      22.770  17.974   3.875  0.00  0.00     0.288 C 
HETATM   25  C   UNK N   1      24.295  17.962   4.030  0.00  0.00     0.144 C 
ENDBRANCH  17  19
ENDBRANCH  15  17
ENDBRANCH   1  15
TORSDOF 6
ENDMDL
MODEL 7
REMARK VINA RESULT:      -5.5      5.472      9.613
REMARK  6 active torsions:
REMARK  status: ('A' for Active; 'I' for Inactive)
REMARK    1  A    between atoms: C_1  and  S_18 
REMARK    2  A    between atoms: C_4  and  N_7 
REMARK    3  A    between atoms: N_7  and  C_8 
REMARK    4  A    between atoms: C_8  and  N_10 
REMARK    5  A    between atoms: N_10  and  N_11 
REMARK    6  A    between atoms: S_18  and  N_19 
ROOT
HETATM    1  N   UNK N   1      33.070  15.142  10.556  0.00  0.00    -0.332 N 
HETATM    2  H   UNK N   1      32.309  15.064  11.176  0.00  0.00     0.168 HD
ENDROOT
BRANCH   1   3
HETATM    3  C   UNK N   1      32.831  15.440   9.187  0.00  0.00     0.034 A 
HETATM    4  C   UNK N   1      32.713  14.410   8.243  0.00  0.00     0.031 A 
HETATM    5  C   UNK N   1      32.282  14.702   6.937  0.00  0.00     0.027 A 
HETATM    6  C   UNK N   1      31.990  16.028   6.572  0.00  0.00     0.079 A 
HETATM    7  C   UNK N   1      32.146  17.050   7.524  0.00  0.00     0.027 A 
HETATM    8  C   UNK N   1      32.567  16.758   8.810  0.00  0.00     0.031 A 
BRANCH   6   9
HETATM    9  S   UNK N   1      31.205  16.392   4.974  0.00  0.00     0.256 S 
HETATM   10  O   UNK N   1      32.331  17.418   5.183  0.00  0.00    -0.201 OA
HETATM   11  O   UNK N   1      30.148  17.362   5.524  0.00  0.00    -0.201 OA
BRANCH   9  12
HETATM   12  N   UNK N   1      31.370  17.235   3.434  0.00  0.00    -0.324 N 
HETATM   13  H   UNK N   1      30.659  17.226   2.701  0.00  0.00     0.169 HD
HETATM   14  H   UNK N   1      32.226  17.763   3.265  0.00  0.00     0.169 HD
ENDBRANCH   9  12
ENDBRANCH   6   9
ENDBRANCH   1   3
BRANCH   1  15
HETATM   15  C   UNK N   1      34.407  14.951  11.045  0.00  0.00     0.187 C 
HETATM   16  S   UNK N   1      35.350  16.050  11.036  0.00  0.00    -0.040 SA
BRANCH  15  17
HETATM   17  N   UNK N   1      34.775  13.702  11.624  0.00  0.00    -0.295 N 
HETATM   18  H   UNK N   1      35.030  12.951  11.039  0.00  0.00     0.183 HD
BRANCH  17  19
HETATM   19  N   UNK N   1      34.778  13.531  13.012  0.00  0.00    -0.226 NA
HETATM   20  C   UNK N   1      34.564  12.117  13.309  0.00  0.00     0.144 C 
HETATM   21  C   UNK N   1      34.758  11.841  14.814  0.00  0.00     0.288 C 
HETATM   22  N   UNK N   1      34.993  13.081  15.559  0.00  0.00     0.086 N 
HETATM   23  C   UNK N   1      35.285  12.722  16.933  0.00  0.00     0.310 C 
HETATM   24  C   UNK N   1      36.177  13.761  15.031  0.00  0.00     0.288 C 
HETATM   25  C   UNK N   1      36.102  13.920  13.508  0.00  0.00     0.144 C 
ENDBRANCH  17  19
ENDBRANCH  15  17
ENDBRANCH   1  15
TORSDOF 6
ENDMDL
MODEL 8
REMARK VINA RESULT:      -5.5      4.596      6.269
REMARK  6 active torsions:
REMARK  status: ('A' for Active; 'I' for Inactive)
REMARK    1  A    between atoms: C_1  and  S_18 
REMARK    2  A    between atoms: C_4  and  N_7 
REMARK    3  A    between atoms: N_7  and  C_8 
REMARK    4  A    between atoms: C_8  and  N_10 
REMARK    5  A    between atoms: N_10  and  N_11 
REMARK    6  A    between atoms: S_18  and  N_19 
ROOT
HETATM    1  N   UNK N   1      34.658  16.010   8.780  0.00  0.00    -0.332 N 
HETATM    2  H   UNK N   1      35.152  15.676   7.997  0.00  0.00     0.168 HD
ENDROOT
BRANCH   1   3
HETATM    3  C   UNK N   1      34.883  15.421  10.054  0.00  0.00     0.034 A 
HETATM    4  C   UNK N   1      34.482  14.102  10.311  0.00  0.00     0.031 A 
HETATM    5  C   UNK N   1      34.883  13.466  11.498  0.00  0.00     0.027 A 
HETATM    6  C   UNK N   1      35.668  14.158  12.437  0.00  0.00     0.079 A 
HETATM    7  C   UNK N   1      36.031  15.491  12.176  0.00  0.00     0.027 A 
HETATM    8  C   UNK N   1      35.638  16.113  11.004  0.00  0.00     0.031 A 
BRANCH   6   9
HETATM    9  S   UNK N   1      36.395  13.283  13.854  0.00  0.00     0.256 S 
HETATM   10  O   UNK N   1      34.884  13.408  14.112  0.00  0.00    -0.201 OA
HETATM   11  O   UNK N   1      36.694  14.537  14.690  0.00  0.00    -0.201 OA
BRANCH   9  12
HETATM   12  N   UNK N   1      36.067  12.265  15.257  0.00  0.00    -0.324 N 
HETATM   13  H   UNK N   1      36.631  12.269  16.107  0.00  0.00     0.169 HD
HETATM   14  H   UNK N   1      35.265  11.636  15.215  0.00  0.00     0.169 HD
ENDBRANCH   9  12
ENDBRANCH   6   9
ENDBRANCH   1   3
BRANCH   1  15
HETATM   15  C   UNK N   1      33.719  17.086   8.622  0.00  0.00     0.187 C 
HETATM   16  S   UNK N   1      34.126  18.319   7.981  0.00  0.00    -0.040 SA
BRANCH  15  17
HETATM   17  N   UNK N   1      32.362  16.902   9.015  0.00  0.00    -0.295 N 
HETATM   18  H   UNK N   1      32.159  16.475   9.880  0.00  0.00     0.183 HD
BRANCH  17  19
HETATM   19  N   UNK N   1      31.316  17.321   8.187  0.00  0.00    -0.226 NA
HETATM   20  C   UNK N   1      30.988  16.237   7.264  0.00  0.00     0.144 C 
HETATM   21  C   UNK N   1      29.712  16.569   6.464  0.00  0.00     0.288 C 
HETATM   22  N   UNK N   1      29.234  17.923   6.759  0.00  0.00     0.086 N 
HETATM   23  C   UNK N   1      27.974  18.108   6.065  0.00  0.00     0.310 C 
HETATM   24  C   UNK N   1      28.960  18.053   8.191  0.00  0.00     0.288 C 
HETATM   25  C   UNK N   1      30.150  17.584   9.036  0.00  0.00     0.144 C 
ENDBRANCH  17  19
ENDBRANCH  15  17
ENDBRANCH   1  15
TORSDOF 6
ENDMDL
MODEL 9
REMARK VINA RESULT:      -5.5      4.015      8.530
REMARK  6 active torsions:
REMARK  status: ('A' for Active; 'I' for Inactive)
REMARK    1  A    between atoms: C_1  and  S_18 
REMARK    2  A    between atoms: C_4  and  N_7 
REMARK    3  A    between atoms: N_7  and  C_8 
REMARK    4  A    between atoms: C_8  and  N_10 
REMARK    5  A    between atoms: N_10  and  N_11 
REMARK    6  A    between atoms: S_18  and  N_19 
ROOT
HETATM    1  N   UNK N   1      32.516  16.557   9.018  0.00  0.00    -0.332 N 
HETATM    2  H   UNK N   1      32.367  15.734   9.537  0.00  0.00     0.168 HD
ENDROOT
BRANCH   1   3
HETATM    3  C   UNK N   1      31.461  17.090   8.229  0.00  0.00     0.034 A 
HETATM    4  C   UNK N   1      31.245  16.632   6.922  0.00  0.00     0.031 A 
HETATM    5  C   UNK N   1      30.086  17.019   6.227  0.00  0.00     0.027 A 
HETATM    6  C   UNK N   1      29.156  17.881   6.832  0.00  0.00     0.079 A 
HETATM    7  C   UNK N   1      29.408  18.356   8.132  0.00  0.00     0.027 A 
HETATM    8  C   UNK N   1      30.547  17.970   8.815  0.00  0.00     0.031 A 
BRANCH   6   9
HETATM    9  S   UNK N   1      27.546  18.196   6.050  0.00  0.00     0.256 S 
HETATM   10  O   UNK N   1      28.638  18.583   5.039  0.00  0.00    -0.201 OA
HETATM   11  O   UNK N   1      27.406  19.647   6.534  0.00  0.00    -0.201 OA
BRANCH   9  12
HETATM   12  N   UNK N   1      26.702  18.481   4.528  0.00  0.00    -0.324 N 
HETATM   13  H   UNK N   1      26.716  17.834   3.740  0.00  0.00     0.169 HD
HETATM   14  H   UNK N   1      26.167  19.345   4.431  0.00  0.00     0.169 HD
ENDBRANCH   9  12
ENDBRANCH   6   9
ENDBRANCH   1   3
BRANCH   1  15
HETATM   15  C   UNK N   1      33.799  17.202   9.065  0.00  0.00     0.187 C 
HETATM   16  S   UNK N   1      34.171  18.160   8.044  0.00  0.00    -0.040 SA
BRANCH  15  17
HETATM   17  N   UNK N   1      34.669  16.964  10.168  0.00  0.00    -0.295 N 
HETATM   18  H   UNK N   1      35.078  17.726  10.639  0.00  0.00     0.183 HD
BRANCH  17  19
HETATM   19  N   UNK N   1      34.947  15.660  10.588  0.00  0.00    -0.226 NA
HETATM   20  C   UNK N   1      35.721  14.988   9.547  0.00  0.00     0.144 C 
HETATM   21  C   UNK N   1      36.227  13.617  10.041  0.00  0.00     0.288 C 
HETATM   22  N   UNK N   1      35.704  13.305  11.374  0.00  0.00     0.086 N 
HETATM   23  C   UNK N   1      36.321  12.066  11.811  0.00  0.00     0.310 C 
HETATM   24  C   UNK N   1      36.108  14.344  12.322  0.00  0.00     0.288 C 
HETATM   25  C   UNK N   1      35.766  15.745  11.801  0.00  0.00     0.144 C 
ENDBRANCH  17  19
ENDBRANCH  15  17
ENDBRANCH   1  15
TORSDOF 6
ENDMDL
