MODEL 1
REMARK VINA RESULT:      -6.1      0.000      0.000
REMARK  6 active torsions:
REMARK  status: ('A' for Active; 'I' for Inactive)
REMARK    1  A    between atoms: C_1  and  C_2 
REMARK    2  A    between atoms: C_1  and  C_5 
REMARK    3  A    between atoms: C_1  and  N_12 
REMARK    4  A    between atoms: C_2  and  O_3 
REMARK    5  A    between atoms: C_5  and  O_6 
REMARK       I    between atoms: N_13  and  C_16 
REMARK    6  A    between atoms: N_14  and  C_17 
ROOT
HETATM    1  N   UNK N   1      21.039  19.803   2.619  0.00  0.00    -0.191 N 
ATOM      2  HN  UNK N   1      21.422  20.700   2.915  1.00  0.00     0.184 HD
HETATM    3  N   UNK N   1      20.087  18.460   0.930  0.00  0.00    -0.176 N 
ATOM      4  HN  UNK N   1      19.765  18.362  -0.033  1.00  0.00     0.186 HD
HETATM    5  N   UNK N   1      20.677  15.565   6.057  0.00  0.00    -0.347 N 
HETATM    6  N   UNK N   1      20.666  20.733   0.444  0.00  0.00    -0.234 N 
HETATM    7  C   UNK N   1      20.979  18.776   3.505  0.00  0.00     0.064 A 
HETATM    8  C   UNK N   1      20.596  19.651   1.343  0.00  0.00     0.677 A 
HETATM    9  C   UNK N   1      19.999  17.397   1.771  0.00  0.00     0.128 A 
HETATM   10  C   UNK N   1      20.444  17.528   3.099  0.00  0.00     0.048 A 
HETATM   11  C   UNK N   1      20.389  16.499   4.056  0.00  0.00     0.008 A 
HETATM   12  C   UNK N   1      19.913  15.205   3.969  0.00  0.00     0.032 A 
HETATM   13  C   UNK N   1      20.104  14.650   5.234  0.00  0.00     0.093 A 
HETATM   14  C   UNK N   1      20.847  16.686   5.332  0.00  0.00     0.046 A 
HETATM   15  C   UNK N   1      21.389  17.902   5.752  0.00  0.00     0.033 A 
HETATM   16  C   UNK N   1      21.449  18.956   4.824  0.00  0.00     0.033 A 
HETATM   17  H   UNK N   1      20.420  20.605  -0.500  0.00  0.00     0.174 HD
HETATM   18  H   UNK N   1      20.960  21.618   0.761  0.00  0.00     0.174 HD
ENDROOT
BRANCH   5  19
HETATM   19  C   UNK N   1      21.057  15.350   7.464  0.00  0.00     0.137 C 
BRANCH  19  20
HETATM   20  C   UNK N   1      21.278  13.857   7.746  0.00  0.00     0.194 C 
BRANCH  20  21
HETATM   21  O   UNK N   1      20.495  13.413   8.811  0.00  0.00    -0.394 OA
HETATM   22  C   UNK N   1      21.392  12.731   9.633  0.00  0.00     0.201 C 
ENDBRANCH  20  21
ENDBRANCH  19  20
BRANCH  19  23
HETATM   23  C   UNK N   1      20.000  15.919   8.411  0.00  0.00     0.194 C 
BRANCH  23  24
HETATM   24  O   UNK N   1      20.458  17.102   8.999  0.00  0.00    -0.394 OA
HETATM   25  C   UNK N   1      19.344  17.941   9.044  0.00  0.00     0.201 C 
ENDBRANCH  23  24
ENDBRANCH  19  23
ENDBRANCH   5  19
BRANCH   9  26
HETATM   26  N   UNK N   1      19.467  16.181   1.293  0.00  0.00    -0.384 N 
HETATM   27  H   UNK N   1      18.495  16.025   1.308  0.00  0.00     0.157 HD
HETATM   28  H   UNK N   1      20.070  15.486   0.941  0.00  0.00     0.157 HD
ENDBRANCH   9  26
TORSDOF 6
ENDMDL
MODEL 2
REMARK VINA RESULT:      -6.0     10.049     10.981
REMARK  6 active torsions:
REMARK  status: ('A' for Active; 'I' for Inactive)
REMARK    1  A    between atoms: C_1  and  C_2 
REMARK    2  A    between atoms: C_1  and  C_5 
REMARK    3  A    between atoms: C_1  and  N_12 
REMARK    4  A    between atoms: C_2  and  O_3 
REMARK    5  A    between atoms: C_5  and  O_6 
REMARK       I    between atoms: N_13  and  C_16 
REMARK    6  A    between atoms: N_14  and  C_17 
ROOT
HETATM    1  N   UNK N   1      28.157  18.876   4.522  0.00  0.00    -0.191 N 
ATOM      2  HN  UNK N   1      28.219  18.945   3.507  1.00  0.00     0.184 HD
HETATM    3  N   UNK N   1      27.004  19.359   6.522  0.00  0.00    -0.176 N 
ATOM      4  HN  UNK N   1      26.206  19.788   6.991  1.00  0.00     0.186 HD
HETATM    5  N   UNK N   1      31.976  16.291   7.461  0.00  0.00    -0.347 N 
HETATM    6  N   UNK N   1      26.117  20.130   4.435  0.00  0.00    -0.234 N 
HETATM    7  C   UNK N   1      29.123  18.215   5.209  0.00  0.00     0.064 A 
HETATM    8  C   UNK N   1      27.106  19.446   5.169  0.00  0.00     0.677 A 
HETATM    9  C   UNK N   1      27.941  18.713   7.263  0.00  0.00     0.128 A 
HETATM   10  C   UNK N   1      29.042  18.120   6.620  0.00  0.00     0.048 A 
HETATM   11  C   UNK N   1      30.074  17.438   7.288  0.00  0.00     0.008 A 
HETATM   12  C   UNK N   1      30.282  17.200   8.634  0.00  0.00     0.032 A 
HETATM   13  C   UNK N   1      31.476  16.486   8.708  0.00  0.00     0.093 A 
HETATM   14  C   UNK N   1      31.117  16.873   6.604  0.00  0.00     0.046 A 
HETATM   15  C   UNK N   1      31.212  16.943   5.213  0.00  0.00     0.033 A 
HETATM   16  C   UNK N   1      30.203  17.628   4.514  0.00  0.00     0.033 A 
HETATM   17  H   UNK N   1      25.317  20.475   4.890  0.00  0.00     0.174 HD
HETATM   18  H   UNK N   1      26.229  20.262   3.465  0.00  0.00     0.174 HD
ENDROOT
BRANCH   5  19
HETATM   19  C   UNK N   1      33.209  15.559   7.124  0.00  0.00     0.137 C 
BRANCH  19  20
HETATM   20  C   UNK N   1      33.173  14.137   7.700  0.00  0.00     0.194 C 
BRANCH  20  21
HETATM   21  O   UNK N   1      32.442  13.271   6.886  0.00  0.00    -0.394 OA
HETATM   22  C   UNK N   1      33.364  12.837   5.934  0.00  0.00     0.201 C 
ENDBRANCH  20  21
ENDBRANCH  19  20
BRANCH  19  23
HETATM   23  C   UNK N   1      34.445  16.306   7.628  0.00  0.00     0.194 C 
BRANCH  23  24
HETATM   24  O   UNK N   1      34.523  17.573   7.043  0.00  0.00    -0.394 OA
HETATM   25  C   UNK N   1      34.578  18.465   8.114  0.00  0.00     0.201 C 
ENDBRANCH  23  24
ENDBRANCH  19  23
ENDBRANCH   5  19
BRANCH   9  26
HETATM   26  N   UNK N   1      27.787  18.647   8.664  0.00  0.00    -0.384 N 
HETATM   27  H   UNK N   1      27.319  17.886   9.077  0.00  0.00     0.157 HD
HETATM   28  H   UNK N   1      28.150  19.365   9.233  0.00  0.00     0.157 HD
ENDBRANCH   9  26
TORSDOF 6
ENDMDL
MODEL 3
REMARK VINA RESULT:      -5.9     13.921     16.093
REMARK  6 active torsions:
REMARK  status: ('A' for Active; 'I' for Inactive)
REMARK    1  A    between atoms: C_1  and  C_2 
REMARK    2  A    between atoms: C_1  and  C_5 
REMARK    3  A    between atoms: C_1  and  N_12 
REMARK    4  A    between atoms: C_2  and  O_3 
REMARK    5  A    between atoms: C_5  and  O_6 
REMARK       I    between atoms: N_13  and  C_16 
REMARK    6  A    between atoms: N_14  and  C_17 
ROOT
HETATM    1  N   UNK N   1      36.414  14.952  12.984  0.00  0.00    -0.191 N 
ATOM      2  HN  UNK N   1      36.950  15.718  13.392  1.00  0.00     0.184 HD
HETATM    3  N   UNK N   1      35.704  12.705  13.066  0.00  0.00    -0.176 N 
ATOM      4  HN  UNK N   1      35.712  11.801  13.539  1.00  0.00     0.186 HD
HETATM    5  N   UNK N   1      33.547  15.589   8.371  0.00  0.00    -0.347 N 
HETATM    6  N   UNK N   1      37.159  13.544  14.774  0.00  0.00    -0.234 N 
HETATM    7  C   UNK N   1      35.709  15.160  11.843  0.00  0.00     0.064 A 
HETATM    8  C   UNK N   1      36.416  13.737  13.592  0.00  0.00     0.677 A 
HETATM    9  C   UNK N   1      34.981  12.852  11.926  0.00  0.00     0.128 A 
HETATM   10  C   UNK N   1      34.967  14.097  11.272  0.00  0.00     0.048 A 
HETATM   11  C   UNK N   1      34.264  14.357  10.083  0.00  0.00     0.008 A 
HETATM   12  C   UNK N   1      33.482  13.535   9.293  0.00  0.00     0.032 A 
HETATM   13  C   UNK N   1      33.053  14.333   8.233  0.00  0.00     0.093 A 
HETATM   14  C   UNK N   1      34.282  15.595   9.499  0.00  0.00     0.046 A 
HETATM   15  C   UNK N   1      34.995  16.661  10.049  0.00  0.00     0.033 A 
HETATM   16  C   UNK N   1      35.719  16.433  11.232  0.00  0.00     0.033 A 
HETATM   17  H   UNK N   1      37.100  12.690  15.259  0.00  0.00     0.174 HD
HETATM   18  H   UNK N   1      37.738  14.265  15.113  0.00  0.00     0.174 HD
ENDROOT
BRANCH   5  19
HETATM   19  C   UNK N   1      33.298  16.725   7.467  0.00  0.00     0.137 C 
BRANCH  19  20
HETATM   20  C   UNK N   1      31.814  17.117   7.482  0.00  0.00     0.194 C 
BRANCH  20  21
HETATM   21  O   UNK N   1      31.502  17.914   8.583  0.00  0.00    -0.394 OA
HETATM   22  C   UNK N   1      30.117  17.809   8.701  0.00  0.00     0.201 C 
ENDBRANCH  20  21
ENDBRANCH  19  20
BRANCH  19  23
HETATM   23  C   UNK N   1      33.748  16.400   6.042  0.00  0.00     0.194 C 
BRANCH  23  24
HETATM   24  O   UNK N   1      35.112  16.092   6.019  0.00  0.00    -0.394 OA
HETATM   25  C   UNK N   1      35.205  14.911   5.281  0.00  0.00     0.201 C 
ENDBRANCH  23  24
ENDBRANCH  19  23
ENDBRANCH   5  19
BRANCH   9  26
HETATM   26  N   UNK N   1      34.255  11.751  11.423  0.00  0.00    -0.384 N 
HETATM   27  H   UNK N   1      33.383  11.512  11.813  0.00  0.00     0.157 HD
HETATM   28  H   UNK N   1      34.621  11.220  10.679  0.00  0.00     0.157 HD
ENDBRANCH   9  26
TORSDOF 6
ENDMDL
MODEL 4
REMARK VINA RESULT:      -5.8     10.237     11.238
REMARK  6 active torsions:
REMARK  status: ('A' for Active; 'I' for Inactive)
REMARK    1  A    between atoms: C_1  and  C_2 
REMARK    2  A    between atoms: C_1  and  C_5 
REMARK    3  A    between atoms: C_1  and  N_12 
REMARK    4  A    between atoms: C_2  and  O_3 
REMARK    5  A    between atoms: C_5  and  O_6 
REMARK       I    between atoms: N_13  and  C_16 
REMARK    6  A    between atoms: N_14  and  C_17 
ROOT
HETATM    1  N   UNK N   1      27.556  19.204   7.291  0.00  0.00    -0.191 N 
ATOM      2  HN  UNK N   1      27.091  19.623   8.096  1.00  0.00     0.184 HD
HETATM    3  N   UNK N   1      27.656  18.853   4.961  0.00  0.00    -0.176 N 
ATOM      4  HN  UNK N   1      27.263  19.015   4.034  1.00  0.00     0.186 HD
HETATM    5  N   UNK N   1      32.056  16.145   7.847  0.00  0.00    -0.347 N 
HETATM    6  N   UNK N   1      25.879  20.171   5.880  0.00  0.00    -0.234 N 
HETATM    7  C   UNK N   1      28.677  18.461   7.477  0.00  0.00     0.064 A 
HETATM    8  C   UNK N   1      27.046  19.399   6.047  0.00  0.00     0.677 A 
HETATM    9  C   UNK N   1      28.778  18.098   5.085  0.00  0.00     0.128 A 
HETATM   10  C   UNK N   1      29.324  17.875   6.362  0.00  0.00     0.048 A 
HETATM   11  C   UNK N   1      30.473  17.102   6.605  0.00  0.00     0.008 A 
HETATM   12  C   UNK N   1      31.295  16.402   5.743  0.00  0.00     0.032 A 
HETATM   13  C   UNK N   1      32.270  15.815   6.549  0.00  0.00     0.093 A 
HETATM   14  C   UNK N   1      30.962  16.929   7.872  0.00  0.00     0.046 A 
HETATM   15  C   UNK N   1      30.349  17.507   8.985  0.00  0.00     0.033 A 
HETATM   16  C   UNK N   1      29.191  18.276   8.779  0.00  0.00     0.033 A 
HETATM   17  H   UNK N   1      25.552  20.380   4.976  0.00  0.00     0.174 HD
HETATM   18  H   UNK N   1      25.391  20.502   6.670  0.00  0.00     0.174 HD
ENDROOT
BRANCH   5  19
HETATM   19  C   UNK N   1      32.885  15.739   8.995  0.00  0.00     0.137 C 
BRANCH  19  20
HETATM   20  C   UNK N   1      34.322  16.255   8.838  0.00  0.00     0.194 C 
BRANCH  20  21
HETATM   21  O   UNK N   1      34.481  17.519   9.407  0.00  0.00    -0.394 OA
HETATM   22  C   UNK N   1      34.562  18.379   8.313  0.00  0.00     0.201 C 
ENDBRANCH  20  21
ENDBRANCH  19  20
BRANCH  19  23
HETATM   23  C   UNK N   1      32.880  14.219   9.164  0.00  0.00     0.194 C 
BRANCH  23  24
HETATM   24  O   UNK N   1      34.188  13.735   9.258  0.00  0.00    -0.394 OA
HETATM   25  C   UNK N   1      34.053  12.357   9.433  0.00  0.00     0.201 C 
ENDBRANCH  23  24
ENDBRANCH  19  23
ENDBRANCH   5  19
BRANCH   9  26
HETATM   26  N   UNK N   1      29.376  17.558   3.927  0.00  0.00    -0.384 N 
HETATM   27  H   UNK N   1      29.248  16.608   3.699  0.00  0.00     0.157 HD
HETATM   28  H   UNK N   1      29.923  18.132   3.343  0.00  0.00     0.157 HD
ENDBRANCH   9  26
TORSDOF 6
ENDMDL
MODEL 5
REMARK VINA RESULT:      -5.8      9.993     11.433
REMARK  6 active torsions:
REMARK  status: ('A' for Active; 'I' for Inactive)
REMARK    1  A    between atoms: C_1  and  C_2 
REMARK    2  A    between atoms: C_1  and  C_5 
REMARK    3  A    between atoms: C_1  and  N_12 
REMARK    4  A    between atoms: C_2  and  O_3 
REMARK    5  A    between atoms: C_5  and  O_6 
REMARK       I    between atoms: N_13  and  C_16 
REMARK    6  A    between atoms: N_14  and  C_17 
ROOT
HETATM    1  N   UNK N   1      32.590  17.505   9.122  0.00  0.00    -0.191 N 
ATOM      2  HN  UNK N   1      32.295  17.756  10.066  1.00  0.00     0.184 HD
HETATM    3  N   UNK N   1      34.308  16.882   7.631  0.00  0.00    -0.176 N 
ATOM      4  HN  UNK N   1      35.292  16.667   7.470  1.00  0.00     0.186 HD
HETATM    5  N   UNK N   1      29.041  17.304   4.966  0.00  0.00    -0.347 N 
HETATM    6  N   UNK N   1      34.833  17.283   9.934  0.00  0.00    -0.234 N 
HETATM    7  C   UNK N   1      31.671  17.458   8.124  0.00  0.00     0.064 A 
HETATM    8  C   UNK N   1      33.897  17.223   8.882  0.00  0.00     0.677 A 
HETATM    9  C   UNK N   1      33.435  16.821   6.592  0.00  0.00     0.128 A 
HETATM   10  C   UNK N   1      32.077  17.114   6.811  0.00  0.00     0.048 A 
HETATM   11  C   UNK N   1      31.093  17.093   5.808  0.00  0.00     0.008 A 
HETATM   12  C   UNK N   1      31.181  16.820   4.456  0.00  0.00     0.032 A 
HETATM   13  C   UNK N   1      29.886  16.963   3.960  0.00  0.00     0.093 A 
HETATM   14  C   UNK N   1      29.783  17.380   6.086  0.00  0.00     0.046 A 
HETATM   15  C   UNK N   1      29.357  17.709   7.374  0.00  0.00     0.033 A 
HETATM   16  C   UNK N   1      30.318  17.752   8.399  0.00  0.00     0.033 A 
HETATM   17  H   UNK N   1      35.764  17.003   9.782  0.00  0.00     0.174 HD
HETATM   18  H   UNK N   1      34.554  17.605  10.822  0.00  0.00     0.174 HD
ENDROOT
BRANCH   5  19
HETATM   19  C   UNK N   1      27.589  17.520   4.846  0.00  0.00     0.137 C 
BRANCH  19  20
HETATM   20  C   UNK N   1      26.907  16.299   4.214  0.00  0.00     0.194 C 
BRANCH  20  21
HETATM   21  O   UNK N   1      26.495  16.557   2.907  0.00  0.00    -0.394 OA
HETATM   22  C   UNK N   1      26.890  15.426   2.194  0.00  0.00     0.201 C 
ENDBRANCH  20  21
ENDBRANCH  19  20
BRANCH  19  23
HETATM   23  C   UNK N   1      27.288  18.778   4.030  0.00  0.00     0.194 C 
BRANCH  23  24
HETATM   24  O   UNK N   1      27.983  19.875   4.549  0.00  0.00    -0.394 OA
HETATM   25  C   UNK N   1      27.043  20.572   5.310  0.00  0.00     0.201 C 
ENDBRANCH  23  24
ENDBRANCH  19  23
ENDBRANCH   5  19
BRANCH   9  26
HETATM   26  N   UNK N   1      33.910  16.458   5.314  0.00  0.00    -0.384 N 
HETATM   27  H   UNK N   1      33.699  17.014   4.529  0.00  0.00     0.157 HD
HETATM   28  H   UNK N   1      34.456  15.645   5.206  0.00  0.00     0.157 HD
ENDBRANCH   9  26
TORSDOF 6
ENDMDL
MODEL 6
REMARK VINA RESULT:      -5.8      8.784     10.499
REMARK  6 active torsions:
REMARK  status: ('A' for Active; 'I' for Inactive)
REMARK    1  A    between atoms: C_1  and  C_2 
REMARK    2  A    between atoms: C_1  and  C_5 
REMARK    3  A    between atoms: C_1  and  N_12 
REMARK    4  A    between atoms: C_2  and  O_3 
REMARK    5  A    between atoms: C_5  and  O_6 
REMARK       I    between atoms: N_13  and  C_16 
REMARK    6  A    between atoms: N_14  and  C_17 
ROOT
HETATM    1  N   UNK N   1      31.679  17.266   9.096  0.00  0.00    -0.191 N 
ATOM      2  HN  UNK N   1      31.611  17.616  10.052  1.00  0.00     0.184 HD
HETATM    3  N   UNK N   1      32.860  16.037   7.466  0.00  0.00    -0.176 N 
ATOM      4  HN  UNK N   1      33.671  15.472   7.213  1.00  0.00     0.186 HD
HETATM    5  N   UNK N   1      27.841  18.357   5.356  0.00  0.00    -0.347 N 
HETATM    6  N   UNK N   1      33.763  16.235   9.676  0.00  0.00    -0.234 N 
HETATM    7  C   UNK N   1      30.696  17.553   8.205  0.00  0.00     0.064 A 
HETATM    8  C   UNK N   1      32.754  16.517   8.734  0.00  0.00     0.677 A 
HETATM    9  C   UNK N   1      31.910  16.294   6.529  0.00  0.00     0.128 A 
HETATM   10  C   UNK N   1      30.791  17.072   6.876  0.00  0.00     0.048 A 
HETATM   11  C   UNK N   1      29.756  17.408   5.985  0.00  0.00     0.008 A 
HETATM   12  C   UNK N   1      29.578  17.110   4.647  0.00  0.00     0.032 A 
HETATM   13  C   UNK N   1      28.377  17.718   4.285  0.00  0.00     0.093 A 
HETATM   14  C   UNK N   1      28.686  18.162   6.386  0.00  0.00     0.046 A 
HETATM   15  C   UNK N   1      28.565  18.637   7.693  0.00  0.00     0.033 A 
HETATM   16  C   UNK N   1      29.588  18.330   8.607  0.00  0.00     0.033 A 
HETATM   17  H   UNK N   1      34.501  15.629   9.440  0.00  0.00     0.174 HD
HETATM   18  H   UNK N   1      33.728  16.645  10.571  0.00  0.00     0.174 HD
ENDROOT
BRANCH   5  19
HETATM   19  C   UNK N   1      26.567  19.095   5.379  0.00  0.00     0.137 C 
BRANCH  19  20
HETATM   20  C   UNK N   1      25.471  18.311   4.645  0.00  0.00     0.194 C 
BRANCH  20  21
HETATM   21  O   UNK N   1      24.464  19.152   4.173  0.00  0.00    -0.394 OA
HETATM   22  C   UNK N   1      23.282  18.477   4.478  0.00  0.00     0.201 C 
ENDBRANCH  20  21
ENDBRANCH  19  20
BRANCH  19  23
HETATM   23  C   UNK N   1      26.728  20.486   4.765  0.00  0.00     0.194 C 
BRANCH  23  24
HETATM   24  O   UNK N   1      27.344  21.352   5.673  0.00  0.00    -0.394 OA
HETATM   25  C   UNK N   1      26.424  21.504   6.712  0.00  0.00     0.201 C 
ENDBRANCH  23  24
ENDBRANCH  19  23
ENDBRANCH   5  19
BRANCH   9  26
HETATM   26  N   UNK N   1      32.065  15.770   5.229  0.00  0.00    -0.384 N 
HETATM   27  H   UNK N   1      32.354  16.353   4.490  0.00  0.00     0.157 HD
HETATM   28  H   UNK N   1      31.884  14.817   5.059  0.00  0.00     0.157 HD
ENDBRANCH   9  26
TORSDOF 6
ENDMDL
MODEL 7
REMARK VINA RESULT:      -5.7     17.465     20.457
REMARK  6 active torsions:
REMARK  status: ('A' for Active; 'I' for Inactive)
REMARK    1  A    between atoms: C_1  and  C_2 
REMARK    2  A    between atoms: C_1  and  C_5 
REMARK    3  A    between atoms: C_1  and  N_12 
REMARK    4  A    between atoms: C_2  and  O_3 
REMARK    5  A    between atoms: C_5  and  O_6 
REMARK       I    between atoms: N_13  and  C_16 
REMARK    6  A    between atoms: N_14  and  C_17 
ROOT
HETATM    1  N   UNK N   1      34.924   9.936  19.390  0.00  0.00    -0.191 N 
ATOM      2  HN  UNK N   1      34.812   8.930  19.514  1.00  0.00     0.184 HD
HETATM    3  N   UNK N   1      34.989  12.101  20.323  0.00  0.00    -0.176 N 
ATOM      4  HN  UNK N   1      34.928  12.703  21.145  1.00  0.00     0.186 HD
HETATM    5  N   UNK N   1      35.818  12.138  14.464  0.00  0.00    -0.347 N 
HETATM    6  N   UNK N   1      34.594  10.215  21.746  0.00  0.00    -0.234 N 
HETATM    7  C   UNK N   1      35.155  10.436  18.149  0.00  0.00     0.064 A 
HETATM    8  C   UNK N   1      34.839  10.758  20.469  0.00  0.00     0.677 A 
HETATM    9  C   UNK N   1      35.219  12.660  19.107  0.00  0.00     0.128 A 
HETATM   10  C   UNK N   1      35.306  11.834  17.972  0.00  0.00     0.048 A 
HETATM   11  C   UNK N   1      35.529  12.306  16.666  0.00  0.00     0.008 A 
HETATM   12  C   UNK N   1      35.693  13.590  16.181  0.00  0.00     0.032 A 
HETATM   13  C   UNK N   1      35.868  13.450  14.805  0.00  0.00     0.093 A 
HETATM   14  C   UNK N   1      35.612  11.449  15.602  0.00  0.00     0.046 A 
HETATM   15  C   UNK N   1      35.479  10.068  15.753  0.00  0.00     0.033 A 
HETATM   16  C   UNK N   1      35.243   9.563  17.044  0.00  0.00     0.033 A 
HETATM   17  H   UNK N   1      34.610  10.797  22.539  0.00  0.00     0.174 HD
HETATM   18  H   UNK N   1      34.407   9.253  21.844  0.00  0.00     0.174 HD
ENDROOT
BRANCH   5  19
HETATM   19  C   UNK N   1      35.984  11.585  13.108  0.00  0.00     0.137 C 
BRANCH  19  20
HETATM   20  C   UNK N   1      37.381  11.904  12.559  0.00  0.00     0.194 C 
BRANCH  20  21
HETATM   21  O   UNK N   1      37.370  13.040  11.749  0.00  0.00    -0.394 OA
HETATM   22  C   UNK N   1      38.294  12.754  10.745  0.00  0.00     0.201 C 
ENDBRANCH  20  21
ENDBRANCH  19  20
BRANCH  19  23
HETATM   23  C   UNK N   1      34.906  12.118  12.163  0.00  0.00     0.194 C 
BRANCH  23  24
HETATM   24  O   UNK N   1      34.426  11.093  11.343  0.00  0.00    -0.394 OA
HETATM   25  C   UNK N   1      33.916  10.135  12.221  0.00  0.00     0.201 C 
ENDBRANCH  23  24
ENDBRANCH  19  23
ENDBRANCH   5  19
BRANCH   9  26
HETATM   26  N   UNK N   1      35.373  14.059  19.009  0.00  0.00    -0.384 N 
HETATM   27  H   UNK N   1      34.811  14.578  18.389  0.00  0.00     0.157 HD
HETATM   28  H   UNK N   1      36.044  14.520  19.563  0.00  0.00     0.157 HD
ENDBRANCH   9  26
TORSDOF 6
ENDMDL
MODEL 8
REMARK VINA RESULT:      -5.7      3.311      7.398
REMARK  6 active torsions:
REMARK  status: ('A' for Active; 'I' for Inactive)
REMARK    1  A    between atoms: C_1  and  C_2 
REMARK    2  A    between atoms: C_1  and  C_5 
REMARK    3  A    between atoms: C_1  and  N_12 
REMARK    4  A    between atoms: C_2  and  O_3 
REMARK    5  A    between atoms: C_5  and  O_6 
REMARK       I    between atoms: N_13  and  C_16 
REMARK    6  A    between atoms: N_14  and  C_17 
ROOT
HETATM    1  N   UNK N   1      21.480  12.961  10.803  0.00  0.00    -0.191 N 
ATOM      2  HN  UNK N   1      20.670  12.926  11.421  1.00  0.00     0.184 HD
HETATM    3  N   UNK N   1      23.662  12.239  10.275  0.00  0.00    -0.176 N 
ATOM      4  HN  UNK N   1      24.473  11.663  10.503  1.00  0.00     0.186 HD
HETATM    5  N   UNK N   1      21.560  16.142   6.355  0.00  0.00    -0.347 N 
HETATM    6  N   UNK N   1      22.583  11.393  12.239  0.00  0.00    -0.234 N 
HETATM    7  C   UNK N   1      21.450  13.758   9.704  0.00  0.00     0.064 A 
HETATM    8  C   UNK N   1      22.574  12.209  11.090  0.00  0.00     0.677 A 
HETATM    9  C   UNK N   1      23.692  13.019   9.163  0.00  0.00     0.128 A 
HETATM   10  C   UNK N   1      22.575  13.812   8.845  0.00  0.00     0.048 A 
HETATM   11  C   UNK N   1      22.502  14.662   7.728  0.00  0.00     0.008 A 
HETATM   12  C   UNK N   1      23.426  14.940   6.738  0.00  0.00     0.032 A 
HETATM   13  C   UNK N   1      22.809  15.867   5.900  0.00  0.00     0.093 A 
HETATM   14  C   UNK N   1      21.382  15.404   7.467  0.00  0.00     0.046 A 
HETATM   15  C   UNK N   1      20.257  15.358   8.291  0.00  0.00     0.033 A 
HETATM   16  C   UNK N   1      20.300  14.527   9.424  0.00  0.00     0.033 A 
HETATM   17  H   UNK N   1      23.341  10.788  12.408  0.00  0.00     0.174 HD
HETATM   18  H   UNK N   1      21.830  11.428  12.873  0.00  0.00     0.174 HD
ENDROOT
BRANCH   5  19
HETATM   19  C   UNK N   1      20.588  17.054   5.729  0.00  0.00     0.137 C 
BRANCH  19  20
HETATM   20  C   UNK N   1      19.806  16.337   4.620  0.00  0.00     0.194 C 
BRANCH  20  21
HETATM   21  O   UNK N   1      18.730  15.613   5.133  0.00  0.00    -0.394 OA
HETATM   22  C   UNK N   1      18.920  14.322   4.641  0.00  0.00     0.201 C 
ENDBRANCH  20  21
ENDBRANCH  19  20
BRANCH  19  23
HETATM   23  C   UNK N   1      21.282  18.297   5.171  0.00  0.00     0.194 C 
BRANCH  23  24
HETATM   24  O   UNK N   1      20.994  18.450   3.812  0.00  0.00    -0.394 OA
HETATM   25  C   UNK N   1      20.767  19.816   3.640  0.00  0.00     0.201 C 
ENDBRANCH  23  24
ENDBRANCH  19  23
ENDBRANCH   5  19
BRANCH   9  26
HETATM   26  N   UNK N   1      24.843  13.011   8.347  0.00  0.00    -0.384 N 
HETATM   27  H   UNK N   1      24.935  13.662   7.613  0.00  0.00     0.157 HD
HETATM   28  H   UNK N   1      25.557  12.354   8.511  0.00  0.00     0.157 HD
ENDBRANCH   9  26
TORSDOF 6
ENDMDL
MODEL 9
REMARK VINA RESULT:      -5.6     12.665     14.722
REMARK  6 active torsions:
REMARK  status: ('A' for Active; 'I' for Inactive)
REMARK    1  A    between atoms: C_1  and  C_2 
REMARK    2  A    between atoms: C_1  and  C_5 
REMARK    3  A    between atoms: C_1  and  N_12 
REMARK    4  A    between atoms: C_2  and  O_3 
REMARK    5  A    between atoms: C_5  and  O_6 
REMARK       I    between atoms: N_13  and  C_16 
REMARK    6  A    between atoms: N_14  and  C_17 
ROOT
HETATM    1  N   UNK N   1      34.197  13.195  10.564  0.00  0.00    -0.191 N 
ATOM      2  HN  UNK N   1      33.938  12.211  10.498  1.00  0.00     0.184 HD
HETATM    3  N   UNK N   1      35.273  14.936  11.736  0.00  0.00    -0.176 N 
ATOM      4  HN  UNK N   1      35.818  15.243  12.543  1.00  0.00     0.186 HD
HETATM    5  N   UNK N   1      32.734  16.811   6.730  0.00  0.00    -0.347 N 
HETATM    6  N   UNK N   1      35.290  12.718  12.641  0.00  0.00    -0.234 N 
HETATM    7  C   UNK N   1      33.820  14.054   9.582  0.00  0.00     0.064 A 
HETATM    8  C   UNK N   1      34.915  13.628  11.633  0.00  0.00     0.677 A 
HETATM    9  C   UNK N   1      34.924  15.843  10.787  0.00  0.00     0.128 A 
HETATM   10  C   UNK N   1      34.175  15.423   9.672  0.00  0.00     0.048 A 
HETATM   11  C   UNK N   1      33.750  16.276   8.639  0.00  0.00     0.008 A 
HETATM   12  C   UNK N   1      33.920  17.636   8.459  0.00  0.00     0.032 A 
HETATM   13  C   UNK N   1      33.273  17.938   7.261  0.00  0.00     0.093 A 
HETATM   14  C   UNK N   1      33.030  15.805   7.575  0.00  0.00     0.046 A 
HETATM   15  C   UNK N   1      32.680  14.459   7.458  0.00  0.00     0.033 A 
HETATM   16  C   UNK N   1      33.078  13.580   8.479  0.00  0.00     0.033 A 
HETATM   17  H   UNK N   1      35.876  13.011  13.376  0.00  0.00     0.174 HD
HETATM   18  H   UNK N   1      34.966  11.789  12.610  0.00  0.00     0.174 HD
ENDROOT
BRANCH   5  19
HETATM   19  C   UNK N   1      31.994  16.716   5.460  0.00  0.00     0.137 C 
BRANCH  19  20
HETATM   20  C   UNK N   1      32.675  17.554   4.370  0.00  0.00     0.194 C 
BRANCH  20  21
HETATM   21  O   UNK N   1      32.452  17.025   3.099  0.00  0.00    -0.394 OA
HETATM   22  C   UNK N   1      33.162  15.825   3.098  0.00  0.00     0.201 C 
ENDBRANCH  20  21
ENDBRANCH  19  20
BRANCH  19  23
HETATM   23  C   UNK N   1      30.540  17.157   5.639  0.00  0.00     0.194 C 
BRANCH  23  24
HETATM   24  O   UNK N   1      29.762  16.093   6.106  0.00  0.00    -0.394 OA
HETATM   25  C   UNK N   1      29.877  15.103   5.128  0.00  0.00     0.201 C 
ENDBRANCH  23  24
ENDBRANCH  19  23
ENDBRANCH   5  19
BRANCH   9  26
HETATM   26  N   UNK N   1      35.324  17.187  10.937  0.00  0.00    -0.384 N 
HETATM   27  H   UNK N   1      34.747  17.827  11.414  0.00  0.00     0.157 HD
HETATM   28  H   UNK N   1      36.185  17.488  10.564  0.00  0.00     0.157 HD
ENDBRANCH   9  26
TORSDOF 6
ENDMDL
