REMARK  6 active torsions:
REMARK  status: ('A' for Active; 'I' for Inactive)
REMARK    1  A    between atoms: C_1  and  C_2 
REMARK    2  A    between atoms: C_1  and  C_5 
REMARK    3  A    between atoms: C_1  and  N_12 
REMARK    4  A    between atoms: C_2  and  O_3 
REMARK    5  A    between atoms: C_5  and  O_6 
REMARK       I    between atoms: N_13  and  C_16 
REMARK    6  A    between atoms: N_14  and  C_17 
ROOT
HETATM    1  N   UNK N   1       2.844  -3.144   0.118  0.00  0.00    -0.191 N 
ATOM      2  HN  UNK N   1       3.835  -2.919   0.203  1.00  0.00     0.184 HD
HETATM    3  N   UNK N   1       1.144  -4.762  -0.117  0.00  0.00    -0.176 N 
ATOM      4  HN  UNK N   1       0.874  -5.742  -0.204  1.00  0.00     0.186 HD
HETATM    5  N   UNK N   1      -0.995   0.751   0.111  0.00  0.00    -0.347 N 
HETATM    6  N   UNK N   1       3.433  -5.462  -0.023  0.00  0.00    -0.234 N 
HETATM    7  C   UNK N   1       1.926  -2.144   0.132  0.00  0.00     0.064 A 
HETATM    8  C   UNK N   1       2.461  -4.442  -0.007  0.00  0.00     0.677 A 
HETATM    9  C   UNK N   1       0.180  -3.805  -0.112  0.00  0.00     0.128 A 
HETATM   10  C   UNK N   1       0.549  -2.453   0.010  0.00  0.00     0.048 A 
HETATM   11  C   UNK N   1      -0.363  -1.383   0.015  0.00  0.00     0.008 A 
HETATM   12  C   UNK N   1      -1.740  -1.364  -0.104  0.00  0.00     0.032 A 
HETATM   13  C   UNK N   1      -2.102  -0.019  -0.043  0.00  0.00     0.093 A 
HETATM   14  C   UNK N   1       0.058  -0.087   0.146  0.00  0.00     0.046 A 
HETATM   15  C   UNK N   1       1.408   0.241   0.280  0.00  0.00     0.033 A 
HETATM   16  C   UNK N   1       2.348  -0.804   0.267  0.00  0.00     0.033 A 
HETATM   17  H   UNK N   1       3.156  -6.406  -0.034  0.00  0.00     0.174 HD
HETATM   18  H   UNK N   1       4.390  -5.229  -0.023  0.00  0.00     0.174 HD
ENDROOT
BRANCH   5  19
HETATM   19  C   UNK N   1      -0.968   2.218   0.240  0.00  0.00     0.137 C 
BRANCH  19  20
HETATM   20  C   UNK N   1      -2.374   2.806   0.059  0.00  0.00     0.194 C 
BRANCH  20  21
HETATM   21  O   UNK N   1      -2.395   4.178   0.310  0.00  0.00    -0.394 OA
HETATM   22  C   UNK N   1      -3.718   4.549   0.073  0.00  0.00     0.201 C 
ENDBRANCH  20  21
ENDBRANCH  19  20
BRANCH  19  23
HETATM   23  C   UNK N   1       0.002   2.839  -0.766  0.00  0.00     0.194 C 
BRANCH  23  24
HETATM   24  O   UNK N   1       0.300   4.157  -0.407  0.00  0.00    -0.394 OA
HETATM   25  C   UNK N   1       1.621   4.121   0.042  0.00  0.00     0.201 C 
ENDBRANCH  23  24
ENDBRANCH  19  23
ENDBRANCH   5  19
BRANCH   9  26
HETATM   26  N   UNK N   1      -1.173  -4.189  -0.224  0.00  0.00    -0.384 N 
HETATM   27  H   UNK N   1      -1.878  -3.506  -0.303  0.00  0.00     0.157 HD
HETATM   28  H   UNK N   1      -1.414  -5.144  -0.224  0.00  0.00     0.157 HD
ENDBRANCH   9  26
TORSDOF 6
