MODEL 1
REMARK VINA RESULT:      -8.3      0.000      0.000
REMARK  5 active torsions:
REMARK  status: ('A' for Active; 'I' for Inactive)
REMARK    1  A    between atoms: C_7  and  N_25 
REMARK    2  A    between atoms: C_12  and  C_13 
REMARK    3  A    between atoms: C_12  and  C_19 
REMARK    4  A    between atoms: C_16  and  O_28 
REMARK    5  A    between atoms: C_22  and  O_29 
ROOT
HETATM    1  C   UNK N   1      24.197  17.215   4.974  0.00  0.00     0.296 C 
HETATM    2  C   UNK N   1      23.897  18.470   4.291  0.00  0.00     0.051 A 
HETATM    3  C   UNK N   1      24.902  19.422   4.077  0.00  0.00     0.018 A 
HETATM    4  C   UNK N   1      24.647  20.542   3.291  0.00  0.00     0.002 A 
HETATM    5  C   UNK N   1      23.406  20.687   2.675  0.00  0.00     0.015 A 
HETATM    6  C   UNK N   1      22.372  19.765   2.904  0.00  0.00     0.009 A 
HETATM    7  C   UNK N   1      21.125  19.870   2.232  0.00  0.00     0.114 C 
HETATM    8  C   UNK N   1      20.106  18.966   2.570  0.00  0.00     0.038 C 
HETATM    9  C   UNK N   1      20.325  17.926   3.473  0.00  0.00     0.014 C 
HETATM   10  C   UNK N   1      21.595  17.711   4.037  0.00  0.00    -0.002 C 
HETATM   11  C   UNK N   1      22.615  18.657   3.766  0.00  0.00     0.003 A 
HETATM   12  C   UNK N   1      21.925  16.340   4.709  0.00  0.00     0.153 C 
HETATM   13  O   UNK N   1      23.292  16.205   4.953  0.00  0.00    -0.291 OA
HETATM   14  O   UNK N   1      25.293  17.033   5.481  0.00  0.00    -0.259 OA
ENDROOT
BRANCH  12  15
HETATM   15  C   UNK N   1      21.410  15.355   3.646  0.00  0.00    -0.014 A 
HETATM   16  C   UNK N   1      22.107  15.158   2.443  0.00  0.00     0.013 A 
HETATM   17  C   UNK N   1      21.477  14.529   1.359  0.00  0.00     0.037 A 
HETATM   18  C   UNK N   1      20.138  14.130   1.452  0.00  0.00     0.065 A 
HETATM   19  C   UNK N   1      19.434  14.323   2.635  0.00  0.00     0.037 A 
HETATM   20  C   UNK N   1      20.056  14.941   3.711  0.00  0.00     0.013 A 
BRANCH  18  21
HETATM   21  O   UNK N   1      19.523  13.570   0.399  0.00  0.00    -0.361 OA
HETATM   22  H   UNK N   1      19.046  12.770   0.501  0.00  0.00     0.217 HD
ENDBRANCH  18  21
ENDBRANCH  12  15
BRANCH  12  23
HETATM   23  C   UNK N   1      21.326  15.878   6.039  0.00  0.00    -0.014 A 
HETATM   24  C   UNK N   1      21.636  14.551   6.419  0.00  0.00     0.013 A 
HETATM   25  C   UNK N   1      21.127  13.985   7.578  0.00  0.00     0.037 A 
HETATM   26  C   UNK N   1      20.288  14.732   8.391  0.00  0.00     0.065 A 
HETATM   27  C   UNK N   1      19.973  16.060   8.045  0.00  0.00     0.037 A 
HETATM   28  C   UNK N   1      20.493  16.639   6.868  0.00  0.00     0.013 A 
BRANCH  26  29
HETATM   29  O   UNK N   1      19.782  14.175   9.503  0.00  0.00    -0.361 OA
HETATM   30  H   UNK N   1      19.292  14.643  10.151  0.00  0.00     0.217 HD
ENDBRANCH  26  29
ENDBRANCH  12  23
BRANCH   7  31
HETATM   31  N   UNK N   1      20.897  20.808   1.167  0.00  0.00    -0.115 N 
HETATM   32  O   UNK N   1      20.694  22.084   1.418  0.00  0.00    -0.532 OA
HETATM   33  O   UNK N   1      21.096  20.474   0.037  0.00  0.00    -0.532 OA
ENDBRANCH   7  31
TORSDOF 5
ENDMDL
MODEL 2
REMARK VINA RESULT:      -7.9      5.968      8.859
REMARK  5 active torsions:
REMARK  status: ('A' for Active; 'I' for Inactive)
REMARK    1  A    between atoms: C_7  and  N_25 
REMARK    2  A    between atoms: C_12  and  C_13 
REMARK    3  A    between atoms: C_12  and  C_19 
REMARK    4  A    between atoms: C_16  and  O_28 
REMARK    5  A    between atoms: C_22  and  O_29 
ROOT
HETATM    1  C   UNK N   1      27.999  17.178   7.776  0.00  0.00     0.296 C 
HETATM    2  C   UNK N   1      29.451  17.320   7.843  0.00  0.00     0.051 A 
HETATM    3  C   UNK N   1      30.111  17.305   9.078  0.00  0.00     0.018 A 
HETATM    4  C   UNK N   1      31.502  17.283   9.126  0.00  0.00     0.002 A 
HETATM    5  C   UNK N   1      32.234  17.224   7.942  0.00  0.00     0.015 A 
HETATM    6  C   UNK N   1      31.596  17.276   6.692  0.00  0.00     0.009 A 
HETATM    7  C   UNK N   1      32.328  17.153   5.482  0.00  0.00     0.114 C 
HETATM    8  C   UNK N   1      31.641  17.297   4.267  0.00  0.00     0.038 C 
HETATM    9  C   UNK N   1      30.256  17.465   4.229  0.00  0.00     0.014 C 
HETATM   10  C   UNK N   1      29.491  17.439   5.409  0.00  0.00    -0.002 C 
HETATM   11  C   UNK N   1      30.174  17.369   6.648  0.00  0.00     0.003 A 
HETATM   12  C   UNK N   1      27.946  17.222   5.328  0.00  0.00     0.153 C 
HETATM   13  O   UNK N   1      27.401  16.942   6.582  0.00  0.00    -0.291 OA
HETATM   14  O   UNK N   1      27.329  17.173   8.797  0.00  0.00    -0.259 OA
ENDROOT
BRANCH  12  15
HETATM   15  C   UNK N   1      27.862  16.027   4.363  0.00  0.00    -0.014 A 
HETATM   16  C   UNK N   1      27.477  16.203   3.024  0.00  0.00     0.013 A 
HETATM   17  C   UNK N   1      27.085  15.099   2.252  0.00  0.00     0.037 A 
HETATM   18  C   UNK N   1      27.033  13.820   2.821  0.00  0.00     0.065 A 
HETATM   19  C   UNK N   1      27.404  13.631   4.147  0.00  0.00     0.037 A 
HETATM   20  C   UNK N   1      27.798  14.722   4.911  0.00  0.00     0.013 A 
BRANCH  18  21
HETATM   21  O   UNK N   1      26.613  12.773   2.095  0.00  0.00    -0.361 OA
HETATM   22  H   UNK N   1      27.234  12.202   1.687  0.00  0.00     0.217 HD
ENDBRANCH  18  21
ENDBRANCH  12  15
BRANCH  12  23
HETATM   23  C   UNK N   1      26.966  18.267   4.790  0.00  0.00    -0.014 A 
HETATM   24  C   UNK N   1      25.595  17.948   4.930  0.00  0.00     0.013 A 
HETATM   25  C   UNK N   1      24.598  18.783   4.450  0.00  0.00     0.037 A 
HETATM   26  C   UNK N   1      24.945  19.964   3.812  0.00  0.00     0.065 A 
HETATM   27  C   UNK N   1      26.301  20.314   3.670  0.00  0.00     0.037 A 
HETATM   28  C   UNK N   1      27.318  19.468   4.161  0.00  0.00     0.013 A 
BRANCH  26  29
HETATM   29  O   UNK N   1      23.977  20.761   3.332  0.00  0.00    -0.361 OA
HETATM   30  H   UNK N   1      23.192  20.451   2.925  0.00  0.00     0.217 HD
ENDBRANCH  26  29
ENDBRANCH  12  23
BRANCH   7  31
HETATM   31  N   UNK N   1      33.723  16.806   5.454  0.00  0.00    -0.115 N 
HETATM   32  O   UNK N   1      34.604  17.476   6.167  0.00  0.00    -0.532 OA
HETATM   33  O   UNK N   1      34.063  15.779   4.945  0.00  0.00    -0.532 OA
ENDBRANCH   7  31
TORSDOF 5
ENDMDL
MODEL 3
REMARK VINA RESULT:      -7.9     12.289     14.824
REMARK  5 active torsions:
REMARK  status: ('A' for Active; 'I' for Inactive)
REMARK    1  A    between atoms: C_7  and  N_25 
REMARK    2  A    between atoms: C_12  and  C_13 
REMARK    3  A    between atoms: C_12  and  C_19 
REMARK    4  A    between atoms: C_16  and  O_28 
REMARK    5  A    between atoms: C_22  and  O_29 
ROOT
HETATM    1  C   UNK N   1      28.553  23.617  -2.825  0.00  0.00     0.296 C 
HETATM    2  C   UNK N   1      29.912  23.259  -3.224  0.00  0.00     0.051 A 
HETATM    3  C   UNK N   1      30.673  22.378  -2.445  0.00  0.00     0.018 A 
HETATM    4  C   UNK N   1      31.903  21.920  -2.909  0.00  0.00     0.002 A 
HETATM    5  C   UNK N   1      32.350  22.299  -4.172  0.00  0.00     0.015 A 
HETATM    6  C   UNK N   1      31.622  23.210  -4.955  0.00  0.00     0.009 A 
HETATM    7  C   UNK N   1      32.039  23.554  -6.269  0.00  0.00     0.114 C 
HETATM    8  C   UNK N   1      31.313  24.533  -6.965  0.00  0.00     0.038 C 
HETATM    9  C   UNK N   1      30.155  25.098  -6.431  0.00  0.00     0.014 C 
HETATM   10  C   UNK N   1      29.639  24.664  -5.196  0.00  0.00    -0.002 C 
HETATM   11  C   UNK N   1      30.397  23.732  -4.446  0.00  0.00     0.003 A 
HETATM   12  C   UNK N   1      28.163  24.999  -4.810  0.00  0.00     0.153 C 
HETATM   13  O   UNK N   1      27.743  24.260  -3.703  0.00  0.00    -0.291 OA
HETATM   14  O   UNK N   1      28.109  23.258  -1.746  0.00  0.00    -0.259 OA
ENDROOT
BRANCH  12  15
HETATM   15  C   UNK N   1      27.421  24.612  -6.100  0.00  0.00    -0.014 A 
HETATM   16  C   UNK N   1      26.876  25.593  -6.945  0.00  0.00     0.013 A 
HETATM   17  C   UNK N   1      25.932  25.239  -7.919  0.00  0.00     0.037 A 
HETATM   18  C   UNK N   1      25.494  23.913  -8.032  0.00  0.00     0.065 A 
HETATM   19  C   UNK N   1      26.019  22.933  -7.199  0.00  0.00     0.037 A 
HETATM   20  C   UNK N   1      26.957  23.280  -6.237  0.00  0.00     0.013 A 
BRANCH  18  21
HETATM   21  O   UNK N   1      24.557  23.584  -8.934  0.00  0.00    -0.361 OA
HETATM   22  H   UNK N   1      24.491  22.703  -9.246  0.00  0.00     0.217 HD
ENDBRANCH  18  21
ENDBRANCH  12  15
BRANCH  12  23
HETATM   23  C   UNK N   1      27.676  26.404  -4.448  0.00  0.00    -0.014 A 
HETATM   24  C   UNK N   1      26.367  26.478  -3.915  0.00  0.00     0.013 A 
HETATM   25  C   UNK N   1      25.781  27.688  -3.583  0.00  0.00     0.037 A 
HETATM   26  C   UNK N   1      26.488  28.866  -3.778  0.00  0.00     0.065 A 
HETATM   27  C   UNK N   1      27.797  28.822  -4.293  0.00  0.00     0.037 A 
HETATM   28  C   UNK N   1      28.397  27.590  -4.629  0.00  0.00     0.013 A 
BRANCH  26  29
HETATM   29  O   UNK N   1      25.910  30.039  -3.472  0.00  0.00    -0.361 OA
HETATM   30  H   UNK N   1      25.008  30.137  -3.237  0.00  0.00     0.217 HD
ENDBRANCH  26  29
ENDBRANCH  12  23
BRANCH   7  31
HETATM   31  N   UNK N   1      33.117  22.881  -6.939  0.00  0.00    -0.115 N 
HETATM   32  O   UNK N   1      32.904  21.791  -7.645  0.00  0.00    -0.532 OA
HETATM   33  O   UNK N   1      34.180  23.421  -7.031  0.00  0.00    -0.532 OA
ENDBRANCH   7  31
TORSDOF 5
ENDMDL
MODEL 4
REMARK VINA RESULT:      -7.9      3.094      6.649
REMARK  5 active torsions:
REMARK  status: ('A' for Active; 'I' for Inactive)
REMARK    1  A    between atoms: C_7  and  N_25 
REMARK    2  A    between atoms: C_12  and  C_13 
REMARK    3  A    between atoms: C_12  and  C_19 
REMARK    4  A    between atoms: C_16  and  O_28 
REMARK    5  A    between atoms: C_22  and  O_29 
ROOT
HETATM    1  C   UNK N   1      21.733  18.276   5.473  0.00  0.00     0.296 C 
HETATM    2  C   UNK N   1      21.402  17.410   6.602  0.00  0.00     0.051 A 
HETATM    3  C   UNK N   1      20.301  17.696   7.419  0.00  0.00     0.018 A 
HETATM    4  C   UNK N   1      19.900  16.787   8.394  0.00  0.00     0.002 A 
HETATM    5  C   UNK N   1      20.564  15.570   8.520  0.00  0.00     0.015 A 
HETATM    6  C   UNK N   1      21.693  15.277   7.738  0.00  0.00     0.009 A 
HETATM    7  C   UNK N   1      22.339  14.014   7.815  0.00  0.00     0.114 C 
HETATM    8  C   UNK N   1      23.511  13.817   7.069  0.00  0.00     0.038 C 
HETATM    9  C   UNK N   1      23.993  14.793   6.197  0.00  0.00     0.014 C 
HETATM   10  C   UNK N   1      23.287  15.993   5.991  0.00  0.00    -0.002 C 
HETATM   11  C   UNK N   1      22.144  16.240   6.789  0.00  0.00     0.003 A 
HETATM   12  C   UNK N   1      23.607  16.877   4.743  0.00  0.00     0.153 C 
HETATM   13  O   UNK N   1      22.634  17.859   4.549  0.00  0.00    -0.291 OA
HETATM   14  O   UNK N   1      21.135  19.326   5.302  0.00  0.00    -0.259 OA
ENDROOT
BRANCH  12  15
HETATM   15  C   UNK N   1      23.619  15.822   3.624  0.00  0.00    -0.014 A 
HETATM   16  C   UNK N   1      24.813  15.467   2.976  0.00  0.00     0.013 A 
HETATM   17  C   UNK N   1      24.775  14.772   1.758  0.00  0.00     0.037 A 
HETATM   18  C   UNK N   1      23.547  14.462   1.158  0.00  0.00     0.065 A 
HETATM   19  C   UNK N   1      22.357  14.812   1.785  0.00  0.00     0.037 A 
HETATM   20  C   UNK N   1      22.393  15.496   2.992  0.00  0.00     0.013 A 
BRANCH  18  21
HETATM   21  O   UNK N   1      23.513  13.837  -0.029  0.00  0.00    -0.361 OA
HETATM   22  H   UNK N   1      24.109  13.137  -0.211  0.00  0.00     0.217 HD
ENDBRANCH  18  21
ENDBRANCH  12  15
BRANCH  12  23
HETATM   23  C   UNK N   1      24.898  17.681   4.578  0.00  0.00    -0.014 A 
HETATM   24  C   UNK N   1      24.825  18.774   3.683  0.00  0.00     0.013 A 
HETATM   25  C   UNK N   1      25.929  19.565   3.404  0.00  0.00     0.037 A 
HETATM   26  C   UNK N   1      27.143  19.282   4.012  0.00  0.00     0.065 A 
HETATM   27  C   UNK N   1      27.241  18.209   4.918  0.00  0.00     0.037 A 
HETATM   28  C   UNK N   1      26.118  17.405   5.207  0.00  0.00     0.013 A 
BRANCH  26  29
HETATM   29  O   UNK N   1      28.215  20.038   3.726  0.00  0.00    -0.361 OA
HETATM   30  H   UNK N   1      28.635  20.062   2.889  0.00  0.00     0.217 HD
ENDBRANCH  26  29
ENDBRANCH  12  23
BRANCH   7  31
HETATM   31  N   UNK N   1      21.794  12.911   8.559  0.00  0.00    -0.115 N 
HETATM   32  O   UNK N   1      21.988  12.805   9.856  0.00  0.00    -0.532 OA
HETATM   33  O   UNK N   1      20.989  12.195   8.042  0.00  0.00    -0.532 OA
ENDBRANCH   7  31
TORSDOF 5
ENDMDL
MODEL 5
REMARK VINA RESULT:      -7.8      2.397      5.193
REMARK  5 active torsions:
REMARK  status: ('A' for Active; 'I' for Inactive)
REMARK    1  A    between atoms: C_7  and  N_25 
REMARK    2  A    between atoms: C_12  and  C_13 
REMARK    3  A    between atoms: C_12  and  C_19 
REMARK    4  A    between atoms: C_16  and  O_28 
REMARK    5  A    between atoms: C_22  and  O_29 
ROOT
HETATM    1  C   UNK N   1      19.378  14.202   4.953  0.00  0.00     0.296 C 
HETATM    2  C   UNK N   1      19.881  15.092   3.910  0.00  0.00     0.051 A 
HETATM    3  C   UNK N   1      19.645  14.810   2.559  0.00  0.00     0.018 A 
HETATM    4  C   UNK N   1      19.990  15.738   1.581  0.00  0.00     0.002 A 
HETATM    5  C   UNK N   1      20.523  16.970   1.953  0.00  0.00     0.015 A 
HETATM    6  C   UNK N   1      20.803  17.261   3.298  0.00  0.00     0.009 A 
HETATM    7  C   UNK N   1      21.287  18.536   3.694  0.00  0.00     0.114 C 
HETATM    8  C   UNK N   1      21.625  18.733   5.042  0.00  0.00     0.038 C 
HETATM    9  C   UNK N   1      21.411  17.742   5.999  0.00  0.00     0.014 C 
HETATM   10  C   UNK N   1      20.793  16.525   5.657  0.00  0.00    -0.002 C 
HETATM   11  C   UNK N   1      20.513  16.280   4.291  0.00  0.00     0.003 A 
HETATM   12  C   UNK N   1      20.201  15.613   6.779  0.00  0.00     0.153 C 
HETATM   13  O   UNK N   1      19.390  14.609   6.247  0.00  0.00    -0.291 OA
HETATM   14  O   UNK N   1      18.857  13.137   4.661  0.00  0.00    -0.259 OA
ENDROOT
BRANCH  12  15
HETATM   15  C   UNK N   1      19.411  16.637   7.612  0.00  0.00    -0.014 A 
HETATM   16  C   UNK N   1      20.064  17.497   8.510  0.00  0.00     0.013 A 
HETATM   17  C   UNK N   1      19.330  18.180   9.491  0.00  0.00     0.037 A 
HETATM   18  C   UNK N   1      17.948  17.979   9.610  0.00  0.00     0.065 A 
HETATM   19  C   UNK N   1      17.290  17.126   8.732  0.00  0.00     0.037 A 
HETATM   20  C   UNK N   1      18.014  16.453   7.757  0.00  0.00     0.013 A 
BRANCH  18  21
HETATM   21  O   UNK N   1      17.255  18.597  10.578  0.00  0.00    -0.361 OA
HETATM   22  H   UNK N   1      16.383  18.898  10.415  0.00  0.00     0.217 HD
ENDBRANCH  18  21
ENDBRANCH  12  15
BRANCH  12  23
HETATM   23  C   UNK N   1      21.055  14.827   7.775  0.00  0.00    -0.014 A 
HETATM   24  C   UNK N   1      20.399  14.437   8.967  0.00  0.00     0.013 A 
HETATM   25  C   UNK N   1      21.061  13.756   9.976  0.00  0.00     0.037 A 
HETATM   26  C   UNK N   1      22.404  13.448   9.824  0.00  0.00     0.065 A 
HETATM   27  C   UNK N   1      23.080  13.810   8.644  0.00  0.00     0.037 A 
HETATM   28  C   UNK N   1      22.406  14.500   7.613  0.00  0.00     0.013 A 
BRANCH  26  29
HETATM   29  O   UNK N   1      23.048  12.804  10.812  0.00  0.00    -0.361 OA
HETATM   30  H   UNK N   1      22.629  12.248  11.439  0.00  0.00     0.217 HD
ENDBRANCH  26  29
ENDBRANCH  12  23
BRANCH   7  31
HETATM   31  N   UNK N   1      21.363  19.649   2.788  0.00  0.00    -0.115 N 
HETATM   32  O   UNK N   1      20.274  20.213   2.310  0.00  0.00    -0.532 OA
HETATM   33  O   UNK N   1      22.410  20.203   2.624  0.00  0.00    -0.532 OA
ENDBRANCH   7  31
TORSDOF 5
ENDMDL
MODEL 6
REMARK VINA RESULT:      -7.8      6.448      9.651
REMARK  5 active torsions:
REMARK  status: ('A' for Active; 'I' for Inactive)
REMARK    1  A    between atoms: C_7  and  N_25 
REMARK    2  A    between atoms: C_12  and  C_13 
REMARK    3  A    between atoms: C_12  and  C_19 
REMARK    4  A    between atoms: C_16  and  O_28 
REMARK    5  A    between atoms: C_22  and  O_29 
ROOT
HETATM    1  C   UNK N   1      29.918  16.657   3.606  0.00  0.00     0.296 C 
HETATM    2  C   UNK N   1      31.170  16.545   4.348  0.00  0.00     0.051 A 
HETATM    3  C   UNK N   1      32.357  16.195   3.692  0.00  0.00     0.018 A 
HETATM    4  C   UNK N   1      33.571  16.242   4.372  0.00  0.00     0.002 A 
HETATM    5  C   UNK N   1      33.608  16.688   5.691  0.00  0.00     0.015 A 
HETATM    6  C   UNK N   1      32.427  17.009   6.381  0.00  0.00     0.009 A 
HETATM    7  C   UNK N   1      32.460  17.523   7.704  0.00  0.00     0.114 C 
HETATM    8  C   UNK N   1      31.242  17.743   8.365  0.00  0.00     0.038 C 
HETATM    9  C   UNK N   1      30.019  17.555   7.722  0.00  0.00     0.014 C 
HETATM   10  C   UNK N   1      29.963  17.190   6.364  0.00  0.00    -0.002 C 
HETATM   11  C   UNK N   1      31.179  16.892   5.702  0.00  0.00     0.003 A 
HETATM   12  C   UNK N   1      28.634  17.375   5.565  0.00  0.00     0.153 C 
HETATM   13  O   UNK N   1      28.839  17.235   4.191  0.00  0.00    -0.291 OA
HETATM   14  O   UNK N   1      29.861  16.324   2.432  0.00  0.00    -0.259 OA
ENDROOT
BRANCH  12  15
HETATM   15  C   UNK N   1      28.242  18.808   5.964  0.00  0.00    -0.014 A 
HETATM   16  C   UNK N   1      27.793  19.101   7.262  0.00  0.00     0.013 A 
HETATM   17  C   UNK N   1      27.132  20.310   7.524  0.00  0.00     0.037 A 
HETATM   18  C   UNK N   1      26.878  21.216   6.486  0.00  0.00     0.065 A 
HETATM   19  C   UNK N   1      27.310  20.937   5.195  0.00  0.00     0.037 A 
HETATM   20  C   UNK N   1      27.969  19.743   4.935  0.00  0.00     0.013 A 
BRANCH  18  21
HETATM   21  O   UNK N   1      26.205  22.352   6.729  0.00  0.00    -0.361 OA
HETATM   22  H   UNK N   1      26.668  23.157   6.852  0.00  0.00     0.217 HD
ENDBRANCH  18  21
ENDBRANCH  12  15
BRANCH  12  23
HETATM   23  C   UNK N   1      27.384  16.520   5.781  0.00  0.00    -0.014 A 
HETATM   24  C   UNK N   1      26.444  16.536   4.724  0.00  0.00     0.013 A 
HETATM   25  C   UNK N   1      25.247  15.841   4.801  0.00  0.00     0.037 A 
HETATM   26  C   UNK N   1      24.953  15.111   5.943  0.00  0.00     0.065 A 
HETATM   27  C   UNK N   1      25.876  15.066   7.005  0.00  0.00     0.037 A 
HETATM   28  C   UNK N   1      27.097  15.769   6.927  0.00  0.00     0.013 A 
BRANCH  26  29
HETATM   29  O   UNK N   1      23.784  14.454   6.022  0.00  0.00    -0.361 OA
HETATM   30  H   UNK N   1      23.577  13.825   6.685  0.00  0.00     0.217 HD
ENDBRANCH  26  29
ENDBRANCH  12  23
BRANCH   7  31
HETATM   31  N   UNK N   1      33.684  17.903   8.356  0.00  0.00    -0.115 N 
HETATM   32  O   UNK N   1      34.344  18.981   7.988  0.00  0.00    -0.532 OA
HETATM   33  O   UNK N   1      34.002  17.359   9.372  0.00  0.00    -0.532 OA
ENDBRANCH   7  31
TORSDOF 5
ENDMDL
MODEL 7
REMARK VINA RESULT:      -7.8      5.613      9.023
REMARK  5 active torsions:
REMARK  status: ('A' for Active; 'I' for Inactive)
REMARK    1  A    between atoms: C_7  and  N_25 
REMARK    2  A    between atoms: C_12  and  C_13 
REMARK    3  A    between atoms: C_12  and  C_19 
REMARK    4  A    between atoms: C_16  and  O_28 
REMARK    5  A    between atoms: C_22  and  O_29 
ROOT
HETATM    1  C   UNK N   1      27.649  14.795   5.063  0.00  0.00     0.296 C 
HETATM    2  C   UNK N   1      26.757  15.669   4.306  0.00  0.00     0.051 A 
HETATM    3  C   UNK N   1      25.558  15.176   3.777  0.00  0.00     0.018 A 
HETATM    4  C   UNK N   1      24.642  16.047   3.194  0.00  0.00     0.002 A 
HETATM    5  C   UNK N   1      24.897  17.416   3.185  0.00  0.00     0.015 A 
HETATM    6  C   UNK N   1      26.108  17.930   3.677  0.00  0.00     0.009 A 
HETATM    7  C   UNK N   1      26.351  19.328   3.730  0.00  0.00     0.114 C 
HETATM    8  C   UNK N   1      27.614  19.771   4.153  0.00  0.00     0.038 C 
HETATM    9  C   UNK N   1      28.586  18.878   4.603  0.00  0.00     0.014 C 
HETATM   10  C   UNK N   1      28.315  17.500   4.701  0.00  0.00    -0.002 C 
HETATM   11  C   UNK N   1      27.074  17.027   4.209  0.00  0.00     0.003 A 
HETATM   12  C   UNK N   1      29.241  16.587   5.566  0.00  0.00     0.153 C 
HETATM   13  O   UNK N   1      28.669  15.332   5.778  0.00  0.00    -0.291 OA
HETATM   14  O   UNK N   1      27.427  13.596   5.135  0.00  0.00    -0.259 OA
ENDROOT
BRANCH  12  15
HETATM   15  C   UNK N   1      29.355  17.414   6.858  0.00  0.00    -0.014 A 
HETATM   16  C   UNK N   1      30.608  17.736   7.404  0.00  0.00     0.013 A 
HETATM   17  C   UNK N   1      30.705  18.189   8.728  0.00  0.00     0.037 A 
HETATM   18  C   UNK N   1      29.560  18.285   9.529  0.00  0.00     0.065 A 
HETATM   19  C   UNK N   1      28.314  17.965   9.004  0.00  0.00     0.037 A 
HETATM   20  C   UNK N   1      28.215  17.521   7.693  0.00  0.00     0.013 A 
BRANCH  18  21
HETATM   21  O   UNK N   1      29.660  18.675  10.809  0.00  0.00    -0.361 OA
HETATM   22  H   UNK N   1      29.870  19.565  11.016  0.00  0.00     0.217 HD
ENDBRANCH  18  21
ENDBRANCH  12  15
BRANCH  12  23
HETATM   23  C   UNK N   1      30.673  16.213   5.178  0.00  0.00    -0.014 A 
HETATM   24  C   UNK N   1      31.180  15.035   5.774  0.00  0.00     0.013 A 
HETATM   25  C   UNK N   1      32.475  14.599   5.545  0.00  0.00     0.037 A 
HETATM   26  C   UNK N   1      33.306  15.335   4.713  0.00  0.00     0.065 A 
HETATM   27  C   UNK N   1      32.824  16.504   4.094  0.00  0.00     0.037 A 
HETATM   28  C   UNK N   1      31.504  16.947   4.323  0.00  0.00     0.013 A 
BRANCH  26  29
HETATM   29  O   UNK N   1      34.567  14.920   4.508  0.00  0.00    -0.361 OA
HETATM   30  H   UNK N   1      35.191  15.374   3.977  0.00  0.00     0.217 HD
ENDBRANCH  26  29
ENDBRANCH  12  23
BRANCH   7  31
HETATM   31  N   UNK N   1      25.332  20.301   3.448  0.00  0.00    -0.115 N 
HETATM   32  O   UNK N   1      25.170  20.783   2.234  0.00  0.00    -0.532 OA
HETATM   33  O   UNK N   1      24.491  20.526   4.267  0.00  0.00    -0.532 OA
ENDBRANCH   7  31
TORSDOF 5
ENDMDL
MODEL 8
REMARK VINA RESULT:      -7.7      2.606      5.940
REMARK  5 active torsions:
REMARK  status: ('A' for Active; 'I' for Inactive)
REMARK    1  A    between atoms: C_7  and  N_25 
REMARK    2  A    between atoms: C_12  and  C_13 
REMARK    3  A    between atoms: C_12  and  C_19 
REMARK    4  A    between atoms: C_16  and  O_28 
REMARK    5  A    between atoms: C_22  and  O_29 
ROOT
HETATM    1  C   UNK N   1      23.567  19.816   3.437  0.00  0.00     0.296 C 
HETATM    2  C   UNK N   1      24.970  19.566   3.759  0.00  0.00     0.051 A 
HETATM    3  C   UNK N   1      25.936  20.557   3.544  0.00  0.00     0.018 A 
HETATM    4  C   UNK N   1      27.239  20.371   3.996  0.00  0.00     0.002 A 
HETATM    5  C   UNK N   1      27.567  19.219   4.708  0.00  0.00     0.015 A 
HETATM    6  C   UNK N   1      26.625  18.196   4.903  0.00  0.00     0.009 A 
HETATM    7  C   UNK N   1      26.931  17.047   5.680  0.00  0.00     0.114 C 
HETATM    8  C   UNK N   1      25.974  16.024   5.765  0.00  0.00     0.038 C 
HETATM    9  C   UNK N   1      24.713  16.156   5.184  0.00  0.00     0.014 C 
HETATM   10  C   UNK N   1      24.333  17.347   4.538  0.00  0.00    -0.002 C 
HETATM   11  C   UNK N   1      25.310  18.360   4.377  0.00  0.00     0.003 A 
HETATM   12  C   UNK N   1      22.823  17.631   4.257  0.00  0.00     0.153 C 
HETATM   13  O   UNK N   1      22.614  18.957   3.878  0.00  0.00    -0.291 OA
HETATM   14  O   UNK N   1      23.237  20.840   2.860  0.00  0.00    -0.259 OA
ENDROOT
BRANCH  12  15
HETATM   15  C   UNK N   1      22.197  17.297   5.622  0.00  0.00    -0.014 A 
HETATM   16  C   UNK N   1      21.999  15.965   6.021  0.00  0.00     0.013 A 
HETATM   17  C   UNK N   1      21.143  15.670   7.092  0.00  0.00     0.037 A 
HETATM   18  C   UNK N   1      20.447  16.696   7.745  0.00  0.00     0.065 A 
HETATM   19  C   UNK N   1      20.628  18.018   7.357  0.00  0.00     0.037 A 
HETATM   20  C   UNK N   1      21.479  18.312   6.300  0.00  0.00     0.013 A 
BRANCH  18  21
HETATM   21  O   UNK N   1      19.592  16.408   8.739  0.00  0.00    -0.361 OA
HETATM   22  H   UNK N   1      18.704  16.704   8.698  0.00  0.00     0.217 HD
ENDBRANCH  18  21
ENDBRANCH  12  15
BRANCH  12  23
HETATM   23  C   UNK N   1      21.994  16.876   3.217  0.00  0.00    -0.014 A 
HETATM   24  C   UNK N   1      20.807  17.521   2.797  0.00  0.00     0.013 A 
HETATM   25  C   UNK N   1      19.937  16.935   1.891  0.00  0.00     0.037 A 
HETATM   26  C   UNK N   1      20.229  15.679   1.379  0.00  0.00     0.065 A 
HETATM   27  C   UNK N   1      21.410  15.019   1.768  0.00  0.00     0.037 A 
HETATM   28  C   UNK N   1      22.299  15.617   2.687  0.00  0.00     0.013 A 
BRANCH  26  29
HETATM   29  O   UNK N   1      19.376  15.106   0.516  0.00  0.00    -0.361 OA
HETATM   30  H   UNK N   1      19.606  14.835  -0.352  0.00  0.00     0.217 HD
ENDBRANCH  26  29
ENDBRANCH  12  23
BRANCH   7  31
HETATM   31  N   UNK N   1      28.142  16.931   6.445  0.00  0.00    -0.115 N 
HETATM   32  O   UNK N   1      28.205  17.361   7.687  0.00  0.00    -0.532 OA
HETATM   33  O   UNK N   1      29.038  16.258   6.029  0.00  0.00    -0.532 OA
ENDBRANCH   7  31
TORSDOF 5
ENDMDL
MODEL 9
REMARK VINA RESULT:      -7.7      1.638      2.176
REMARK  5 active torsions:
REMARK  status: ('A' for Active; 'I' for Inactive)
REMARK    1  A    between atoms: C_7  and  N_25 
REMARK    2  A    between atoms: C_12  and  C_13 
REMARK    3  A    between atoms: C_12  and  C_19 
REMARK    4  A    between atoms: C_16  and  O_28 
REMARK    5  A    between atoms: C_22  and  O_29 
ROOT
HETATM    1  C   UNK N   1      25.133  15.358   5.677  0.00  0.00     0.296 C 
HETATM    2  C   UNK N   1      25.436  16.717   5.237  0.00  0.00     0.051 A 
HETATM    3  C   UNK N   1      26.764  17.146   5.115  0.00  0.00     0.018 A 
HETATM    4  C   UNK N   1      27.048  18.385   4.548  0.00  0.00     0.002 A 
HETATM    5  C   UNK N   1      26.011  19.176   4.057  0.00  0.00     0.015 A 
HETATM    6  C   UNK N   1      24.671  18.784   4.203  0.00  0.00     0.009 A 
HETATM    7  C   UNK N   1      23.612  19.552   3.650  0.00  0.00     0.114 C 
HETATM    8  C   UNK N   1      22.292  19.149   3.904  0.00  0.00     0.038 C 
HETATM    9  C   UNK N   1      22.009  17.974   4.601  0.00  0.00     0.014 C 
HETATM   10  C   UNK N   1      23.042  17.119   5.028  0.00  0.00    -0.002 C 
HETATM   11  C   UNK N   1      24.380  17.546   4.846  0.00  0.00     0.003 A 
HETATM   12  C   UNK N   1      22.713  15.647   5.434  0.00  0.00     0.153 C 
HETATM   13  O   UNK N   1      23.871  14.877   5.552  0.00  0.00    -0.291 OA
HETATM   14  O   UNK N   1      26.024  14.619   6.065  0.00  0.00    -0.259 OA
ENDROOT
BRANCH  12  15
HETATM   15  C   UNK N   1      21.821  15.205   4.261  0.00  0.00    -0.014 A 
HETATM   16  C   UNK N   1      22.313  15.183   2.946  0.00  0.00     0.013 A 
HETATM   17  C   UNK N   1      21.426  15.106   1.863  0.00  0.00     0.037 A 
HETATM   18  C   UNK N   1      20.042  15.091   2.081  0.00  0.00     0.065 A 
HETATM   19  C   UNK N   1      19.540  15.118   3.377  0.00  0.00     0.037 A 
HETATM   20  C   UNK N   1      20.417  15.190   4.450  0.00  0.00     0.013 A 
BRANCH  18  21
HETATM   21  O   UNK N   1      19.193  15.063   1.042  0.00  0.00    -0.361 OA
HETATM   22  H   UNK N   1      19.443  15.436   0.219  0.00  0.00     0.217 HD
ENDBRANCH  18  21
ENDBRANCH  12  15
BRANCH  12  23
HETATM   23  C   UNK N   1      21.955  15.264   6.707  0.00  0.00    -0.014 A 
HETATM   24  C   UNK N   1      21.957  13.887   7.028  0.00  0.00     0.013 A 
HETATM   25  C   UNK N   1      21.276  13.391   8.129  0.00  0.00     0.037 A 
HETATM   26  C   UNK N   1      20.568  14.263   8.942  0.00  0.00     0.065 A 
HETATM   27  C   UNK N   1      20.560  15.641   8.656  0.00  0.00     0.037 A 
HETATM   28  C   UNK N   1      21.256  16.148   7.538  0.00  0.00     0.013 A 
BRANCH  26  29
HETATM   29  O   UNK N   1      19.894  13.778   9.997  0.00  0.00    -0.361 OA
HETATM   30  H   UNK N   1      19.802  12.866  10.190  0.00  0.00     0.217 HD
ENDBRANCH  26  29
ENDBRANCH  12  23
BRANCH   7  31
HETATM   31  N   UNK N   1      23.841  20.670   2.777  0.00  0.00    -0.115 N 
HETATM   32  O   UNK N   1      24.680  20.583   1.766  0.00  0.00    -0.532 OA
HETATM   33  O   UNK N   1      23.119  21.621   2.838  0.00  0.00    -0.532 OA
ENDBRANCH   7  31
TORSDOF 5
ENDMDL
