MODEL 1
REMARK VINA RESULT:      -6.6      0.000      0.000
REMARK  2 active torsions:
REMARK  status: ('A' for Active; 'I' for Inactive)
REMARK    1  A    between atoms: C_4  and  O_5 
REMARK    2  A    between atoms: C_9  and  C_10 
ROOT
HETATM    1  C   UNK N   1      31.524  15.793   6.383  0.00  0.00     0.051 C 
HETATM    2  C   UNK N   1      30.540  16.786   6.896  0.00  0.00    -0.027 A 
HETATM    3  C   UNK N   1      29.538  17.266   6.042  0.00  0.00     0.025 A 
HETATM    4  C   UNK N   1      30.606  17.241   8.226  0.00  0.00     0.077 A 
HETATM    5  C   UNK N   1      29.670  18.178   8.689  0.00  0.00    -0.027 A 
HETATM    6  C   UNK N   1      29.710  18.676  10.091  0.00  0.00     0.051 C 
HETATM    7  C   UNK N   1      28.682  18.654   7.829  0.00  0.00     0.025 A 
HETATM    8  C   UNK N   1      28.607  18.204   6.508  0.00  0.00     0.017 A 
ENDROOT
BRANCH   8   9
HETATM    9  C   UNK N   1      27.542  18.716   5.637  0.00  0.00     0.159 A 
HETATM   10  N   UNK N   1      26.245  18.330   5.749  0.00  0.00    -0.334 N 
HETATM   11  C   UNK N   1      25.630  19.011   4.772  0.00  0.00     0.068 A 
ATOM     12  HN  UNK N   1      25.835  17.677   6.418  1.00  0.00     0.168 HD
HETATM   13  C   UNK N   1      26.541  19.770   4.106  0.00  0.00     0.104 A 
HETATM   14  C   UNK N   1      24.283  18.989   4.431  0.00  0.00     0.032 A 
HETATM   15  O   UNK N   1      27.717  19.583   4.650  0.00  0.00    -0.291 OA
HETATM   16  C   UNK N   1      26.183  20.578   3.032  0.00  0.00     0.040 A 
HETATM   17  C   UNK N   1      24.826  20.584   2.650  0.00  0.00     0.003 A 
HETATM   18  C   UNK N   1      23.880  19.794   3.349  0.00  0.00     0.002 A 
ENDBRANCH   8   9
BRANCH   4  19
HETATM   19  O   UNK N   1      31.563  16.778   9.054  0.00  0.00    -0.360 OA
HETATM   20  H   UNK N   1      31.761  17.239   9.844  0.00  0.00     0.217 HD
ENDBRANCH   4  19
TORSDOF 2
ENDMDL
MODEL 2
REMARK VINA RESULT:      -6.6      0.080      2.032
REMARK  2 active torsions:
REMARK  status: ('A' for Active; 'I' for Inactive)
REMARK    1  A    between atoms: C_4  and  O_5 
REMARK    2  A    between atoms: C_9  and  C_10 
ROOT
HETATM    1  C   UNK N   1      29.730  18.661  10.102  0.00  0.00     0.051 C 
HETATM    2  C   UNK N   1      29.641  18.192   8.692  0.00  0.00    -0.027 A 
HETATM    3  C   UNK N   1      28.623  18.685   7.865  0.00  0.00     0.025 A 
HETATM    4  C   UNK N   1      30.569  17.264   8.185  0.00  0.00     0.077 A 
HETATM    5  C   UNK N   1      30.467  16.833   6.854  0.00  0.00    -0.027 A 
HETATM    6  C   UNK N   1      31.436  15.855   6.286  0.00  0.00     0.051 C 
HETATM    7  C   UNK N   1      29.447  17.324   6.042  0.00  0.00     0.025 A 
HETATM    8  C   UNK N   1      28.523  18.249   6.537  0.00  0.00     0.017 A 
ENDROOT
BRANCH   8   9
HETATM    9  C   UNK N   1      27.472  18.757   5.646  0.00  0.00     0.159 A 
HETATM   10  N   UNK N   1      26.169  18.389   5.755  0.00  0.00    -0.334 N 
HETATM   11  C   UNK N   1      25.571  19.057   4.759  0.00  0.00     0.068 A 
ATOM     12  HN  UNK N   1      25.745  17.754   6.433  1.00  0.00     0.168 HD
HETATM   13  C   UNK N   1      26.497  19.792   4.087  0.00  0.00     0.104 A 
HETATM   14  C   UNK N   1      24.227  19.046   4.406  0.00  0.00     0.032 A 
HETATM   15  O   UNK N   1      27.666  19.602   4.645  0.00  0.00    -0.291 OA
HETATM   16  C   UNK N   1      26.159  20.583   2.993  0.00  0.00     0.040 A 
HETATM   17  C   UNK N   1      24.806  20.598   2.600  0.00  0.00     0.003 A 
HETATM   18  C   UNK N   1      23.844  19.834   3.305  0.00  0.00     0.002 A 
ENDBRANCH   8   9
BRANCH   4  19
HETATM   19  O   UNK N   1      31.554  16.790   8.973  0.00  0.00    -0.360 OA
HETATM   20  H   UNK N   1      32.023  16.019   8.724  0.00  0.00     0.217 HD
ENDBRANCH   4  19
TORSDOF 2
ENDMDL
MODEL 3
REMARK VINA RESULT:      -6.5      5.032      8.003
REMARK  2 active torsions:
REMARK  status: ('A' for Active; 'I' for Inactive)
REMARK    1  A    between atoms: C_4  and  O_5 
REMARK    2  A    between atoms: C_9  and  C_10 
ROOT
HETATM    1  C   UNK N   1      21.303  20.558   2.251  0.00  0.00     0.051 C 
HETATM    2  C   UNK N   1      22.257  19.862   3.158  0.00  0.00    -0.027 A 
HETATM    3  C   UNK N   1      21.767  18.955   4.108  0.00  0.00     0.025 A 
HETATM    4  C   UNK N   1      23.640  20.104   3.067  0.00  0.00     0.077 A 
HETATM    5  C   UNK N   1      24.522  19.439   3.932  0.00  0.00    -0.027 A 
HETATM    6  C   UNK N   1      25.991  19.670   3.858  0.00  0.00     0.051 C 
HETATM    7  C   UNK N   1      24.024  18.545   4.878  0.00  0.00     0.025 A 
HETATM    8  C   UNK N   1      22.652  18.296   4.972  0.00  0.00     0.017 A 
ENDROOT
BRANCH   8   9
HETATM    9  C   UNK N   1      22.166  17.334   5.969  0.00  0.00     0.159 A 
HETATM   10  N   UNK N   1      22.586  16.043   6.018  0.00  0.00    -0.334 N 
HETATM   11  C   UNK N   1      21.894  15.528   7.044  0.00  0.00     0.068 A 
ATOM     12  HN  UNK N   1      23.266  15.577   5.417  1.00  0.00     0.168 HD
HETATM   13  C   UNK N   1      21.092  16.488   7.577  0.00  0.00     0.104 A 
HETATM   14  C   UNK N   1      21.933  14.229   7.536  0.00  0.00     0.032 A 
HETATM   15  O   UNK N   1      21.270  17.599   6.908  0.00  0.00    -0.291 OA
HETATM   16  C   UNK N   1      20.250  16.231   8.655  0.00  0.00     0.040 A 
HETATM   17  C   UNK N   1      20.257  14.924   9.183  0.00  0.00     0.003 A 
HETATM   18  C   UNK N   1      21.097  13.928   8.627  0.00  0.00     0.002 A 
ENDBRANCH   8   9
BRANCH   4  19
HETATM   19  O   UNK N   1      24.118  20.970   2.152  0.00  0.00    -0.360 OA
HETATM   20  H   UNK N   1      24.479  21.789   2.427  0.00  0.00     0.217 HD
ENDBRANCH   4  19
TORSDOF 2
ENDMDL
MODEL 4
REMARK VINA RESULT:      -6.5      4.987      7.900
REMARK  2 active torsions:
REMARK  status: ('A' for Active; 'I' for Inactive)
REMARK    1  A    between atoms: C_4  and  O_5 
REMARK    2  A    between atoms: C_9  and  C_10 
ROOT
HETATM    1  C   UNK N   1      26.090  19.647   3.867  0.00  0.00     0.051 C 
HETATM    2  C   UNK N   1      24.622  19.410   3.963  0.00  0.00    -0.027 A 
HETATM    3  C   UNK N   1      24.131  18.514   4.921  0.00  0.00     0.025 A 
HETATM    4  C   UNK N   1      23.731  20.079   3.104  0.00  0.00     0.077 A 
HETATM    5  C   UNK N   1      22.352  19.841   3.210  0.00  0.00    -0.027 A 
HETATM    6  C   UNK N   1      21.382  20.536   2.320  0.00  0.00     0.051 C 
HETATM    7  C   UNK N   1      21.874  18.942   4.161  0.00  0.00     0.025 A 
HETATM    8  C   UNK N   1      22.753  18.276   5.020  0.00  0.00     0.017 A 
ENDROOT
BRANCH   8   9
HETATM    9  C   UNK N   1      22.211  17.349   6.021  0.00  0.00     0.159 A 
HETATM   10  N   UNK N   1      22.665  16.078   6.176  0.00  0.00    -0.334 N 
HETATM   11  C   UNK N   1      21.901  15.591   7.163  0.00  0.00     0.068 A 
ATOM     12  HN  UNK N   1      23.410  15.606   5.662  1.00  0.00     0.168 HD
HETATM   13  C   UNK N   1      21.025  16.548   7.572  0.00  0.00     0.104 A 
HETATM   14  C   UNK N   1      21.937  14.321   7.725  0.00  0.00     0.032 A 
HETATM   15  O   UNK N   1      21.228  17.630   6.863  0.00  0.00    -0.291 OA
HETATM   16  C   UNK N   1      20.100  16.316   8.585  0.00  0.00     0.040 A 
HETATM   17  C   UNK N   1      20.100  15.038   9.181  0.00  0.00     0.003 A 
HETATM   18  C   UNK N   1      21.017  14.046   8.754  0.00  0.00     0.002 A 
ENDBRANCH   8   9
BRANCH   4  19
HETATM   19  O   UNK N   1      24.197  20.946   2.185  0.00  0.00    -0.360 OA
HETATM   20  H   UNK N   1      25.120  21.061   2.075  0.00  0.00     0.217 HD
ENDBRANCH   4  19
TORSDOF 2
ENDMDL
MODEL 5
REMARK VINA RESULT:      -6.4     11.028     12.494
REMARK  2 active torsions:
REMARK  status: ('A' for Active; 'I' for Inactive)
REMARK    1  A    between atoms: C_4  and  O_5 
REMARK    2  A    between atoms: C_9  and  C_10 
ROOT
HETATM    1  C   UNK N   1      29.797  20.161  -7.282  0.00  0.00     0.051 C 
HETATM    2  C   UNK N   1      29.820  21.107  -6.132  0.00  0.00    -0.027 A 
HETATM    3  C   UNK N   1      28.913  22.174  -6.101  0.00  0.00     0.025 A 
HETATM    4  C   UNK N   1      30.739  20.936  -5.080  0.00  0.00     0.077 A 
HETATM    5  C   UNK N   1      30.745  21.840  -4.007  0.00  0.00    -0.027 A 
HETATM    6  C   UNK N   1      31.701  21.685  -2.877  0.00  0.00     0.051 C 
HETATM    7  C   UNK N   1      29.843  22.902  -3.990  0.00  0.00     0.025 A 
HETATM    8  C   UNK N   1      28.925  23.077  -5.029  0.00  0.00     0.017 A 
ENDROOT
BRANCH   8   9
HETATM    9  C   UNK N   1      27.979  24.198  -4.968  0.00  0.00     0.159 A 
HETATM   10  N   UNK N   1      27.024  24.414  -5.910  0.00  0.00    -0.334 N 
HETATM   11  C   UNK N   1      26.410  25.525  -5.484  0.00  0.00     0.068 A 
ATOM     12  HN  UNK N   1      26.824  23.861  -6.745  1.00  0.00     0.168 HD
HETATM   13  C   UNK N   1      26.988  25.948  -4.328  0.00  0.00     0.104 A 
HETATM   14  C   UNK N   1      25.349  26.198  -6.078  0.00  0.00     0.032 A 
HETATM   15  O   UNK N   1      27.953  25.120  -4.017  0.00  0.00    -0.291 OA
HETATM   16  C   UNK N   1      26.556  27.091  -3.662  0.00  0.00     0.040 A 
HETATM   17  C   UNK N   1      25.483  27.805  -4.233  0.00  0.00     0.003 A 
HETATM   18  C   UNK N   1      24.881  27.359  -5.435  0.00  0.00     0.002 A 
ENDBRANCH   8   9
BRANCH   4  19
HETATM   19  O   UNK N   1      31.610  19.909  -5.101  0.00  0.00    -0.360 OA
HETATM   20  H   UNK N   1      31.345  19.077  -5.440  0.00  0.00     0.217 HD
ENDBRANCH   4  19
TORSDOF 2
ENDMDL
MODEL 6
REMARK VINA RESULT:      -6.3     10.334     13.307
REMARK  2 active torsions:
REMARK  status: ('A' for Active; 'I' for Inactive)
REMARK    1  A    between atoms: C_4  and  O_5 
REMARK    2  A    between atoms: C_9  and  C_10 
ROOT
HETATM    1  C   UNK N   1      35.088  13.703  18.760  0.00  0.00     0.051 C 
HETATM    2  C   UNK N   1      35.254  12.794  17.592  0.00  0.00    -0.027 A 
HETATM    3  C   UNK N   1      35.438  13.341  16.315  0.00  0.00     0.025 A 
HETATM    4  C   UNK N   1      35.230  11.398  17.761  0.00  0.00     0.077 A 
HETATM    5  C   UNK N   1      35.387  10.559  16.647  0.00  0.00    -0.027 A 
HETATM    6  C   UNK N   1      35.371   9.077  16.792  0.00  0.00     0.051 C 
HETATM    7  C   UNK N   1      35.562  11.113  15.381  0.00  0.00     0.025 A 
HETATM    8  C   UNK N   1      35.591  12.500  15.205  0.00  0.00     0.017 A 
ENDROOT
BRANCH   8   9
HETATM    9  C   UNK N   1      35.796  13.047  13.858  0.00  0.00     0.159 A 
HETATM   10  N   UNK N   1      36.925  12.830  13.135  0.00  0.00    -0.334 N 
HETATM   11  C   UNK N   1      36.705  13.508  12.001  0.00  0.00     0.068 A 
ATOM     12  HN  UNK N   1      37.746  12.281  13.394  1.00  0.00     0.168 HD
HETATM   13  C   UNK N   1      35.485  14.105  12.059  0.00  0.00     0.104 A 
HETATM   14  C   UNK N   1      37.545  13.631  10.901  0.00  0.00     0.032 A 
HETATM   15  O   UNK N   1      34.931  13.812  13.209  0.00  0.00    -0.291 OA
HETATM   16  C   UNK N   1      34.995  14.887  11.017  0.00  0.00     0.040 A 
HETATM   17  C   UNK N   1      35.818  15.040   9.882  0.00  0.00     0.003 A 
HETATM   18  C   UNK N   1      37.087  14.413   9.824  0.00  0.00     0.002 A 
ENDBRANCH   8   9
BRANCH   4  19
HETATM   19  O   UNK N   1      35.059  10.866  18.986  0.00  0.00    -0.360 OA
HETATM   20  H   UNK N   1      35.746  10.366  19.380  0.00  0.00     0.217 HD
ENDBRANCH   4  19
TORSDOF 2
ENDMDL
MODEL 7
REMARK VINA RESULT:      -6.3     10.305     13.291
REMARK  2 active torsions:
REMARK  status: ('A' for Active; 'I' for Inactive)
REMARK    1  A    between atoms: C_4  and  O_5 
REMARK    2  A    between atoms: C_9  and  C_10 
ROOT
HETATM    1  C   UNK N   1      35.520   8.917  17.049  0.00  0.00     0.051 C 
HETATM    2  C   UNK N   1      35.486  10.393  16.850  0.00  0.00    -0.027 A 
HETATM    3  C   UNK N   1      35.626  10.916  15.558  0.00  0.00     0.025 A 
HETATM    4  C   UNK N   1      35.312  11.260  17.944  0.00  0.00     0.077 A 
HETATM    5  C   UNK N   1      35.285  12.647  17.735  0.00  0.00    -0.027 A 
HETATM    6  C   UNK N   1      35.098  13.592  18.870  0.00  0.00     0.051 C 
HETATM    7  C   UNK N   1      35.433  13.158  16.447  0.00  0.00     0.025 A 
HETATM    8  C   UNK N   1      35.602  12.302  15.354  0.00  0.00     0.017 A 
ENDROOT
BRANCH   8   9
HETATM    9  C   UNK N   1      35.737  12.876  14.010  0.00  0.00     0.159 A 
HETATM   10  N   UNK N   1      36.876  12.782  13.276  0.00  0.00    -0.334 N 
HETATM   11  C   UNK N   1      36.577  13.442  12.149  0.00  0.00     0.068 A 
ATOM     12  HN  UNK N   1      37.752  12.320  13.524  1.00  0.00     0.168 HD
HETATM   13  C   UNK N   1      35.302  13.909  12.222  0.00  0.00     0.104 A 
HETATM   14  C   UNK N   1      37.391  13.659  11.043  0.00  0.00     0.032 A 
HETATM   15  O   UNK N   1      34.792  13.552  13.373  0.00  0.00    -0.291 OA
HETATM   16  C   UNK N   1      34.725  14.643  11.189  0.00  0.00     0.040 A 
HETATM   17  C   UNK N   1      35.517  14.888  10.049  0.00  0.00     0.003 A 
HETATM   18  C   UNK N   1      36.844  14.396   9.976  0.00  0.00     0.002 A 
ENDBRANCH   8   9
BRANCH   4  19
HETATM   19  O   UNK N   1      35.171  10.763  19.188  0.00  0.00    -0.360 OA
HETATM   20  H   UNK N   1      35.791  10.985  19.854  0.00  0.00     0.217 HD
ENDBRANCH   4  19
TORSDOF 2
ENDMDL
MODEL 8
REMARK VINA RESULT:      -6.3     11.065     12.638
REMARK  2 active torsions:
REMARK  status: ('A' for Active; 'I' for Inactive)
REMARK    1  A    between atoms: C_4  and  O_5 
REMARK    2  A    between atoms: C_9  and  C_10 
ROOT
HETATM    1  C   UNK N   1      31.790  21.660  -2.898  0.00  0.00     0.051 C 
HETATM    2  C   UNK N   1      30.827  21.831  -4.020  0.00  0.00    -0.027 A 
HETATM    3  C   UNK N   1      29.902  22.883  -3.978  0.00  0.00     0.025 A 
HETATM    4  C   UNK N   1      30.840  20.952  -5.118  0.00  0.00     0.077 A 
HETATM    5  C   UNK N   1      29.922  21.130  -6.164  0.00  0.00    -0.027 A 
HETATM    6  C   UNK N   1      29.914  20.219  -7.342  0.00  0.00     0.051 C 
HETATM    7  C   UNK N   1      29.003  22.175  -6.110  0.00  0.00     0.025 A 
HETATM    8  C   UNK N   1      28.986  23.056  -5.024  0.00  0.00     0.017 A 
ENDROOT
BRANCH   8   9
HETATM    9  C   UNK N   1      28.013  24.155  -5.010  0.00  0.00     0.159 A 
HETATM   10  N   UNK N   1      27.028  24.284  -5.937  0.00  0.00    -0.334 N 
HETATM   11  C   UNK N   1      26.396  25.406  -5.569  0.00  0.00     0.068 A 
ATOM     12  HN  UNK N   1      26.819  23.671  -6.726  1.00  0.00     0.168 HD
HETATM   13  C   UNK N   1      26.995  25.921  -4.461  0.00  0.00     0.104 A 
HETATM   14  C   UNK N   1      25.302  26.011  -6.175  0.00  0.00     0.032 A 
HETATM   15  O   UNK N   1      27.990  25.139  -4.124  0.00  0.00    -0.291 OA
HETATM   16  C   UNK N   1      26.552  27.095  -3.861  0.00  0.00     0.040 A 
HETATM   17  C   UNK N   1      25.445  27.743  -4.447  0.00  0.00     0.003 A 
HETATM   18  C   UNK N   1      24.822  27.202  -5.598  0.00  0.00     0.002 A 
ENDBRANCH   8   9
BRANCH   4  19
HETATM   19  O   UNK N   1      31.730  19.941  -5.166  0.00  0.00    -0.360 OA
HETATM   20  H   UNK N   1      31.776  19.394  -5.924  0.00  0.00     0.217 HD
ENDBRANCH   4  19
TORSDOF 2
ENDMDL
MODEL 9
REMARK VINA RESULT:      -6.3      8.822     11.846
REMARK  2 active torsions:
REMARK  status: ('A' for Active; 'I' for Inactive)
REMARK    1  A    between atoms: C_4  and  O_5 
REMARK    2  A    between atoms: C_9  and  C_10 
ROOT
HETATM    1  C   UNK N   1      37.708   9.726  14.660  0.00  0.00     0.051 C 
HETATM    2  C   UNK N   1      36.870  10.939  14.871  0.00  0.00    -0.027 A 
HETATM    3  C   UNK N   1      36.555  11.756  13.778  0.00  0.00     0.025 A 
HETATM    4  C   UNK N   1      36.392  11.266  16.153  0.00  0.00     0.077 A 
HETATM    5  C   UNK N   1      35.606  12.415  16.331  0.00  0.00    -0.027 A 
HETATM    6  C   UNK N   1      35.081  12.787  17.673  0.00  0.00     0.051 C 
HETATM    7  C   UNK N   1      35.304  13.225  15.238  0.00  0.00     0.025 A 
HETATM    8  C   UNK N   1      35.772  12.904  13.960  0.00  0.00     0.017 A 
ENDROOT
BRANCH   8   9
HETATM    9  C   UNK N   1      35.419  13.772  12.830  0.00  0.00     0.159 A 
HETATM   10  N   UNK N   1      34.540  13.405  11.862  0.00  0.00    -0.334 N 
HETATM   11  C   UNK N   1      34.525  14.461  11.037  0.00  0.00     0.068 A 
ATOM     12  HN  UNK N   1      34.015  12.533  11.781  1.00  0.00     0.168 HD
HETATM   13  C   UNK N   1      35.372  15.416  11.507  0.00  0.00     0.104 A 
HETATM   14  C   UNK N   1      33.792  14.623   9.867  0.00  0.00     0.032 A 
HETATM   15  O   UNK N   1      35.916  14.981  12.616  0.00  0.00    -0.291 OA
HETATM   16  C   UNK N   1      35.564  16.623  10.843  0.00  0.00     0.040 A 
HETATM   17  C   UNK N   1      34.841  16.827   9.650  0.00  0.00     0.003 A 
HETATM   18  C   UNK N   1      33.958  15.832   9.166  0.00  0.00     0.002 A 
ENDBRANCH   8   9
BRANCH   4  19
HETATM   19  O   UNK N   1      36.687  10.481  17.208  0.00  0.00    -0.360 OA
HETATM   20  H   UNK N   1      36.155   9.735  17.399  0.00  0.00     0.217 HD
ENDBRANCH   4  19
TORSDOF 2
ENDMDL
