MODEL 1
REMARK VINA RESULT:      -6.5      0.000      0.000
REMARK  2 active torsions:
REMARK  status: ('A' for Active; 'I' for Inactive)
REMARK    1  A    between atoms: C_4  and  O_5 
REMARK    2  A    between atoms: C_9  and  C_10 
ROOT
HETATM    1  C   UNK N   1      24.088  18.557   4.925  0.00  0.00     0.038 A 
HETATM    2  C   UNK N   1      24.539  19.482   3.976  0.00  0.00     0.046 A 
HETATM    3 Br   UNK N   1      26.405  19.883   3.874  0.00  0.00    -0.048 Br
HETATM    4  C   UNK N   1      23.623  20.105   3.112  0.00  0.00     0.100 A 
HETATM    5  C   UNK N   1      22.259  19.794   3.202  0.00  0.00     0.046 A 
HETATM    6 Br   UNK N   1      20.974  20.615   2.052  0.00  0.00    -0.048 Br
HETATM    7  C   UNK N   1      21.819  18.869   4.146  0.00  0.00     0.038 A 
HETATM    8  C   UNK N   1      22.726  18.247   5.010  0.00  0.00     0.018 A 
ENDROOT
BRANCH   8   9
HETATM    9  C   UNK N   1      22.228  17.279   5.993  0.00  0.00     0.159 A 
HETATM   10  O   UNK N   1      21.304  17.534   6.907  0.00  0.00    -0.291 OA
HETATM   11  C   UNK N   1      21.133  16.428   7.583  0.00  0.00     0.104 A 
HETATM   12  C   UNK N   1      21.967  15.478   7.078  0.00  0.00     0.068 A 
HETATM   13  C   UNK N   1      20.274  16.167   8.646  0.00  0.00     0.040 A 
HETATM   14  C   UNK N   1      22.022  14.187   7.587  0.00  0.00     0.032 A 
HETATM   15  N   UNK N   1      22.673  15.996   6.064  0.00  0.00    -0.334 N 
HETATM   16  C   UNK N   1      21.169  13.881   8.664  0.00  0.00     0.002 A 
HETATM   17  C   UNK N   1      20.297  14.867   9.191  0.00  0.00     0.003 A 
ATOM     18  HN  UNK N   1      23.375  15.539   5.484  1.00  0.00     0.168 HD
ENDBRANCH   8   9
BRANCH   4  19
HETATM   19  O   UNK N   1      24.051  20.996   2.200  0.00  0.00    -0.358 OA
HETATM   20  H   UNK N   1      23.881  21.909   2.321  0.00  0.00     0.217 HD
ENDBRANCH   4  19
TORSDOF 2
ENDMDL
MODEL 2
REMARK VINA RESULT:      -6.4      0.096      2.240
REMARK  2 active torsions:
REMARK  status: ('A' for Active; 'I' for Inactive)
REMARK    1  A    between atoms: C_4  and  O_5 
REMARK    2  A    between atoms: C_9  and  C_10 
ROOT
HETATM    1  C   UNK N   1      21.784  18.866   4.119  0.00  0.00     0.038 A 
HETATM    2  C   UNK N   1      22.232  19.800   3.178  0.00  0.00     0.046 A 
HETATM    3 Br   UNK N   1      20.965  20.652   2.028  0.00  0.00    -0.048 Br
HETATM    4  C   UNK N   1      23.602  20.102   3.086  0.00  0.00     0.100 A 
HETATM    5  C   UNK N   1      24.513  19.468   3.941  0.00  0.00     0.046 A 
HETATM    6 Br   UNK N   1      26.384  19.842   3.853  0.00  0.00    -0.048 Br
HETATM    7  C   UNK N   1      24.058  18.543   4.879  0.00  0.00     0.038 A 
HETATM    8  C   UNK N   1      22.697  18.237   4.974  0.00  0.00     0.018 A 
ENDROOT
BRANCH   8   9
HETATM    9  C   UNK N   1      22.252  17.257   5.971  0.00  0.00     0.159 A 
HETATM   10  O   UNK N   1      21.334  17.485   6.898  0.00  0.00    -0.291 OA
HETATM   11  C   UNK N   1      21.215  16.377   7.583  0.00  0.00     0.104 A 
HETATM   12  C   UNK N   1      22.075  15.456   7.070  0.00  0.00     0.068 A 
HETATM   13  C   UNK N   1      20.384  16.092   8.662  0.00  0.00     0.040 A 
HETATM   14  C   UNK N   1      22.186  14.170   7.586  0.00  0.00     0.032 A 
HETATM   15  N   UNK N   1      22.744  15.993   6.041  0.00  0.00    -0.334 N 
HETATM   16  C   UNK N   1      21.363  13.841   8.679  0.00  0.00     0.002 A 
HETATM   17  C   UNK N   1      20.465  14.797   9.215  0.00  0.00     0.003 A 
ATOM     18  HN  UNK N   1      23.454  15.558   5.453  1.00  0.00     0.168 HD
ENDBRANCH   8   9
BRANCH   4  19
HETATM   19  O   UNK N   1      24.038  20.997   2.182  0.00  0.00    -0.358 OA
HETATM   20  H   UNK N   1      24.946  21.026   1.952  0.00  0.00     0.217 HD
ENDBRANCH   4  19
TORSDOF 2
ENDMDL
MODEL 3
REMARK VINA RESULT:      -6.2     13.866     15.733
REMARK  2 active torsions:
REMARK  status: ('A' for Active; 'I' for Inactive)
REMARK    1  A    between atoms: C_4  and  O_5 
REMARK    2  A    between atoms: C_9  and  C_10 
ROOT
HETATM    1  C   UNK N   1      36.074  14.913  13.155  0.00  0.00     0.038 A 
HETATM    2  C   UNK N   1      36.291  14.260  14.374  0.00  0.00     0.046 A 
HETATM    3 Br   UNK N   1      37.291  15.143  15.744  0.00  0.00    -0.048 Br
HETATM    4  C   UNK N   1      35.777  12.969  14.580  0.00  0.00     0.100 A 
HETATM    5  C   UNK N   1      35.044  12.341  13.564  0.00  0.00     0.046 A 
HETATM    6 Br   UNK N   1      34.327  10.586  13.794  0.00  0.00    -0.048 Br
HETATM    7  C   UNK N   1      34.828  13.000  12.355  0.00  0.00     0.038 A 
HETATM    8  C   UNK N   1      35.339  14.285  12.143  0.00  0.00     0.018 A 
ENDROOT
BRANCH   8   9
HETATM    9  C   UNK N   1      35.094  14.949  10.859  0.00  0.00     0.159 A 
HETATM   10  O   UNK N   1      35.185  14.364   9.674  0.00  0.00    -0.291 OA
HETATM   11  C   UNK N   1      34.892  15.276   8.785  0.00  0.00     0.104 A 
HETATM   12  C   UNK N   1      34.620  16.441   9.433  0.00  0.00     0.068 A 
HETATM   13  C   UNK N   1      34.840  15.173   7.399  0.00  0.00     0.040 A 
HETATM   14  C   UNK N   1      34.273  17.607   8.760  0.00  0.00     0.032 A 
HETATM   15  N   UNK N   1      34.740  16.257  10.754  0.00  0.00    -0.334 N 
HETATM   16  C   UNK N   1      34.209  17.545   7.355  0.00  0.00     0.002 A 
HETATM   17  C   UNK N   1      34.491  16.332   6.676  0.00  0.00     0.003 A 
ATOM     18  HN  UNK N   1      34.600  16.935  11.503  1.00  0.00     0.168 HD
ENDBRANCH   8   9
BRANCH   4  19
HETATM   19  O   UNK N   1      35.985  12.336  15.749  0.00  0.00    -0.358 OA
HETATM   20  H   UNK N   1      35.258  11.991  16.230  0.00  0.00     0.217 HD
ENDBRANCH   4  19
TORSDOF 2
ENDMDL
MODEL 4
REMARK VINA RESULT:      -6.1     13.968     14.662
REMARK  2 active torsions:
REMARK  status: ('A' for Active; 'I' for Inactive)
REMARK    1  A    between atoms: C_4  and  O_5 
REMARK    2  A    between atoms: C_9  and  C_10 
ROOT
HETATM    1  C   UNK N   1      30.014  22.874  -4.240  0.00  0.00     0.038 A 
HETATM    2  C   UNK N   1      30.899  21.796  -4.359  0.00  0.00     0.046 A 
HETATM    3 Br   UNK N   1      32.273  21.564  -3.050  0.00  0.00    -0.048 Br
HETATM    4  C   UNK N   1      30.772  20.899  -5.433  0.00  0.00     0.100 A 
HETATM    5  C   UNK N   1      29.756  21.086  -6.380  0.00  0.00     0.046 A 
HETATM    6 Br   UNK N   1      29.544  19.896  -7.858  0.00  0.00    -0.048 Br
HETATM    7  C   UNK N   1      28.876  22.159  -6.251  0.00  0.00     0.038 A 
HETATM    8  C   UNK N   1      28.999  23.057  -5.186  0.00  0.00     0.018 A 
ENDROOT
BRANCH   8   9
HETATM    9  C   UNK N   1      28.057  24.176  -5.081  0.00  0.00     0.159 A 
HETATM   10  O   UNK N   1      27.160  24.499  -6.000  0.00  0.00    -0.291 OA
HETATM   11  C   UNK N   1      26.516  25.541  -5.543  0.00  0.00     0.104 A 
HETATM   12  C   UNK N   1      27.028  25.864  -4.323  0.00  0.00     0.068 A 
HETATM   13  C   UNK N   1      25.477  26.261  -6.122  0.00  0.00     0.040 A 
HETATM   14  C   UNK N   1      26.552  26.934  -3.575  0.00  0.00     0.032 A 
HETATM   15  N   UNK N   1      28.008  25.009  -4.008  0.00  0.00    -0.334 N 
HETATM   16  C   UNK N   1      25.500  27.690  -4.127  0.00  0.00     0.002 A 
HETATM   17  C   UNK N   1      24.964  27.355  -5.395  0.00  0.00     0.003 A 
ATOM     18  HN  UNK N   1      28.582  24.987  -3.166  1.00  0.00     0.168 HD
ENDBRANCH   8   9
BRANCH   4  19
HETATM   19  O   UNK N   1      31.621  19.862  -5.552  0.00  0.00    -0.358 OA
HETATM   20  H   UNK N   1      32.315  19.752  -4.933  0.00  0.00     0.217 HD
ENDBRANCH   4  19
TORSDOF 2
ENDMDL
MODEL 5
REMARK VINA RESULT:      -6.1     13.796     14.793
REMARK  2 active torsions:
REMARK  status: ('A' for Active; 'I' for Inactive)
REMARK    1  A    between atoms: C_4  and  O_5 
REMARK    2  A    between atoms: C_9  and  C_10 
ROOT
HETATM    1  C   UNK N   1      34.852  16.097   9.950  0.00  0.00     0.038 A 
HETATM    2  C   UNK N   1      34.740  16.468   8.604  0.00  0.00     0.046 A 
HETATM    3 Br   UNK N   1      34.041  18.192   8.163  0.00  0.00    -0.048 Br
HETATM    4  C   UNK N   1      35.140  15.576   7.595  0.00  0.00     0.100 A 
HETATM    5  C   UNK N   1      35.653  14.318   7.941  0.00  0.00     0.046 A 
HETATM    6 Br   UNK N   1      36.207  13.069   6.606  0.00  0.00    -0.048 Br
HETATM    7  C   UNK N   1      35.765  13.959   9.282  0.00  0.00     0.038 A 
HETATM    8  C   UNK N   1      35.367  14.842  10.292  0.00  0.00     0.018 A 
ENDROOT
BRANCH   8   9
HETATM    9  C   UNK N   1      35.497  14.431  11.694  0.00  0.00     0.159 A 
HETATM   10  O   UNK N   1      34.773  13.489  12.277  0.00  0.00    -0.291 OA
HETATM   11  C   UNK N   1      35.185  13.415  13.516  0.00  0.00     0.104 A 
HETATM   12  C   UNK N   1      36.178  14.329  13.696  0.00  0.00     0.068 A 
HETATM   13  C   UNK N   1      34.751  12.583  14.543  0.00  0.00     0.040 A 
HETATM   14  C   UNK N   1      36.824  14.496  14.915  0.00  0.00     0.032 A 
HETATM   15  N   UNK N   1      36.395  14.986  12.550  0.00  0.00    -0.334 N 
HETATM   16  C   UNK N   1      36.414  13.674  15.981  0.00  0.00     0.002 A 
HETATM   17  C   UNK N   1      35.382  12.720  15.796  0.00  0.00     0.003 A 
ATOM     18  HN  UNK N   1      37.072  15.725  12.364  1.00  0.00     0.168 HD
ENDBRANCH   8   9
BRANCH   4  19
HETATM   19  O   UNK N   1      35.033  15.926   6.301  0.00  0.00    -0.358 OA
HETATM   20  H   UNK N   1      34.687  16.766   6.071  0.00  0.00     0.217 HD
ENDBRANCH   4  19
TORSDOF 2
ENDMDL
MODEL 6
REMARK VINA RESULT:      -6.1     13.538     15.396
REMARK  2 active torsions:
REMARK  status: ('A' for Active; 'I' for Inactive)
REMARK    1  A    between atoms: C_4  and  O_5 
REMARK    2  A    between atoms: C_9  and  C_10 
ROOT
HETATM    1  C   UNK N   1      35.050  12.882  11.870  0.00  0.00     0.038 A 
HETATM    2  C   UNK N   1      35.584  12.081  12.886  0.00  0.00     0.046 A 
HETATM    3 Br   UNK N   1      35.433  10.179  12.755  0.00  0.00    -0.048 Br
HETATM    4  C   UNK N   1      36.223  12.676  13.986  0.00  0.00     0.100 A 
HETATM    5  C   UNK N   1      36.326  14.072  14.060  0.00  0.00     0.046 A 
HETATM    6 Br   UNK N   1      37.182  14.928  15.537  0.00  0.00    -0.048 Br
HETATM    7  C   UNK N   1      35.796  14.862  13.043  0.00  0.00     0.038 A 
HETATM    8  C   UNK N   1      35.157  14.276  11.945  0.00  0.00     0.018 A 
ENDROOT
BRANCH   8   9
HETATM    9  C   UNK N   1      34.608  15.137  10.893  0.00  0.00     0.159 A 
HETATM   10  O   UNK N   1      35.243  16.163  10.347  0.00  0.00    -0.291 OA
HETATM   11  C   UNK N   1      34.433  16.670   9.455  0.00  0.00     0.104 A 
HETATM   12  C   UNK N   1      33.282  15.944   9.453  0.00  0.00     0.068 A 
HETATM   13  C   UNK N   1      34.623  17.756   8.605  0.00  0.00     0.040 A 
HETATM   14  C   UNK N   1      32.217  16.236   8.609  0.00  0.00     0.032 A 
HETATM   15  N   UNK N   1      33.371  14.962  10.359  0.00  0.00    -0.334 N 
HETATM   16  C   UNK N   1      32.369  17.329   7.734  0.00  0.00     0.002 A 
HETATM   17  C   UNK N   1      33.567  18.085   7.731  0.00  0.00     0.003 A 
ATOM     18  HN  UNK N   1      32.677  14.253  10.593  1.00  0.00     0.168 HD
ENDBRANCH   8   9
BRANCH   4  19
HETATM   19  O   UNK N   1      36.737  11.910  14.966  0.00  0.00    -0.358 OA
HETATM   20  H   UNK N   1      36.716  10.977  14.890  0.00  0.00     0.217 HD
ENDBRANCH   4  19
TORSDOF 2
ENDMDL
MODEL 7
REMARK VINA RESULT:      -6.1     13.983     14.798
REMARK  2 active torsions:
REMARK  status: ('A' for Active; 'I' for Inactive)
REMARK    1  A    between atoms: C_4  and  O_5 
REMARK    2  A    between atoms: C_9  and  C_10 
ROOT
HETATM    1  C   UNK N   1      28.884  22.080  -6.323  0.00  0.00     0.038 A 
HETATM    2  C   UNK N   1      29.793  21.018  -6.400  0.00  0.00     0.046 A 
HETATM    3 Br   UNK N   1      29.662  19.777  -7.848  0.00  0.00    -0.048 Br
HETATM    4  C   UNK N   1      30.788  20.873  -5.418  0.00  0.00     0.100 A 
HETATM    5  C   UNK N   1      30.867  21.797  -4.367  0.00  0.00     0.046 A 
HETATM    6 Br   UNK N   1      32.199  21.641  -3.007  0.00  0.00    -0.048 Br
HETATM    7  C   UNK N   1      29.962  22.853  -4.300  0.00  0.00     0.038 A 
HETATM    8  C   UNK N   1      28.968  23.002  -5.273  0.00  0.00     0.018 A 
ENDROOT
BRANCH   8   9
HETATM    9  C   UNK N   1      28.030  24.125  -5.173  0.00  0.00     0.159 A 
HETATM   10  O   UNK N   1      27.105  24.421  -6.073  0.00  0.00    -0.291 OA
HETATM   11  C   UNK N   1      26.475  25.476  -5.626  0.00  0.00     0.104 A 
HETATM   12  C   UNK N   1      27.024  25.834  -4.432  0.00  0.00     0.068 A 
HETATM   13  C   UNK N   1      25.418  26.180  -6.194  0.00  0.00     0.040 A 
HETATM   14  C   UNK N   1      26.571  26.926  -3.701  0.00  0.00     0.032 A 
HETATM   15  N   UNK N   1      28.014  24.987  -4.123  0.00  0.00    -0.334 N 
HETATM   16  C   UNK N   1      25.502  27.666  -4.241  0.00  0.00     0.002 A 
HETATM   17  C   UNK N   1      24.928  27.295  -5.483  0.00  0.00     0.003 A 
ATOM     18  HN  UNK N   1      28.613  24.989  -3.298  1.00  0.00     0.168 HD
ENDBRANCH   8   9
BRANCH   4  19
HETATM   19  O   UNK N   1      31.662  19.854  -5.486  0.00  0.00    -0.358 OA
HETATM   20  H   UNK N   1      31.785  19.292  -4.746  0.00  0.00     0.217 HD
ENDBRANCH   4  19
TORSDOF 2
ENDMDL
MODEL 8
REMARK VINA RESULT:      -6.1     16.030     17.036
REMARK  2 active torsions:
REMARK  status: ('A' for Active; 'I' for Inactive)
REMARK    1  A    between atoms: C_4  and  O_5 
REMARK    2  A    between atoms: C_9  and  C_10 
ROOT
HETATM    1  C   UNK N   1      37.238  12.424  12.288  0.00  0.00     0.038 A 
HETATM    2  C   UNK N   1      37.465  12.835  10.969  0.00  0.00     0.046 A 
HETATM    3 Br   UNK N   1      38.533  11.744   9.819  0.00  0.00    -0.048 Br
HETATM    4  C   UNK N   1      36.909  14.039  10.504  0.00  0.00     0.100 A 
HETATM    5  C   UNK N   1      36.126  14.822  11.364  0.00  0.00     0.046 A 
HETATM    6 Br   UNK N   1      35.351  16.467  10.780  0.00  0.00    -0.048 Br
HETATM    7  C   UNK N   1      35.901  14.403  12.673  0.00  0.00     0.038 A 
HETATM    8  C   UNK N   1      36.454  13.207  13.143  0.00  0.00     0.018 A 
ENDROOT
BRANCH   8   9
HETATM    9  C   UNK N   1      36.199  12.796  14.528  0.00  0.00     0.159 A 
HETATM   10  O   UNK N   1      36.428  11.585  15.013  0.00  0.00    -0.291 OA
HETATM   11  C   UNK N   1      36.079  11.617  16.272  0.00  0.00     0.104 A 
HETATM   12  C   UNK N   1      35.628  12.867  16.566  0.00  0.00     0.068 A 
HETATM   13  C   UNK N   1      36.126  10.605  17.227  0.00  0.00     0.040 A 
HETATM   14  C   UNK N   1      35.180  13.220  17.833  0.00  0.00     0.032 A 
HETATM   15  N   UNK N   1      35.696  13.635  15.471  0.00  0.00    -0.334 N 
HETATM   16  C   UNK N   1      35.210  12.225  18.828  0.00  0.00     0.002 A 
HETATM   17  C   UNK N   1      35.682  10.923  18.527  0.00  0.00     0.003 A 
ATOM     18  HN  UNK N   1      35.434  14.615  15.369  1.00  0.00     0.168 HD
ENDBRANCH   8   9
BRANCH   4  19
HETATM   19  O   UNK N   1      37.125  14.439   9.239  0.00  0.00    -0.358 OA
HETATM   20  H   UNK N   1      37.808  15.052   9.052  0.00  0.00     0.217 HD
ENDBRANCH   4  19
TORSDOF 2
ENDMDL
MODEL 9
REMARK VINA RESULT:      -5.9     10.109     11.335
REMARK  2 active torsions:
REMARK  status: ('A' for Active; 'I' for Inactive)
REMARK    1  A    between atoms: C_4  and  O_5 
REMARK    2  A    between atoms: C_9  and  C_10 
ROOT
HETATM    1  C   UNK N   1      30.783  16.904   7.690  0.00  0.00     0.038 A 
HETATM    2  C   UNK N   1      29.942  17.326   6.654  0.00  0.00     0.046 A 
HETATM    3 Br   UNK N   1      28.141  17.826   7.054  0.00  0.00    -0.048 Br
HETATM    4  C   UNK N   1      30.426  17.379   5.335  0.00  0.00     0.100 A 
HETATM    5  C   UNK N   1      31.751  17.011   5.065  0.00  0.00     0.046 A 
HETATM    6 Br   UNK N   1      32.454  17.063   3.290  0.00  0.00    -0.048 Br
HETATM    7  C   UNK N   1      32.583  16.597   6.103  0.00  0.00     0.038 A 
HETATM    8  C   UNK N   1      32.107  16.541   7.417  0.00  0.00     0.018 A 
ENDROOT
BRANCH   8   9
HETATM    9  C   UNK N   1      33.008  16.099   8.486  0.00  0.00     0.159 A 
HETATM   10  O   UNK N   1      33.190  14.838   8.850  0.00  0.00    -0.291 OA
HETATM   11  C   UNK N   1      34.063  14.854   9.824  0.00  0.00     0.104 A 
HETATM   12  C   UNK N   1      34.421  16.145  10.063  0.00  0.00     0.068 A 
HETATM   13  C   UNK N   1      34.595  13.793  10.549  0.00  0.00     0.040 A 
HETATM   14  C   UNK N   1      35.339  16.495  11.046  0.00  0.00     0.032 A 
HETATM   15  N   UNK N   1      33.764  16.955   9.222  0.00  0.00    -0.334 N 
HETATM   16  C   UNK N   1      35.902  15.450  11.804  0.00  0.00     0.002 A 
HETATM   17  C   UNK N   1      35.532  14.105  11.556  0.00  0.00     0.003 A 
ATOM     18  HN  UNK N   1      33.818  17.970   9.151  1.00  0.00     0.168 HD
ENDBRANCH   8   9
BRANCH   4  19
HETATM   19  O   UNK N   1      29.622  17.782   4.335  0.00  0.00    -0.358 OA
HETATM   20  H   UNK N   1      29.669  18.664   4.023  0.00  0.00     0.217 HD
ENDBRANCH   4  19
TORSDOF 2
ENDMDL
