MODEL 1
REMARK VINA RESULT:      -6.5      0.000      0.000
REMARK  1 active torsions:
REMARK  status: ('A' for Active; 'I' for Inactive)
REMARK    1  A    between atoms: C_8  and  C_9 
ROOT
HETATM    1  C   UNK N   1      35.808  12.994  13.951  0.00  0.00     0.159 A 
HETATM    2  O   UNK N   1      34.932  13.803  13.372  0.00  0.00    -0.291 OA
HETATM    3  C   UNK N   1      35.449  14.150  12.224  0.00  0.00     0.104 A 
HETATM    4  C   UNK N   1      34.935  14.996  11.247  0.00  0.00     0.040 A 
HETATM    5  C   UNK N   1      35.712  15.192  10.087  0.00  0.00     0.003 A 
HETATM    6  C   UNK N   1      36.961  14.541   9.941  0.00  0.00     0.002 A 
HETATM    7  C   UNK N   1      37.449  13.697  10.958  0.00  0.00     0.032 A 
HETATM    8  C   UNK N   1      36.656  13.536  12.087  0.00  0.00     0.068 A 
HETATM    9  N   UNK N   1      36.909  12.799  13.180  0.00  0.00    -0.334 N 
ATOM     10  HN  UNK N   1      37.730  12.230  13.382  1.00  0.00     0.168 HD
ENDROOT
BRANCH   1  11
HETATM   11  C   UNK N   1      35.624  12.379  15.270  0.00  0.00     0.016 A 
HETATM   12  C   UNK N   1      35.588  10.985  15.409  0.00  0.00     0.022 A 
HETATM   13  C   UNK N   1      35.422  10.412  16.675  0.00  0.00    -0.061 A 
HETATM   14  C   UNK N   1      35.415   8.933  16.826  0.00  0.00     0.048 C 
HETATM   15  C   UNK N   1      35.269  11.230  17.799  0.00  0.00     0.013 A 
HETATM   16  C   UNK N   1      35.294  12.620  17.660  0.00  0.00    -0.061 A 
HETATM   17  C   UNK N   1      35.113  13.493  18.848  0.00  0.00     0.048 C 
HETATM   18  C   UNK N   1      35.482  13.192  16.400  0.00  0.00     0.022 A 
ENDBRANCH   1  11
TORSDOF 1
ENDMDL
MODEL 2
REMARK VINA RESULT:      -6.5      0.025      2.078
REMARK  1 active torsions:
REMARK  status: ('A' for Active; 'I' for Inactive)
REMARK    1  A    between atoms: C_8  and  C_9 
ROOT
HETATM    1  C   UNK N   1      35.814  13.005  13.963  0.00  0.00     0.159 A 
HETATM    2  O   UNK N   1      34.939  13.809  13.376  0.00  0.00    -0.291 OA
HETATM    3  C   UNK N   1      35.457  14.144  12.224  0.00  0.00     0.104 A 
HETATM    4  C   UNK N   1      34.943  14.979  11.239  0.00  0.00     0.040 A 
HETATM    5  C   UNK N   1      35.721  15.163  10.077  0.00  0.00     0.003 A 
HETATM    6  C   UNK N   1      36.970  14.510   9.939  0.00  0.00     0.002 A 
HETATM    7  C   UNK N   1      37.457  13.676  10.965  0.00  0.00     0.032 A 
HETATM    8  C   UNK N   1      36.663  13.528  12.094  0.00  0.00     0.068 A 
HETATM    9  N   UNK N   1      36.915  12.802  13.195  0.00  0.00    -0.334 N 
ATOM     10  HN  UNK N   1      37.736  12.235  13.404  1.00  0.00     0.168 HD
ENDROOT
BRANCH   1  11
HETATM   11  C   UNK N   1      35.629  12.404  15.289  0.00  0.00     0.016 A 
HETATM   12  C   UNK N   1      35.479  13.210  16.425  0.00  0.00     0.022 A 
HETATM   13  C   UNK N   1      35.293  12.623  17.681  0.00  0.00    -0.061 A 
HETATM   14  C   UNK N   1      35.103  13.479  18.881  0.00  0.00     0.048 C 
HETATM   15  C   UNK N   1      35.279  11.230  17.807  0.00  0.00     0.013 A 
HETATM   16  C   UNK N   1      35.440  10.424  16.677  0.00  0.00    -0.061 A 
HETATM   17  C   UNK N   1      35.445   8.945  16.808  0.00  0.00     0.048 C 
HETATM   18  C   UNK N   1      35.603  11.010  15.420  0.00  0.00     0.022 A 
ENDBRANCH   1  11
TORSDOF 1
ENDMDL
MODEL 3
REMARK VINA RESULT:      -6.4     10.676     13.610
REMARK  1 active torsions:
REMARK  status: ('A' for Active; 'I' for Inactive)
REMARK    1  A    between atoms: C_8  and  C_9 
ROOT
HETATM    1  C   UNK N   1      27.423  18.763   5.543  0.00  0.00     0.159 A 
HETATM    2  O   UNK N   1      27.554  19.631   4.550  0.00  0.00    -0.291 OA
HETATM    3  C   UNK N   1      26.364  19.789   4.036  0.00  0.00     0.104 A 
HETATM    4  C   UNK N   1      25.967  20.582   2.964  0.00  0.00     0.040 A 
HETATM    5  C   UNK N   1      24.600  20.568   2.622  0.00  0.00     0.003 A 
HETATM    6  C   UNK N   1      23.683  19.775   3.354  0.00  0.00     0.002 A 
HETATM    7  C   UNK N   1      24.128  18.981   4.429  0.00  0.00     0.032 A 
HETATM    8  C   UNK N   1      25.483  19.018   4.730  0.00  0.00     0.068 A 
HETATM    9  N   UNK N   1      26.138  18.349   5.692  0.00  0.00    -0.334 N 
ATOM     10  HN  UNK N   1      25.761  17.688   6.370  1.00  0.00     0.168 HD
ENDROOT
BRANCH   1  11
HETATM   11  C   UNK N   1      28.528  18.294   6.388  0.00  0.00     0.016 A 
HETATM   12  C   UNK N   1      28.607  18.672   7.735  0.00  0.00     0.022 A 
HETATM   13  C   UNK N   1      29.660  18.209   8.530  0.00  0.00    -0.061 A 
HETATM   14  C   UNK N   1      29.727  18.583   9.967  0.00  0.00     0.048 C 
HETATM   15  C   UNK N   1      30.648  17.388   7.976  0.00  0.00     0.013 A 
HETATM   16  C   UNK N   1      30.577  17.021   6.630  0.00  0.00    -0.061 A 
HETATM   17  C   UNK N   1      31.633  16.165   6.031  0.00  0.00     0.048 C 
HETATM   18  C   UNK N   1      29.513  17.464   5.841  0.00  0.00     0.022 A 
ENDBRANCH   1  11
TORSDOF 1
ENDMDL
MODEL 4
REMARK VINA RESULT:      -6.4     10.657     13.451
REMARK  1 active torsions:
REMARK  status: ('A' for Active; 'I' for Inactive)
REMARK    1  A    between atoms: C_8  and  C_9 
ROOT
HETATM    1  C   UNK N   1      27.428  18.713   5.543  0.00  0.00     0.159 A 
HETATM    2  O   UNK N   1      27.565  19.602   4.570  0.00  0.00    -0.291 OA
HETATM    3  C   UNK N   1      26.378  19.771   4.051  0.00  0.00     0.104 A 
HETATM    4  C   UNK N   1      25.988  20.587   2.995  0.00  0.00     0.040 A 
HETATM    5  C   UNK N   1      24.623  20.579   2.642  0.00  0.00     0.003 A 
HETATM    6  C   UNK N   1      23.703  19.768   3.351  0.00  0.00     0.002 A 
HETATM    7  C   UNK N   1      24.141  18.951   4.411  0.00  0.00     0.032 A 
HETATM    8  C   UNK N   1      25.494  18.983   4.722  0.00  0.00     0.068 A 
HETATM    9  N   UNK N   1      26.144  18.294   5.673  0.00  0.00    -0.334 N 
ATOM     10  HN  UNK N   1      25.762  17.617   6.334  1.00  0.00     0.168 HD
ENDROOT
BRANCH   1  11
HETATM   11  C   UNK N   1      28.528  18.227   6.385  0.00  0.00     0.016 A 
HETATM   12  C   UNK N   1      29.474  17.328   5.874  0.00  0.00     0.022 A 
HETATM   13  C   UNK N   1      30.523  16.881   6.685  0.00  0.00    -0.061 A 
HETATM   14  C   UNK N   1      31.544  15.953   6.134  0.00  0.00     0.048 C 
HETATM   15  C   UNK N   1      30.616  17.313   8.012  0.00  0.00     0.013 A 
HETATM   16  C   UNK N   1      29.666  18.201   8.525  0.00  0.00    -0.061 A 
HETATM   17  C   UNK N   1      29.749  18.648   9.939  0.00  0.00     0.048 C 
HETATM   18  C   UNK N   1      28.632  18.665   7.710  0.00  0.00     0.022 A 
ENDBRANCH   1  11
TORSDOF 1
ENDMDL
MODEL 5
REMARK VINA RESULT:      -6.4     14.419     17.322
REMARK  1 active torsions:
REMARK  status: ('A' for Active; 'I' for Inactive)
REMARK    1  A    between atoms: C_8  and  C_9 
ROOT
HETATM    1  C   UNK N   1      23.895  19.077   3.913  0.00  0.00     0.159 A 
HETATM    2  O   UNK N   1      23.138  20.087   3.509  0.00  0.00    -0.291 OA
HETATM    3  C   UNK N   1      21.950  19.592   3.282  0.00  0.00     0.104 A 
HETATM    4  C   UNK N   1      20.802  20.234   2.830  0.00  0.00     0.040 A 
HETATM    5  C   UNK N   1      19.641  19.449   2.678  0.00  0.00     0.003 A 
HETATM    6  C   UNK N   1      19.663  18.067   2.983  0.00  0.00     0.002 A 
HETATM    7  C   UNK N   1      20.850  17.454   3.432  0.00  0.00     0.032 A 
HETATM    8  C   UNK N   1      21.972  18.261   3.562  0.00  0.00     0.068 A 
HETATM    9  N   UNK N   1      23.205  17.909   3.959  0.00  0.00    -0.334 N 
ATOM     10  HN  UNK N   1      23.542  16.985   4.230  1.00  0.00     0.168 HD
ENDROOT
BRANCH   1  11
HETATM   11  C   UNK N   1      25.315  19.194   4.266  0.00  0.00     0.016 A 
HETATM   12  C   UNK N   1      25.775  20.279   5.023  0.00  0.00     0.022 A 
HETATM   13  C   UNK N   1      27.130  20.372   5.361  0.00  0.00    -0.061 A 
HETATM   14  C   UNK N   1      27.612  21.506   6.192  0.00  0.00     0.048 C 
HETATM   15  C   UNK N   1      28.029  19.394   4.925  0.00  0.00     0.013 A 
HETATM   16  C   UNK N   1      27.573  18.318   4.160  0.00  0.00    -0.061 A 
HETATM   17  C   UNK N   1      28.528  17.286   3.677  0.00  0.00     0.048 C 
HETATM   18  C   UNK N   1      26.218  18.212   3.841  0.00  0.00     0.022 A 
ENDBRANCH   1  11
TORSDOF 1
ENDMDL
MODEL 6
REMARK VINA RESULT:      -6.4     20.458     23.754
REMARK  1 active torsions:
REMARK  status: ('A' for Active; 'I' for Inactive)
REMARK    1  A    between atoms: C_8  and  C_9 
ROOT
HETATM    1  C   UNK N   1      28.036  24.231  -4.928  0.00  0.00     0.159 A 
HETATM    2  O   UNK N   1      27.983  25.126  -3.951  0.00  0.00    -0.291 OA
HETATM    3  C   UNK N   1      27.025  25.958  -4.260  0.00  0.00     0.104 A 
HETATM    4  C   UNK N   1      26.578  27.080  -3.572  0.00  0.00     0.040 A 
HETATM    5  C   UNK N   1      25.508  27.803  -4.138  0.00  0.00     0.003 A 
HETATM    6  C   UNK N   1      24.924  27.383  -5.358  0.00  0.00     0.002 A 
HETATM    7  C   UNK N   1      25.411  26.243  -6.027  0.00  0.00     0.032 A 
HETATM    8  C   UNK N   1      26.470  25.564  -5.438  0.00  0.00     0.068 A 
HETATM    9  N   UNK N   1      27.104  24.468  -5.886  0.00  0.00    -0.334 N 
ATOM     10  HN  UNK N   1      26.928  23.942  -6.742  1.00  0.00     0.168 HD
ENDROOT
BRANCH   1  11
HETATM   11  C   UNK N   1      28.987  23.115  -4.981  0.00  0.00     0.016 A 
HETATM   12  C   UNK N   1      28.975  22.217  -6.056  0.00  0.00     0.022 A 
HETATM   13  C   UNK N   1      29.894  21.164  -6.098  0.00  0.00    -0.061 A 
HETATM   14  C   UNK N   1      29.903  20.231  -7.255  0.00  0.00     0.048 C 
HETATM   15  C   UNK N   1      30.811  20.992  -5.056  0.00  0.00     0.013 A 
HETATM   16  C   UNK N   1      30.816  21.879  -3.977  0.00  0.00    -0.061 A 
HETATM   17  C   UNK N   1      31.774  21.690  -2.858  0.00  0.00     0.048 C 
HETATM   18  C   UNK N   1      29.913  22.944  -3.946  0.00  0.00     0.022 A 
ENDBRANCH   1  11
TORSDOF 1
ENDMDL
MODEL 7
REMARK VINA RESULT:      -6.4      1.694      3.069
REMARK  1 active torsions:
REMARK  status: ('A' for Active; 'I' for Inactive)
REMARK    1  A    between atoms: C_8  and  C_9 
ROOT
HETATM    1  C   UNK N   1      35.429  13.880  12.669  0.00  0.00     0.159 A 
HETATM    2  O   UNK N   1      35.898  15.096  12.428  0.00  0.00    -0.291 OA
HETATM    3  C   UNK N   1      35.293  15.521  11.352  0.00  0.00     0.104 A 
HETATM    4  C   UNK N   1      35.441  16.729  10.678  0.00  0.00     0.040 A 
HETATM    5  C   UNK N   1      34.647  16.930   9.531  0.00  0.00     0.003 A 
HETATM    6  C   UNK N   1      33.738  15.933   9.102  0.00  0.00     0.002 A 
HETATM    7  C   UNK N   1      33.623  14.720   9.810  0.00  0.00     0.032 A 
HETATM    8  C   UNK N   1      34.428  14.559  10.930  0.00  0.00     0.068 A 
HETATM    9  N   UNK N   1      34.503  13.500  11.751  0.00  0.00    -0.334 N 
ATOM     10  HN  UNK N   1      33.989  12.621  11.697  1.00  0.00     0.168 HD
ENDROOT
BRANCH   1  11
HETATM   11  C   UNK N   1      35.854  13.033  13.790  0.00  0.00     0.016 A 
HETATM   12  C   UNK N   1      35.301  13.206  15.065  0.00  0.00     0.022 A 
HETATM   13  C   UNK N   1      35.709  12.385  16.122  0.00  0.00    -0.061 A 
HETATM   14  C   UNK N   1      35.100  12.548  17.468  0.00  0.00     0.048 C 
HETATM   15  C   UNK N   1      36.684  11.405  15.911  0.00  0.00     0.013 A 
HETATM   16  C   UNK N   1      37.244  11.238  14.642  0.00  0.00    -0.061 A 
HETATM   17  C   UNK N   1      38.294  10.212  14.416  0.00  0.00     0.048 C 
HETATM   18  C   UNK N   1      36.821  12.043  13.582  0.00  0.00     0.022 A 
ENDBRANCH   1  11
TORSDOF 1
ENDMDL
MODEL 8
REMARK VINA RESULT:      -6.4     20.456     23.836
REMARK  1 active torsions:
REMARK  status: ('A' for Active; 'I' for Inactive)
REMARK    1  A    between atoms: C_8  and  C_9 
ROOT
HETATM    1  C   UNK N   1      28.038  24.222  -4.962  0.00  0.00     0.159 A 
HETATM    2  O   UNK N   1      28.035  25.189  -4.056  0.00  0.00    -0.291 OA
HETATM    3  C   UNK N   1      27.049  25.988  -4.369  0.00  0.00     0.104 A 
HETATM    4  C   UNK N   1      26.633  27.157  -3.742  0.00  0.00     0.040 A 
HETATM    5  C   UNK N   1      25.521  27.826  -4.295  0.00  0.00     0.003 A 
HETATM    6  C   UNK N   1      24.868  27.308  -5.440  0.00  0.00     0.002 A 
HETATM    7  C   UNK N   1      25.326  26.122  -6.048  0.00  0.00     0.032 A 
HETATM    8  C   UNK N   1      26.427  25.499  -5.476  0.00  0.00     0.068 A 
HETATM    9  N   UNK N   1      27.046  24.377  -5.876  0.00  0.00    -0.334 N 
ATOM     10  HN  UNK N   1      26.824  23.784  -6.676  1.00  0.00     0.168 HD
ENDROOT
BRANCH   1  11
HETATM   11  C   UNK N   1      28.997  23.112  -4.988  0.00  0.00     0.016 A 
HETATM   12  C   UNK N   1      29.919  22.940  -3.947  0.00  0.00     0.022 A 
HETATM   13  C   UNK N   1      30.821  21.871  -3.980  0.00  0.00    -0.061 A 
HETATM   14  C   UNK N   1      31.776  21.671  -2.860  0.00  0.00     0.048 C 
HETATM   15  C   UNK N   1      30.819  20.986  -5.063  0.00  0.00     0.013 A 
HETATM   16  C   UNK N   1      29.908  21.163  -6.108  0.00  0.00    -0.061 A 
HETATM   17  C   UNK N   1      29.914  20.238  -7.270  0.00  0.00     0.048 C 
HETATM   18  C   UNK N   1      28.992  22.217  -6.064  0.00  0.00     0.022 A 
ENDBRANCH   1  11
TORSDOF 1
ENDMDL
MODEL 9
REMARK VINA RESULT:      -6.4      1.677      2.421
REMARK  1 active torsions:
REMARK  status: ('A' for Active; 'I' for Inactive)
REMARK    1  A    between atoms: C_8  and  C_9 
ROOT
HETATM    1  C   UNK N   1      35.406  13.866  12.692  0.00  0.00     0.159 A 
HETATM    2  O   UNK N   1      35.854  15.095  12.480  0.00  0.00    -0.291 OA
HETATM    3  C   UNK N   1      35.287  15.513  11.380  0.00  0.00     0.104 A 
HETATM    4  C   UNK N   1      35.433  16.729  10.721  0.00  0.00     0.040 A 
HETATM    5  C   UNK N   1      34.686  16.918   9.541  0.00  0.00     0.003 A 
HETATM    6  C   UNK N   1      33.824  15.901   9.065  0.00  0.00     0.002 A 
HETATM    7  C   UNK N   1      33.709  14.680   9.760  0.00  0.00     0.032 A 
HETATM    8  C   UNK N   1      34.467  14.532  10.914  0.00  0.00     0.068 A 
HETATM    9  N   UNK N   1      34.533  13.469  11.731  0.00  0.00    -0.334 N 
ATOM     10  HN  UNK N   1      34.045  12.577  11.649  1.00  0.00     0.168 HD
ENDROOT
BRANCH   1  11
HETATM   11  C   UNK N   1      35.803  13.022  13.825  0.00  0.00     0.016 A 
HETATM   12  C   UNK N   1      36.683  11.947  13.641  0.00  0.00     0.022 A 
HETATM   13  C   UNK N   1      37.060  11.158  14.733  0.00  0.00    -0.061 A 
HETATM   14  C   UNK N   1      38.019  10.038  14.544  0.00  0.00     0.048 C 
HETATM   15  C   UNK N   1      36.542  11.425  16.004  0.00  0.00     0.013 A 
HETATM   16  C   UNK N   1      35.654  12.490  16.186  0.00  0.00    -0.061 A 
HETATM   17  C   UNK N   1      35.085  12.767  17.530  0.00  0.00     0.048 C 
HETATM   18  C   UNK N   1      35.296  13.292  15.101  0.00  0.00     0.022 A 
ENDBRANCH   1  11
TORSDOF 1
ENDMDL
