MODEL 1
REMARK VINA RESULT:      -7.0      0.000      0.000
REMARK  7 active torsions:
REMARK  status: ('A' for Active; 'I' for Inactive)
REMARK    1  A    between atoms: C_3  and  N_9 
REMARK    2  A    between atoms: N_9  and  C_10 
REMARK    3  A    between atoms: C_11  and  C_18 
REMARK       I    between atoms: C_18  and  N_20 
REMARK    4  A    between atoms: N_20  and  O_21 
REMARK    5  A    between atoms: O_21  and  C_22 
REMARK    6  A    between atoms: C_22  and  C_23 
REMARK    7  A    between atoms: C_23  and  O_24 
ROOT
HETATM    1  C   UNK N   1      35.021  12.370  14.737  0.00  0.00     0.065 A 
HETATM    2  C   UNK N   1      35.280  13.037  13.528  0.00  0.00     0.144 A 
HETATM    3  C   UNK N   1      36.177  14.124  13.499  0.00  0.00     0.071 A 
HETATM    4  C   UNK N   1      36.793  14.507  14.685  0.00  0.00     0.034 A 
HETATM    5  C   UNK N   1      36.542  13.852  15.882  0.00  0.00     0.023 A 
HETATM    6  C   UNK N   1      35.656  12.785  15.917  0.00  0.00     0.019 A 
HETATM    7  C   UNK N   1      35.396  12.117  17.158  0.00  0.00    -0.078 C 
HETATM    8  C   UNK N   1      35.220  11.600  18.225  0.00  0.00     0.018 C 
HETATM    9  F   UNK N   1      34.660  12.630  12.391  0.00  0.00    -0.204 F 
ENDROOT
BRANCH   3  10
HETATM   10  N   UNK N   1      36.419  14.788  12.260  0.00  0.00    -0.350 N 
HETATM   11  H   UNK N   1      36.495  15.763  12.366  0.00  0.00     0.166 HD
BRANCH  10  12
HETATM   12  C   UNK N   1      36.580  14.371  10.891  0.00  0.00     0.090 A 
HETATM   13  C   UNK N   1      37.664  13.568  10.416  0.00  0.00     0.182 A 
HETATM   14  C   UNK N   1      37.740  13.209   9.070  0.00  0.00     0.157 A 
HETATM   15  F   UNK N   1      38.658  13.118  11.201  0.00  0.00    -0.200 F 
HETATM   16  C   UNK N   1      36.771  13.623   8.172  0.00  0.00     0.046 A 
HETATM   17  F   UNK N   1      38.774  12.445   8.635  0.00  0.00    -0.203 F 
HETATM   18  C   UNK N   1      35.711  14.407   8.607  0.00  0.00     0.022 A 
HETATM   19  C   UNK N   1      35.588  14.794   9.950  0.00  0.00     0.064 A 
BRANCH  19  20
HETATM   20  C   UNK N   1      34.411  15.644  10.368  0.00  0.00     0.277 C 
HETATM   21  O   UNK N   1      33.515  15.148  11.031  0.00  0.00    -0.265 OA
HETATM   22  N   UNK N   1      34.289  16.956  10.043  0.00  0.00    -0.231 N 
HETATM   23  H   UNK N   1      33.476  17.429  10.333  0.00  0.00     0.197 HD
BRANCH  22  24
HETATM   24  O   UNK N   1      35.206  17.652   9.348  0.00  0.00    -0.275 OA
BRANCH  24  25
HETATM   25  C   UNK N   1      34.551  18.340   8.291  0.00  0.00     0.227 C 
BRANCH  25  26
HETATM   26  C   UNK N   1      33.067  18.014   8.043  0.00  0.00     0.192 C 
BRANCH  26  27
HETATM   27  O   UNK N   1      32.950  16.803   7.365  0.00  0.00    -0.399 OA
HETATM   28  H   UNK N   1      33.310  15.991   7.755  0.00  0.00     0.209 HD
ENDBRANCH  26  27
ENDBRANCH  25  26
ENDBRANCH  24  25
ENDBRANCH  22  24
ENDBRANCH  19  20
ENDBRANCH  10  12
ENDBRANCH   3  10
TORSDOF 7
ENDMDL
MODEL 2
REMARK VINA RESULT:      -6.9      1.488      2.075
REMARK  7 active torsions:
REMARK  status: ('A' for Active; 'I' for Inactive)
REMARK    1  A    between atoms: C_3  and  N_9 
REMARK    2  A    between atoms: N_9  and  C_10 
REMARK    3  A    between atoms: C_11  and  C_18 
REMARK       I    between atoms: C_18  and  N_20 
REMARK    4  A    between atoms: N_20  and  O_21 
REMARK    5  A    between atoms: O_21  and  C_22 
REMARK    6  A    between atoms: C_22  and  C_23 
REMARK    7  A    between atoms: C_23  and  O_24 
ROOT
HETATM    1  C   UNK N   1      36.477  14.164  16.419  0.00  0.00     0.065 A 
HETATM    2  C   UNK N   1      36.736  14.692  15.143  0.00  0.00     0.144 A 
HETATM    3  C   UNK N   1      36.136  14.115  14.005  0.00  0.00     0.071 A 
HETATM    4  C   UNK N   1      35.288  13.028  14.181  0.00  0.00     0.034 A 
HETATM    5  C   UNK N   1      35.028  12.502  15.439  0.00  0.00     0.023 A 
HETATM    6  C   UNK N   1      35.620  13.063  16.562  0.00  0.00     0.019 A 
HETATM    7  C   UNK N   1      35.353  12.512  17.857  0.00  0.00    -0.078 C 
HETATM    8  C   UNK N   1      35.090  12.006  18.912  0.00  0.00     0.018 C 
HETATM    9  F   UNK N   1      37.567  15.758  15.012  0.00  0.00    -0.204 F 
ENDROOT
BRANCH   3  10
HETATM   10  N   UNK N   1      36.418  14.666  12.719  0.00  0.00    -0.350 N 
HETATM   11  H   UNK N   1      36.404  15.649  12.721  0.00  0.00     0.166 HD
BRANCH  10  12
HETATM   12  C   UNK N   1      36.720  14.124  11.419  0.00  0.00     0.090 A 
HETATM   13  C   UNK N   1      37.491  12.940  11.199  0.00  0.00     0.182 A 
HETATM   14  C   UNK N   1      37.733  12.485   9.902  0.00  0.00     0.157 A 
HETATM   15  F   UNK N   1      38.024  12.203  12.189  0.00  0.00    -0.200 F 
HETATM   16  C   UNK N   1      37.234  13.171   8.808  0.00  0.00     0.046 A 
HETATM   17  F   UNK N   1      38.465  11.359   9.711  0.00  0.00    -0.203 F 
HETATM   18  C   UNK N   1      36.486  14.325   8.995  0.00  0.00     0.022 A 
HETATM   19  C   UNK N   1      36.214  14.823  10.277  0.00  0.00     0.064 A 
BRANCH  19  20
HETATM   20  C   UNK N   1      35.391  16.083  10.421  0.00  0.00     0.277 C 
HETATM   21  O   UNK N   1      35.949  17.149  10.614  0.00  0.00    -0.265 OA
HETATM   22  N   UNK N   1      34.035  16.096  10.347  0.00  0.00    -0.231 N 
HETATM   23  H   UNK N   1      33.576  16.956  10.479  0.00  0.00     0.197 HD
BRANCH  22  24
HETATM   24  O   UNK N   1      33.280  15.010  10.106  0.00  0.00    -0.275 OA
BRANCH  24  25
HETATM   25  C   UNK N   1      32.571  15.210   8.889  0.00  0.00     0.227 C 
BRANCH  25  26
HETATM   26  C   UNK N   1      32.330  16.661   8.437  0.00  0.00     0.192 C 
BRANCH  26  27
HETATM   27  O   UNK N   1      31.453  17.296   9.313  0.00  0.00    -0.399 OA
HETATM   28  H   UNK N   1      30.852  17.983   8.986  0.00  0.00     0.209 HD
ENDBRANCH  26  27
ENDBRANCH  25  26
ENDBRANCH  24  25
ENDBRANCH  22  24
ENDBRANCH  19  20
ENDBRANCH  10  12
ENDBRANCH   3  10
TORSDOF 7
ENDMDL
MODEL 3
REMARK VINA RESULT:      -6.7      9.054     13.603
REMARK  7 active torsions:
REMARK  status: ('A' for Active; 'I' for Inactive)
REMARK    1  A    between atoms: C_3  and  N_9 
REMARK    2  A    between atoms: N_9  and  C_10 
REMARK    3  A    between atoms: C_11  and  C_18 
REMARK       I    between atoms: C_18  and  N_20 
REMARK    4  A    between atoms: N_20  and  O_21 
REMARK    5  A    between atoms: O_21  and  C_22 
REMARK    6  A    between atoms: C_22  and  C_23 
REMARK    7  A    between atoms: C_23  and  O_24 
ROOT
HETATM    1  C   UNK N   1      23.890  20.550   2.983  0.00  0.00     0.065 A 
HETATM    2  C   UNK N   1      24.910  20.009   3.784  0.00  0.00     0.144 A 
HETATM    3  C   UNK N   1      24.644  18.900   4.612  0.00  0.00     0.071 A 
HETATM    4  C   UNK N   1      23.363  18.360   4.607  0.00  0.00     0.034 A 
HETATM    5  C   UNK N   1      22.352  18.888   3.817  0.00  0.00     0.023 A 
HETATM    6  C   UNK N   1      22.607  19.984   3.004  0.00  0.00     0.019 A 
HETATM    7  C   UNK N   1      21.557  20.529   2.197  0.00  0.00    -0.078 C 
HETATM    8  C   UNK N   1      20.637  20.939   1.545  0.00  0.00     0.018 C 
HETATM    9  F   UNK N   1      26.149  20.563   3.758  0.00  0.00    -0.204 F 
ENDROOT
BRANCH   3  10
HETATM   10  N   UNK N   1      25.695  18.372   5.420  0.00  0.00    -0.350 N 
HETATM   11  H   UNK N   1      25.460  18.355   6.375  0.00  0.00     0.166 HD
BRANCH  10  12
HETATM   12  C   UNK N   1      27.018  17.859   5.171  0.00  0.00     0.090 A 
HETATM   13  C   UNK N   1      27.342  16.946   4.119  0.00  0.00     0.182 A 
HETATM   14  C   UNK N   1      28.653  16.501   3.949  0.00  0.00     0.157 A 
HETATM   15  F   UNK N   1      26.440  16.464   3.246  0.00  0.00    -0.200 F 
HETATM   16  C   UNK N   1      29.661  16.931   4.795  0.00  0.00     0.046 A 
HETATM   17  F   UNK N   1      28.945  15.636   2.944  0.00  0.00    -0.203 F 
HETATM   18  C   UNK N   1      29.371  17.814   5.827  0.00  0.00     0.022 A 
HETATM   19  C   UNK N   1      28.070  18.292   6.039  0.00  0.00     0.064 A 
BRANCH  19  20
HETATM   20  C   UNK N   1      27.813  19.255   7.175  0.00  0.00     0.277 C 
HETATM   21  O   UNK N   1      27.718  20.448   6.944  0.00  0.00    -0.265 OA
HETATM   22  N   UNK N   1      27.680  18.859   8.467  0.00  0.00    -0.231 N 
HETATM   23  H   UNK N   1      27.542  19.556   9.149  0.00  0.00     0.197 HD
BRANCH  22  24
HETATM   24  O   UNK N   1      27.727  17.580   8.876  0.00  0.00    -0.275 OA
BRANCH  24  25
HETATM   25  C   UNK N   1      28.923  17.382   9.618  0.00  0.00     0.227 C 
BRANCH  25  26
HETATM   26  C   UNK N   1      29.772  18.625   9.942  0.00  0.00     0.192 C 
BRANCH  26  27
HETATM   27  O   UNK N   1      30.785  18.772   9.000  0.00  0.00    -0.399 OA
HETATM   28  H   UNK N   1      31.095  18.004   8.495  0.00  0.00     0.209 HD
ENDBRANCH  26  27
ENDBRANCH  25  26
ENDBRANCH  24  25
ENDBRANCH  22  24
ENDBRANCH  19  20
ENDBRANCH  10  12
ENDBRANCH   3  10
TORSDOF 7
ENDMDL
MODEL 4
REMARK VINA RESULT:      -6.6      3.518      7.499
REMARK  7 active torsions:
REMARK  status: ('A' for Active; 'I' for Inactive)
REMARK    1  A    between atoms: C_3  and  N_9 
REMARK    2  A    between atoms: N_9  and  C_10 
REMARK    3  A    between atoms: C_11  and  C_18 
REMARK       I    between atoms: C_18  and  N_20 
REMARK    4  A    between atoms: N_20  and  O_21 
REMARK    5  A    between atoms: O_21  and  C_22 
REMARK    6  A    between atoms: C_22  and  C_23 
REMARK    7  A    between atoms: C_23  and  O_24 
ROOT
HETATM    1  C   UNK N   1      35.606  13.431  10.538  0.00  0.00     0.065 A 
HETATM    2  C   UNK N   1      36.068  13.082  11.817  0.00  0.00     0.144 A 
HETATM    3  C   UNK N   1      36.331  14.085  12.772  0.00  0.00     0.071 A 
HETATM    4  C   UNK N   1      36.116  15.412  12.416  0.00  0.00     0.034 A 
HETATM    5  C   UNK N   1      35.659  15.764  11.154  0.00  0.00     0.023 A 
HETATM    6  C   UNK N   1      35.404  14.780  10.209  0.00  0.00     0.019 A 
HETATM    7  C   UNK N   1      34.940  15.150   8.905  0.00  0.00    -0.078 C 
HETATM    8  C   UNK N   1      34.553  15.523   7.833  0.00  0.00     0.018 C 
HETATM    9  F   UNK N   1      36.262  11.774  12.128  0.00  0.00    -0.204 F 
ENDROOT
BRANCH   3  10
HETATM   10  N   UNK N   1      36.804  13.706  14.063  0.00  0.00    -0.350 N 
HETATM   11  H   UNK N   1      37.619  13.157  14.017  0.00  0.00     0.166 HD
BRANCH  10  12
HETATM   12  C   UNK N   1      36.373  13.935  15.418  0.00  0.00     0.090 A 
HETATM   13  C   UNK N   1      36.789  15.045  16.219  0.00  0.00     0.182 A 
HETATM   14  C   UNK N   1      36.319  15.190  17.524  0.00  0.00     0.157 A 
HETATM   15  F   UNK N   1      37.636  15.997  15.790  0.00  0.00    -0.200 F 
HETATM   16  C   UNK N   1      35.445  14.264  18.068  0.00  0.00     0.046 A 
HETATM   17  F   UNK N   1      36.722  16.250  18.270  0.00  0.00    -0.203 F 
HETATM   18  C   UNK N   1      35.030  13.175  17.313  0.00  0.00     0.022 A 
HETATM   19  C   UNK N   1      35.472  12.985  15.996  0.00  0.00     0.064 A 
BRANCH  19  20
HETATM   20  C   UNK N   1      34.984  11.784  15.219  0.00  0.00     0.277 C 
HETATM   21  O   UNK N   1      34.039  11.902  14.457  0.00  0.00    -0.265 OA
HETATM   22  N   UNK N   1      35.547  10.553  15.324  0.00  0.00    -0.231 N 
HETATM   23  H   UNK N   1      35.149   9.819  14.802  0.00  0.00     0.197 HD
BRANCH  22  24
HETATM   24  O   UNK N   1      36.612  10.271  16.093  0.00  0.00    -0.275 OA
BRANCH  24  25
HETATM   25  C   UNK N   1      37.493   9.429  15.361  0.00  0.00     0.227 C 
BRANCH  25  26
HETATM   26  C   UNK N   1      38.265  10.057  14.187  0.00  0.00     0.192 C 
BRANCH  26  27
HETATM   27  O   UNK N   1      38.468  11.414  14.420  0.00  0.00    -0.399 OA
HETATM   28  H   UNK N   1      39.239  11.863  14.039  0.00  0.00     0.209 HD
ENDBRANCH  26  27
ENDBRANCH  25  26
ENDBRANCH  24  25
ENDBRANCH  22  24
ENDBRANCH  19  20
ENDBRANCH  10  12
ENDBRANCH   3  10
TORSDOF 7
ENDMDL
MODEL 5
REMARK VINA RESULT:      -6.5     21.436     23.215
REMARK  7 active torsions:
REMARK  status: ('A' for Active; 'I' for Inactive)
REMARK    1  A    between atoms: C_3  and  N_9 
REMARK    2  A    between atoms: N_9  and  C_10 
REMARK    3  A    between atoms: C_11  and  C_18 
REMARK       I    between atoms: C_18  and  N_20 
REMARK    4  A    between atoms: N_20  and  O_21 
REMARK    5  A    between atoms: O_21  and  C_22 
REMARK    6  A    between atoms: C_22  and  C_23 
REMARK    7  A    between atoms: C_23  and  O_24 
ROOT
HETATM    1  C   UNK N   1      26.551  26.873  -3.524  0.00  0.00     0.065 A 
HETATM    2  C   UNK N   1      26.491  25.548  -3.988  0.00  0.00     0.144 A 
HETATM    3  C   UNK N   1      26.159  25.285  -5.332  0.00  0.00     0.071 A 
HETATM    4  C   UNK N   1      25.902  26.360  -6.175  0.00  0.00     0.034 A 
HETATM    5  C   UNK N   1      25.960  27.671  -5.724  0.00  0.00     0.023 A 
HETATM    6  C   UNK N   1      26.281  27.936  -4.400  0.00  0.00     0.019 A 
HETATM    7  C   UNK N   1      26.333  29.291  -3.938  0.00  0.00    -0.078 C 
HETATM    8  C   UNK N   1      26.360  30.445  -3.612  0.00  0.00     0.018 C 
HETATM    9  F   UNK N   1      26.752  24.525  -3.134  0.00  0.00    -0.204 F 
ENDROOT
BRANCH   3  10
HETATM   10  N   UNK N   1      26.099  23.931  -5.778  0.00  0.00    -0.350 N 
HETATM   11  H   UNK N   1      25.244  23.500  -5.553  0.00  0.00     0.166 HD
BRANCH  10  12
HETATM   12  C   UNK N   1      26.993  23.045  -6.479  0.00  0.00     0.090 A 
HETATM   13  C   UNK N   1      28.280  22.652  -5.996  0.00  0.00     0.182 A 
HETATM   14  C   UNK N   1      29.081  21.787  -6.742  0.00  0.00     0.157 A 
HETATM   15  F   UNK N   1      28.799  23.073  -4.830  0.00  0.00    -0.200 F 
HETATM   16  C   UNK N   1      28.645  21.295  -7.961  0.00  0.00     0.046 A 
HETATM   17  F   UNK N   1      30.299  21.422  -6.269  0.00  0.00    -0.203 F 
HETATM   18  C   UNK N   1      27.401  21.665  -8.454  0.00  0.00     0.022 A 
HETATM   19  C   UNK N   1      26.558  22.531  -7.743  0.00  0.00     0.064 A 
BRANCH  19  20
HETATM   20  C   UNK N   1      25.212  22.896  -8.325  0.00  0.00     0.277 C 
HETATM   21  O   UNK N   1      24.224  22.255  -8.009  0.00  0.00    -0.265 OA
HETATM   22  N   UNK N   1      25.035  23.919  -9.200  0.00  0.00    -0.231 N 
HETATM   23  H   UNK N   1      24.129  24.071  -9.552  0.00  0.00     0.197 HD
BRANCH  22  24
HETATM   24  O   UNK N   1      26.017  24.736  -9.618  0.00  0.00    -0.275 OA
BRANCH  24  25
HETATM   25  C   UNK N   1      25.466  26.025  -9.854  0.00  0.00     0.227 C 
BRANCH  25  26
HETATM   26  C   UNK N   1      24.424  26.157 -10.980  0.00  0.00     0.192 C 
BRANCH  26  27
HETATM   27  O   UNK N   1      24.347  24.970 -11.703  0.00  0.00    -0.399 OA
HETATM   28  H   UNK N   1      23.873  24.945 -12.549  0.00  0.00     0.209 HD
ENDBRANCH  26  27
ENDBRANCH  25  26
ENDBRANCH  24  25
ENDBRANCH  22  24
ENDBRANCH  19  20
ENDBRANCH  10  12
ENDBRANCH   3  10
TORSDOF 7
ENDMDL
MODEL 6
REMARK VINA RESULT:      -6.5     18.240     21.618
REMARK  7 active torsions:
REMARK  status: ('A' for Active; 'I' for Inactive)
REMARK    1  A    between atoms: C_3  and  N_9 
REMARK    2  A    between atoms: N_9  and  C_10 
REMARK    3  A    between atoms: C_11  and  C_18 
REMARK       I    between atoms: C_18  and  N_20 
REMARK    4  A    between atoms: N_20  and  O_21 
REMARK    5  A    between atoms: O_21  and  C_22 
REMARK    6  A    between atoms: C_22  and  C_23 
REMARK    7  A    between atoms: C_23  and  O_24 
ROOT
HETATM    1  C   UNK N   1      30.612  21.757  -4.871  0.00  0.00     0.065 A 
HETATM    2  C   UNK N   1      29.396  22.282  -5.339  0.00  0.00     0.144 A 
HETATM    3  C   UNK N   1      28.637  23.145  -4.523  0.00  0.00     0.071 A 
HETATM    4  C   UNK N   1      29.125  23.463  -3.261  0.00  0.00     0.034 A 
HETATM    5  C   UNK N   1      30.326  22.949  -2.792  0.00  0.00     0.023 A 
HETATM    6  C   UNK N   1      31.074  22.095  -3.590  0.00  0.00     0.019 A 
HETATM    7  C   UNK N   1      32.309  21.562  -3.097  0.00  0.00    -0.078 C 
HETATM    8  C   UNK N   1      33.333  21.149  -2.630  0.00  0.00     0.018 C 
HETATM    9  F   UNK N   1      28.955  21.950  -6.580  0.00  0.00    -0.204 F 
ENDROOT
BRANCH   3  10
HETATM   10  N   UNK N   1      27.403  23.660  -5.019  0.00  0.00    -0.350 N 
HETATM   11  H   UNK N   1      26.791  22.949  -5.314  0.00  0.00     0.166 HD
BRANCH  10  12
HETATM   12  C   UNK N   1      26.839  24.975  -5.191  0.00  0.00     0.090 A 
HETATM   13  C   UNK N   1      26.425  25.821  -4.115  0.00  0.00     0.182 A 
HETATM   14  C   UNK N   1      25.889  27.082  -4.374  0.00  0.00     0.157 A 
HETATM   15  F   UNK N   1      26.514  25.475  -2.819  0.00  0.00    -0.200 F 
HETATM   16  C   UNK N   1      25.748  27.537  -5.674  0.00  0.00     0.046 A 
HETATM   17  F   UNK N   1      25.503  27.873  -3.341  0.00  0.00    -0.203 F 
HETATM   18  C   UNK N   1      26.139  26.734  -6.736  0.00  0.00     0.022 A 
HETATM   19  C   UNK N   1      26.683  25.458  -6.530  0.00  0.00     0.064 A 
BRANCH  19  20
HETATM   20  C   UNK N   1      27.096  24.629  -7.724  0.00  0.00     0.277 C 
HETATM   21  O   UNK N   1      28.205  24.779  -8.209  0.00  0.00    -0.265 OA
HETATM   22  N   UNK N   1      26.285  23.705  -8.302  0.00  0.00    -0.231 N 
HETATM   23  H   UNK N   1      26.623  23.228  -9.093  0.00  0.00     0.197 HD
BRANCH  22  24
HETATM   24  O   UNK N   1      25.051  23.402  -7.864  0.00  0.00    -0.275 OA
BRANCH  24  25
HETATM   25  C   UNK N   1      25.051  22.058  -7.398  0.00  0.00     0.227 C 
BRANCH  25  26
HETATM   26  C   UNK N   1      25.604  20.978  -8.346  0.00  0.00     0.192 C 
BRANCH  26  27
HETATM   27  O   UNK N   1      25.094  21.159  -9.628  0.00  0.00    -0.399 OA
HETATM   28  H   UNK N   1      24.190  20.877  -9.836  0.00  0.00     0.209 HD
ENDBRANCH  26  27
ENDBRANCH  25  26
ENDBRANCH  24  25
ENDBRANCH  22  24
ENDBRANCH  19  20
ENDBRANCH  10  12
ENDBRANCH   3  10
TORSDOF 7
ENDMDL
MODEL 7
REMARK VINA RESULT:      -6.5     12.724     14.327
REMARK  7 active torsions:
REMARK  status: ('A' for Active; 'I' for Inactive)
REMARK    1  A    between atoms: C_3  and  N_9 
REMARK    2  A    between atoms: N_9  and  C_10 
REMARK    3  A    between atoms: C_11  and  C_18 
REMARK       I    between atoms: C_18  and  N_20 
REMARK    4  A    between atoms: N_20  and  O_21 
REMARK    5  A    between atoms: O_21  and  C_22 
REMARK    6  A    between atoms: C_22  and  C_23 
REMARK    7  A    between atoms: C_23  and  O_24 
ROOT
HETATM    1  C   UNK N   1      21.690  12.981  10.067  0.00  0.00     0.065 A 
HETATM    2  C   UNK N   1      21.622  13.514   8.769  0.00  0.00     0.144 A 
HETATM    3  C   UNK N   1      22.803  13.724   8.029  0.00  0.00     0.071 A 
HETATM    4  C   UNK N   1      24.020  13.386   8.611  0.00  0.00     0.034 A 
HETATM    5  C   UNK N   1      24.093  12.859   9.893  0.00  0.00     0.023 A 
HETATM    6  C   UNK N   1      22.934  12.655  10.628  0.00  0.00     0.019 A 
HETATM    7  C   UNK N   1      23.018  12.117  11.952  0.00  0.00    -0.078 C 
HETATM    8  C   UNK N   1      23.153  11.664  13.055  0.00  0.00     0.018 C 
HETATM    9  F   UNK N   1      20.414  13.827   8.234  0.00  0.00    -0.204 F 
ENDROOT
BRANCH   3  10
HETATM   10  N   UNK N   1      22.708  14.271   6.715  0.00  0.00    -0.350 N 
HETATM   11  H   UNK N   1      22.271  13.657   6.084  0.00  0.00     0.166 HD
BRANCH  10  12
HETATM   12  C   UNK N   1      23.102  15.510   6.093  0.00  0.00     0.090 A 
HETATM   13  C   UNK N   1      24.451  15.855   5.768  0.00  0.00     0.182 A 
HETATM   14  C   UNK N   1      24.742  17.078   5.164  0.00  0.00     0.157 A 
HETATM   15  F   UNK N   1      25.505  15.057   6.016  0.00  0.00    -0.200 F 
HETATM   16  C   UNK N   1      23.732  17.978   4.868  0.00  0.00     0.046 A 
HETATM   17  F   UNK N   1      26.027  17.390   4.861  0.00  0.00    -0.203 F 
HETATM   18  C   UNK N   1      22.414  17.668   5.176  0.00  0.00     0.022 A 
HETATM   19  C   UNK N   1      22.070  16.452   5.784  0.00  0.00     0.064 A 
BRANCH  19  20
HETATM   20  C   UNK N   1      20.618  16.166   6.093  0.00  0.00     0.277 C 
HETATM   21  O   UNK N   1      20.001  15.370   5.405  0.00  0.00    -0.265 OA
HETATM   22  N   UNK N   1      19.946  16.757   7.114  0.00  0.00    -0.231 N 
HETATM   23  H   UNK N   1      18.994  16.533   7.228  0.00  0.00     0.197 HD
BRANCH  22  24
HETATM   24  O   UNK N   1      20.496  17.627   7.978  0.00  0.00    -0.275 OA
BRANCH  24  25
HETATM   25  C   UNK N   1      19.552  17.908   9.003  0.00  0.00     0.227 C 
BRANCH  25  26
HETATM   26  C   UNK N   1      18.191  17.191   8.933  0.00  0.00     0.192 C 
BRANCH  26  27
HETATM   27  O   UNK N   1      18.315  15.883   9.392  0.00  0.00    -0.399 OA
HETATM   28  H   UNK N   1      17.992  15.645  10.276  0.00  0.00     0.209 HD
ENDBRANCH  26  27
ENDBRANCH  25  26
ENDBRANCH  24  25
ENDBRANCH  22  24
ENDBRANCH  19  20
ENDBRANCH  10  12
ENDBRANCH   3  10
TORSDOF 7
ENDMDL
MODEL 8
REMARK VINA RESULT:      -6.5      2.607      3.539
REMARK  7 active torsions:
REMARK  status: ('A' for Active; 'I' for Inactive)
REMARK    1  A    between atoms: C_3  and  N_9 
REMARK    2  A    between atoms: N_9  and  C_10 
REMARK    3  A    between atoms: C_11  and  C_18 
REMARK       I    between atoms: C_18  and  N_20 
REMARK    4  A    between atoms: N_20  and  O_21 
REMARK    5  A    between atoms: O_21  and  C_22 
REMARK    6  A    between atoms: C_22  and  C_23 
REMARK    7  A    between atoms: C_23  and  O_24 
ROOT
HETATM    1  C   UNK N   1      35.567  13.224  15.682  0.00  0.00     0.065 A 
HETATM    2  C   UNK N   1      35.397  13.363  14.295  0.00  0.00     0.144 A 
HETATM    3  C   UNK N   1      34.764  12.343  13.556  0.00  0.00     0.071 A 
HETATM    4  C   UNK N   1      34.314  11.215  14.232  0.00  0.00     0.034 A 
HETATM    5  C   UNK N   1      34.478  11.073  15.603  0.00  0.00     0.023 A 
HETATM    6  C   UNK N   1      35.105  12.071  16.334  0.00  0.00     0.019 A 
HETATM    7  C   UNK N   1      35.278  11.915  17.748  0.00  0.00    -0.078 C 
HETATM    8  C   UNK N   1      35.392  11.727  18.927  0.00  0.00     0.018 C 
HETATM    9  F   UNK N   1      35.847  14.481  13.671  0.00  0.00    -0.204 F 
ENDROOT
BRANCH   3  10
HETATM   10  N   UNK N   1      34.608  12.504  12.147  0.00  0.00    -0.350 N 
HETATM   11  H   UNK N   1      34.211  13.372  11.911  0.00  0.00     0.166 HD
BRANCH  10  12
HETATM   12  C   UNK N   1      34.894  11.697  10.988  0.00  0.00     0.090 A 
HETATM   13  C   UNK N   1      34.125  10.560  10.588  0.00  0.00     0.182 A 
HETATM   14  C   UNK N   1      34.474   9.836   9.448  0.00  0.00     0.157 A 
HETATM   15  F   UNK N   1      33.048  10.116  11.259  0.00  0.00    -0.200 F 
HETATM   16  C   UNK N   1      35.569  10.204   8.684  0.00  0.00     0.046 A 
HETATM   17  F   UNK N   1      33.733   8.760   9.081  0.00  0.00    -0.203 F 
HETATM   18  C   UNK N   1      36.335  11.302   9.053  0.00  0.00     0.022 A 
HETATM   19  C   UNK N   1      36.025  12.063  10.190  0.00  0.00     0.064 A 
BRANCH  19  20
HETATM   20  C   UNK N   1      36.891  13.251  10.542  0.00  0.00     0.277 C 
HETATM   21  O   UNK N   1      37.763  13.133  11.386  0.00  0.00    -0.265 OA
HETATM   22  N   UNK N   1      36.750  14.470   9.960  0.00  0.00    -0.231 N 
HETATM   23  H   UNK N   1      37.338  15.197  10.268  0.00  0.00     0.197 HD
BRANCH  22  24
HETATM   24  O   UNK N   1      35.860  14.749   8.993  0.00  0.00    -0.275 OA
BRANCH  24  25
HETATM   25  C   UNK N   1      34.885  15.642   9.515  0.00  0.00     0.227 C 
BRANCH  25  26
HETATM   26  C   UNK N   1      33.482  15.076   9.800  0.00  0.00     0.192 C 
BRANCH  26  27
HETATM   27  O   UNK N   1      33.297  14.920  11.170  0.00  0.00    -0.399 OA
HETATM   28  H   UNK N   1      33.871  15.390  11.795  0.00  0.00     0.209 HD
ENDBRANCH  26  27
ENDBRANCH  25  26
ENDBRANCH  24  25
ENDBRANCH  22  24
ENDBRANCH  19  20
ENDBRANCH  10  12
ENDBRANCH   3  10
TORSDOF 7
ENDMDL
MODEL 9
REMARK VINA RESULT:      -6.5      8.387     12.754
REMARK  7 active torsions:
REMARK  status: ('A' for Active; 'I' for Inactive)
REMARK    1  A    between atoms: C_3  and  N_9 
REMARK    2  A    between atoms: N_9  and  C_10 
REMARK    3  A    between atoms: C_11  and  C_18 
REMARK       I    between atoms: C_18  and  N_20 
REMARK    4  A    between atoms: N_20  and  O_21 
REMARK    5  A    between atoms: O_21  and  C_22 
REMARK    6  A    between atoms: C_22  and  C_23 
REMARK    7  A    between atoms: C_23  and  O_24 
ROOT
HETATM    1  C   UNK N   1      24.512  20.298   3.103  0.00  0.00     0.065 A 
HETATM    2  C   UNK N   1      25.864  20.116   3.439  0.00  0.00     0.144 A 
HETATM    3  C   UNK N   1      26.241  19.075   4.310  0.00  0.00     0.071 A 
HETATM    4  C   UNK N   1      25.250  18.240   4.815  0.00  0.00     0.034 A 
HETATM    5  C   UNK N   1      23.913  18.414   4.487  0.00  0.00     0.023 A 
HETATM    6  C   UNK N   1      23.536  19.441   3.634  0.00  0.00     0.019 A 
HETATM    7  C   UNK N   1      22.153  19.619   3.304  0.00  0.00    -0.078 C 
HETATM    8  C   UNK N   1      20.982  19.717   3.066  0.00  0.00     0.018 C 
HETATM    9  F   UNK N   1      26.802  20.950   2.922  0.00  0.00    -0.204 F 
ENDROOT
BRANCH   3  10
HETATM   10  N   UNK N   1      27.620  18.914   4.641  0.00  0.00    -0.350 N 
HETATM   11  H   UNK N   1      28.215  19.173   3.902  0.00  0.00     0.166 HD
BRANCH  10  12
HETATM   12  C   UNK N   1      28.348  18.462   5.799  0.00  0.00     0.090 A 
HETATM   13  C   UNK N   1      28.115  18.932   7.129  0.00  0.00     0.182 A 
HETATM   14  C   UNK N   1      28.868  18.437   8.195  0.00  0.00     0.157 A 
HETATM   15  F   UNK N   1      27.189  19.855   7.443  0.00  0.00    -0.200 F 
HETATM   16  C   UNK N   1      29.851  17.486   7.984  0.00  0.00     0.046 A 
HETATM   17  F   UNK N   1      28.634  18.892   9.452  0.00  0.00    -0.203 F 
HETATM   18  C   UNK N   1      30.099  17.016   6.701  0.00  0.00     0.022 A 
HETATM   19  C   UNK N   1      29.370  17.481   5.597  0.00  0.00     0.064 A 
BRANCH  19  20
HETATM   20  C   UNK N   1      29.679  16.931   4.223  0.00  0.00     0.277 C 
HETATM   21  O   UNK N   1      28.877  16.195   3.674  0.00  0.00    -0.265 OA
HETATM   22  N   UNK N   1      30.824  17.216   3.551  0.00  0.00    -0.231 N 
HETATM   23  H   UNK N   1      30.958  16.793   2.672  0.00  0.00     0.197 HD
BRANCH  22  24
HETATM   24  O   UNK N   1      31.787  18.035   4.007  0.00  0.00    -0.275 OA
BRANCH  24  25
HETATM   25  C   UNK N   1      32.946  17.262   4.288  0.00  0.00     0.227 C 
BRANCH  25  26
HETATM   26  C   UNK N   1      33.579  17.411   5.683  0.00  0.00     0.192 C 
BRANCH  26  27
HETATM   27  O   UNK N   1      34.614  16.494   5.840  0.00  0.00    -0.399 OA
HETATM   28  H   UNK N   1      35.083  16.151   5.062  0.00  0.00     0.209 HD
ENDBRANCH  26  27
ENDBRANCH  25  26
ENDBRANCH  24  25
ENDBRANCH  22  24
ENDBRANCH  19  20
ENDBRANCH  10  12
ENDBRANCH   3  10
TORSDOF 7
ENDMDL
