REMARK  5 active torsions:
REMARK  status: ('A' for Active; 'I' for Inactive)
REMARK    1  A    between atoms: C_1  and  N_16 
REMARK    2  A    between atoms: C_2  and  C_13 
REMARK    3  A    between atoms: C_7  and  N_18 
REMARK    4  A    between atoms: C_10  and  N_22 
REMARK    5  A    between atoms: C_13  and  O_20 
ROOT
HETATM    1  N   UNK N   1       9.776   4.576   0.347  0.00  0.00    -0.299 N 
ATOM      2  HN  UNK N   1      10.665   5.073   0.393  1.00  0.00     0.187 HD
HETATM    3  N   UNK N   1       8.720   5.239   0.368  0.00  0.00    -0.300 N 
ATOM      4  HN  UNK N   1       7.819   4.765   0.432  1.00  0.00     0.187 HD
ENDROOT
BRANCH   1   5
HETATM    5  C   UNK N   1       9.792   3.163   0.261  0.00  0.00     0.065 A 
HETATM    6  C   UNK N   1      11.025   2.483   0.102  0.00  0.00     0.065 A 
HETATM    7  C   UNK N   1      11.022   1.087  -0.031  0.00  0.00     0.021 A 
HETATM    8  C   UNK N   1       9.824   0.371  -0.007  0.00  0.00     0.001 A 
HETATM    9  C   UNK N   1       8.611   1.042   0.150  0.00  0.00     0.002 A 
HETATM   10  C   UNK N   1       8.593   2.432   0.280  0.00  0.00     0.032 A 
BRANCH   6  11
HETATM   11  C   UNK N   1      12.331   3.199   0.051  0.00  0.00     0.178 C 
HETATM   12  O   UNK N   1      12.390   4.413   0.170  0.00  0.00    -0.646 OA
BRANCH  11  13
HETATM   13  O   UNK N   1      13.471   2.505  -0.132  0.00  0.00    -0.773 OA
HETATM   14  H   UNK N   1      13.449   1.577  -0.260  0.00  0.00     0.167 HD
ENDBRANCH  11  13
ENDBRANCH   6  11
ENDBRANCH   1   5
BRANCH   3  15
HETATM   15  C   UNK N   1       8.779   6.652   0.304  0.00  0.00     0.048 A 
HETATM   16  C   UNK N   1       7.609   7.392   0.111  0.00  0.00     0.033 A 
HETATM   17  C   UNK N   1       7.681   8.776  -0.091  0.00  0.00     0.031 A 
HETATM   18  C   UNK N   1       8.925   9.433  -0.104  0.00  0.00     0.029 A 
HETATM   19  C   UNK N   1      10.090   8.686   0.121  0.00  0.00     0.031 A 
HETATM   20  C   UNK N   1      10.019   7.310   0.316  0.00  0.00     0.033 A 
BRANCH  18  21
HETATM   21  N   UNK N   1       9.010  10.832  -0.376  0.00  0.00    -0.390 N 
HETATM   22  C   UNK N   1       7.830  11.598  -0.685  0.00  0.00     0.149 C 
HETATM   23  C   UNK N   1      10.289  11.497  -0.427  0.00  0.00     0.149 C 
ENDBRANCH  18  21
ENDBRANCH   3  15
TORSDOF 5
