MODEL 1
REMARK VINA RESULT:      -6.3      0.000      0.000
REMARK  5 active torsions:
REMARK  status: ('A' for Active; 'I' for Inactive)
REMARK    1  A    between atoms: C_1  and  N_16 
REMARK    2  A    between atoms: C_2  and  C_13 
REMARK    3  A    between atoms: C_7  and  N_18 
REMARK    4  A    between atoms: C_10  and  N_22 
REMARK    5  A    between atoms: C_13  and  O_20 
ROOT
HETATM    1  N   UNK N   1      28.167  17.650   5.891  0.00  0.00    -0.299 N 
ATOM      2  HN  UNK N   1      27.523  16.860   5.863  1.00  0.00     0.187 HD
HETATM    3  N   UNK N   1      27.850  18.700   5.297  0.00  0.00    -0.300 N 
ATOM      4  HN  UNK N   1      28.519  19.466   5.218  1.00  0.00     0.187 HD
ENDROOT
BRANCH   1   5
HETATM    5  C   UNK N   1      29.381  17.511   6.605  0.00  0.00     0.065 A 
HETATM    6  C   UNK N   1      29.402  17.724   8.006  0.00  0.00     0.065 A 
HETATM    7  C   UNK N   1      30.621  17.631   8.692  0.00  0.00     0.021 A 
HETATM    8  C   UNK N   1      31.802  17.331   8.011  0.00  0.00     0.001 A 
HETATM    9  C   UNK N   1      31.780  17.121   6.632  0.00  0.00     0.002 A 
HETATM   10  C   UNK N   1      30.577  17.214   5.930  0.00  0.00     0.032 A 
BRANCH   6  11
HETATM   11  C   UNK N   1      28.174  18.065   8.779  0.00  0.00     0.178 C 
HETATM   12  O   UNK N   1      27.789  17.356   9.695  0.00  0.00    -0.646 OA
BRANCH  11  13
HETATM   13  O   UNK N   1      27.470  19.170   8.469  0.00  0.00    -0.773 OA
HETATM   14  H   UNK N   1      26.577  19.104   8.190  0.00  0.00     0.167 HD
ENDBRANCH  11  13
ENDBRANCH   6  11
ENDBRANCH   1   5
BRANCH   3  15
HETATM   15  C   UNK N   1      26.558  18.821   4.731  0.00  0.00     0.048 A 
HETATM   16  C   UNK N   1      26.212  19.975   4.021  0.00  0.00     0.033 A 
HETATM   17  C   UNK N   1      24.895  20.157   3.581  0.00  0.00     0.031 A 
HETATM   18  C   UNK N   1      23.911  19.188   3.848  0.00  0.00     0.029 A 
HETATM   19  C   UNK N   1      24.275  18.021   4.534  0.00  0.00     0.031 A 
HETATM   20  C   UNK N   1      25.582  17.842   4.977  0.00  0.00     0.033 A 
BRANCH  18  21
HETATM   21  N   UNK N   1      22.553  19.399   3.461  0.00  0.00    -0.390 N 
HETATM   22  C   UNK N   1      22.187  20.515   2.627  0.00  0.00     0.149 C 
HETATM   23  C   UNK N   1      21.502  18.546   3.961  0.00  0.00     0.149 C 
ENDBRANCH  18  21
ENDBRANCH   3  15
TORSDOF 5
ENDMDL
MODEL 2
REMARK VINA RESULT:      -6.2      3.453      5.204
REMARK  5 active torsions:
REMARK  status: ('A' for Active; 'I' for Inactive)
REMARK    1  A    between atoms: C_1  and  N_16 
REMARK    2  A    between atoms: C_2  and  C_13 
REMARK    3  A    between atoms: C_7  and  N_18 
REMARK    4  A    between atoms: C_10  and  N_22 
REMARK    5  A    between atoms: C_13  and  O_20 
ROOT
HETATM    1  N   UNK N   1      31.901  17.080   8.125  0.00  0.00    -0.299 N 
ATOM      2  HN  UNK N   1      32.134  17.587   7.271  1.00  0.00     0.187 HD
HETATM    3  N   UNK N   1      30.720  17.094   8.524  0.00  0.00    -0.300 N 
ATOM      4  HN  UNK N   1      30.481  16.687   9.429  1.00  0.00     0.187 HD
ENDROOT
BRANCH   1   5
HETATM    5  C   UNK N   1      32.933  16.389   8.805  0.00  0.00     0.065 A 
HETATM    6  C   UNK N   1      34.265  16.866   8.732  0.00  0.00     0.065 A 
HETATM    7  C   UNK N   1      35.284  16.144   9.370  0.00  0.00     0.021 A 
HETATM    8  C   UNK N   1      34.996  14.972  10.070  0.00  0.00     0.001 A 
HETATM    9  C   UNK N   1      33.684  14.504  10.142  0.00  0.00     0.002 A 
HETATM   10  C   UNK N   1      32.656  15.206   9.510  0.00  0.00     0.032 A 
BRANCH   6  11
HETATM   11  C   UNK N   1      34.631  18.101   7.982  0.00  0.00     0.178 C 
HETATM   12  O   UNK N   1      34.370  18.219   6.795  0.00  0.00    -0.646 OA
BRANCH  11  13
HETATM   13  O   UNK N   1      35.263  19.108   8.615  0.00  0.00    -0.773 OA
HETATM   14  H   UNK N   1      35.286  19.143   9.551  0.00  0.00     0.167 HD
ENDBRANCH  11  13
ENDBRANCH   6  11
ENDBRANCH   1   5
BRANCH   3  15
HETATM   15  C   UNK N   1      29.715  17.678   7.717  0.00  0.00     0.048 A 
HETATM   16  C   UNK N   1      29.626  17.346   6.362  0.00  0.00     0.033 A 
HETATM   17  C   UNK N   1      28.724  18.024   5.533  0.00  0.00     0.031 A 
HETATM   18  C   UNK N   1      27.903  19.043   6.051  0.00  0.00     0.029 A 
HETATM   19  C   UNK N   1      27.979  19.347   7.417  0.00  0.00     0.031 A 
HETATM   20  C   UNK N   1      28.879  18.678   8.240  0.00  0.00     0.033 A 
BRANCH  18  21
HETATM   21  N   UNK N   1      27.031  19.783   5.197  0.00  0.00    -0.390 N 
HETATM   22  C   UNK N   1      26.977  19.515   3.783  0.00  0.00     0.149 C 
HETATM   23  C   UNK N   1      26.240  20.872   5.716  0.00  0.00     0.149 C 
ENDBRANCH  18  21
ENDBRANCH   3  15
TORSDOF 5
ENDMDL
MODEL 3
REMARK VINA RESULT:      -6.2      9.260     13.182
REMARK  5 active torsions:
REMARK  status: ('A' for Active; 'I' for Inactive)
REMARK    1  A    between atoms: C_1  and  N_16 
REMARK    2  A    between atoms: C_2  and  C_13 
REMARK    3  A    between atoms: C_7  and  N_18 
REMARK    4  A    between atoms: C_10  and  N_22 
REMARK    5  A    between atoms: C_13  and  O_20 
ROOT
HETATM    1  N   UNK N   1      34.512  14.069  11.508  0.00  0.00    -0.299 N 
ATOM      2  HN  UNK N   1      33.810  14.421  12.158  1.00  0.00     0.187 HD
HETATM    3  N   UNK N   1      35.485  13.438  11.966  0.00  0.00    -0.300 N 
ATOM      4  HN  UNK N   1      36.255  13.168  11.353  1.00  0.00     0.187 HD
ENDROOT
BRANCH   1   5
HETATM    5  C   UNK N   1      34.341  14.315  10.125  0.00  0.00     0.065 A 
HETATM    6  C   UNK N   1      34.919  15.469   9.540  0.00  0.00     0.065 A 
HETATM    7  C   UNK N   1      34.700  15.727   8.179  0.00  0.00     0.021 A 
HETATM    8  C   UNK N   1      33.925  14.861   7.405  0.00  0.00     0.001 A 
HETATM    9  C   UNK N   1      33.357  13.726   7.982  0.00  0.00     0.002 A 
HETATM   10  C   UNK N   1      33.560  13.454   9.337  0.00  0.00     0.032 A 
BRANCH   6  11
HETATM   11  C   UNK N   1      35.739  16.436  10.324  0.00  0.00     0.178 C 
HETATM   12  O   UNK N   1      35.435  17.617  10.385  0.00  0.00    -0.646 OA
BRANCH  11  13
HETATM   13  O   UNK N   1      36.838  16.010  10.976  0.00  0.00    -0.773 OA
HETATM   14  H   UNK N   1      36.917  16.125  11.903  0.00  0.00     0.167 HD
ENDBRANCH  11  13
ENDBRANCH   6  11
ENDBRANCH   1   5
BRANCH   3  15
HETATM   15  C   UNK N   1      35.517  13.099  13.340  0.00  0.00     0.048 A 
HETATM   16  C   UNK N   1      34.615  12.161  13.849  0.00  0.00     0.033 A 
HETATM   17  C   UNK N   1      34.551  11.927  15.229  0.00  0.00     0.031 A 
HETATM   18  C   UNK N   1      35.388  12.632  16.113  0.00  0.00     0.029 A 
HETATM   19  C   UNK N   1      36.311  13.549  15.589  0.00  0.00     0.031 A 
HETATM   20  C   UNK N   1      36.370  13.785  14.219  0.00  0.00     0.033 A 
BRANCH  18  21
HETATM   21  N   UNK N   1      35.282  12.447  17.525  0.00  0.00    -0.390 N 
HETATM   22  C   UNK N   1      35.232  11.126  18.096  0.00  0.00     0.149 C 
HETATM   23  C   UNK N   1      35.140  13.579  18.408  0.00  0.00     0.149 C 
ENDBRANCH  18  21
ENDBRANCH   3  15
TORSDOF 5
ENDMDL
MODEL 4
REMARK VINA RESULT:      -6.0      3.727      9.044
REMARK  5 active torsions:
REMARK  status: ('A' for Active; 'I' for Inactive)
REMARK    1  A    between atoms: C_1  and  N_16 
REMARK    2  A    between atoms: C_2  and  C_13 
REMARK    3  A    between atoms: C_7  and  N_18 
REMARK    4  A    between atoms: C_10  and  N_22 
REMARK    5  A    between atoms: C_13  and  O_20 
ROOT
HETATM    1  N   UNK N   1      30.782  16.907   7.593  0.00  0.00    -0.299 N 
ATOM      2  HN  UNK N   1      30.581  15.978   7.963  1.00  0.00     0.187 HD
HETATM    3  N   UNK N   1      31.881  17.431   7.863  0.00  0.00    -0.300 N 
ATOM      4  HN  UNK N   1      32.066  18.398   7.598  1.00  0.00     0.187 HD
ENDROOT
BRANCH   1   5
HETATM    5  C   UNK N   1      29.804  17.546   6.794  0.00  0.00     0.065 A 
HETATM    6  C   UNK N   1      28.741  18.249   7.414  0.00  0.00     0.065 A 
HETATM    7  C   UNK N   1      27.752  18.836   6.612  0.00  0.00     0.021 A 
HETATM    8  C   UNK N   1      27.809  18.734   5.221  0.00  0.00     0.001 A 
HETATM    9  C   UNK N   1      28.856  18.042   4.612  0.00  0.00     0.002 A 
HETATM   10  C   UNK N   1      29.848  17.447   5.394  0.00  0.00     0.032 A 
BRANCH   6  11
HETATM   11  C   UNK N   1      28.622  18.373   8.894  0.00  0.00     0.178 C 
HETATM   12  O   UNK N   1      29.577  18.706   9.578  0.00  0.00    -0.646 OA
BRANCH  11  13
HETATM   13  O   UNK N   1      27.446  18.113   9.498  0.00  0.00    -0.773 OA
HETATM   14  H   UNK N   1      26.696  17.864   8.994  0.00  0.00     0.167 HD
ENDBRANCH  11  13
ENDBRANCH   6  11
ENDBRANCH   1   5
BRANCH   3  15
HETATM   15  C   UNK N   1      32.869  16.676   8.540  0.00  0.00     0.048 A 
HETATM   16  C   UNK N   1      32.606  15.355   8.912  0.00  0.00     0.033 A 
HETATM   17  C   UNK N   1      33.526  14.653   9.701  0.00  0.00     0.031 A 
HETATM   18  C   UNK N   1      34.717  15.268  10.129  0.00  0.00     0.029 A 
HETATM   19  C   UNK N   1      34.985  16.584   9.725  0.00  0.00     0.031 A 
HETATM   20  C   UNK N   1      34.069  17.283   8.946  0.00  0.00     0.033 A 
BRANCH  18  21
HETATM   21  N   UNK N   1      35.626  14.581  10.989  0.00  0.00    -0.390 N 
HETATM   22  C   UNK N   1      36.958  14.255  10.547  0.00  0.00     0.149 C 
HETATM   23  C   UNK N   1      35.208  14.125  12.292  0.00  0.00     0.149 C 
ENDBRANCH  18  21
ENDBRANCH   3  15
TORSDOF 5
ENDMDL
MODEL 5
REMARK VINA RESULT:      -5.9     11.174     14.565
REMARK  5 active torsions:
REMARK  status: ('A' for Active; 'I' for Inactive)
REMARK    1  A    between atoms: C_1  and  N_16 
REMARK    2  A    between atoms: C_2  and  C_13 
REMARK    3  A    between atoms: C_7  and  N_18 
REMARK    4  A    between atoms: C_10  and  N_22 
REMARK    5  A    between atoms: C_13  and  O_20 
ROOT
HETATM    1  N   UNK N   1      35.448  12.389  15.958  0.00  0.00    -0.299 N 
ATOM      2  HN  UNK N   1      34.657  12.815  15.477  1.00  0.00     0.187 HD
HETATM    3  N   UNK N   1      36.520  12.251  15.335  0.00  0.00    -0.300 N 
ATOM      4  HN  UNK N   1      37.292  11.732  15.754  1.00  0.00     0.187 HD
ENDROOT
BRANCH   1   5
HETATM    5  C   UNK N   1      35.285  11.980  17.303  0.00  0.00     0.065 A 
HETATM    6  C   UNK N   1      35.365  12.939  18.343  0.00  0.00     0.065 A 
HETATM    7  C   UNK N   1      35.250  12.513  19.674  0.00  0.00     0.021 A 
HETATM    8  C   UNK N   1      35.060  11.164  19.977  0.00  0.00     0.001 A 
HETATM    9  C   UNK N   1      34.981  10.221  18.952  0.00  0.00     0.002 A 
HETATM   10  C   UNK N   1      35.097  10.625  17.621  0.00  0.00     0.032 A 
BRANCH   6  11
HETATM   11  C   UNK N   1      35.586  14.389  18.078  0.00  0.00     0.178 C 
HETATM   12  O   UNK N   1      36.313  14.760  17.169  0.00  0.00    -0.646 OA
BRANCH  11  13
HETATM   13  O   UNK N   1      34.981  15.313  18.848  0.00  0.00    -0.773 OA
HETATM   14  H   UNK N   1      35.447  15.734  19.543  0.00  0.00     0.167 HD
ENDBRANCH  11  13
ENDBRANCH   6  11
ENDBRANCH   1   5
BRANCH   3  15
HETATM   15  C   UNK N   1      36.659  12.816  14.045  0.00  0.00     0.048 A 
HETATM   16  C   UNK N   1      36.089  14.061  13.763  0.00  0.00     0.033 A 
HETATM   17  C   UNK N   1      36.105  14.558  12.454  0.00  0.00     0.031 A 
HETATM   18  C   UNK N   1      36.689  13.813  11.413  0.00  0.00     0.029 A 
HETATM   19  C   UNK N   1      37.284  12.580  11.712  0.00  0.00     0.031 A 
HETATM   20  C   UNK N   1      37.264  12.083  13.012  0.00  0.00     0.033 A 
BRANCH  18  21
HETATM   21  N   UNK N   1      36.649  14.284  10.066  0.00  0.00    -0.390 N 
HETATM   22  C   UNK N   1      37.716  13.985   9.146  0.00  0.00     0.149 C 
HETATM   23  C   UNK N   1      35.577  15.137   9.614  0.00  0.00     0.149 C 
ENDBRANCH  18  21
ENDBRANCH   3  15
TORSDOF 5
ENDMDL
MODEL 6
REMARK VINA RESULT:      -5.9      5.781      6.935
REMARK  5 active torsions:
REMARK  status: ('A' for Active; 'I' for Inactive)
REMARK    1  A    between atoms: C_1  and  N_16 
REMARK    2  A    between atoms: C_2  and  C_13 
REMARK    3  A    between atoms: C_7  and  N_18 
REMARK    4  A    between atoms: C_10  and  N_22 
REMARK    5  A    between atoms: C_13  and  O_20 
ROOT
HETATM    1  N   UNK N   1      22.141  14.390   7.154  0.00  0.00    -0.299 N 
ATOM      2  HN  UNK N   1      21.417  14.207   6.460  1.00  0.00     0.187 HD
HETATM    3  N   UNK N   1      22.840  15.416   7.032  0.00  0.00    -0.300 N 
ATOM      4  HN  UNK N   1      23.639  15.567   7.647  1.00  0.00     0.187 HD
ENDROOT
BRANCH   1   5
HETATM    5  C   UNK N   1      22.311  13.470   8.217  0.00  0.00     0.065 A 
HETATM    6  C   UNK N   1      21.459  13.538   9.347  0.00  0.00     0.065 A 
HETATM    7  C   UNK N   1      21.669  12.652  10.414  0.00  0.00     0.021 A 
HETATM    8  C   UNK N   1      22.701  11.713  10.368  0.00  0.00     0.001 A 
HETATM    9  C   UNK N   1      23.538  11.647   9.254  0.00  0.00     0.002 A 
HETATM   10  C   UNK N   1      23.348  12.523   8.184  0.00  0.00     0.032 A 
BRANCH   6  11
HETATM   11  C   UNK N   1      20.354  14.532   9.456  0.00  0.00     0.178 C 
HETATM   12  O   UNK N   1      19.249  14.206   9.859  0.00  0.00    -0.646 OA
BRANCH  11  13
HETATM   13  O   UNK N   1      20.568  15.815   9.104  0.00  0.00    -0.773 OA
HETATM   14  H   UNK N   1      20.537  16.497   9.746  0.00  0.00     0.167 HD
ENDBRANCH  11  13
ENDBRANCH   6  11
ENDBRANCH   1   5
BRANCH   3  15
HETATM   15  C   UNK N   1      22.519  16.367   6.033  0.00  0.00     0.048 A 
HETATM   16  C   UNK N   1      23.142  16.306   4.784  0.00  0.00     0.033 A 
HETATM   17  C   UNK N   1      22.931  17.323   3.845  0.00  0.00     0.031 A 
HETATM   18  C   UNK N   1      22.095  18.413   4.148  0.00  0.00     0.029 A 
HETATM   19  C   UNK N   1      21.450  18.449   5.393  0.00  0.00     0.031 A 
HETATM   20  C   UNK N   1      21.664  17.441   6.328  0.00  0.00     0.033 A 
BRANCH  18  21
HETATM   21  N   UNK N   1      21.928  19.487   3.222  0.00  0.00    -0.390 N 
HETATM   22  C   UNK N   1      23.028  20.357   2.894  0.00  0.00     0.149 C 
HETATM   23  C   UNK N   1      20.635  19.776   2.653  0.00  0.00     0.149 C 
ENDBRANCH  18  21
ENDBRANCH   3  15
TORSDOF 5
ENDMDL
MODEL 7
REMARK VINA RESULT:      -5.9      8.803     11.673
REMARK  5 active torsions:
REMARK  status: ('A' for Active; 'I' for Inactive)
REMARK    1  A    between atoms: C_1  and  N_16 
REMARK    2  A    between atoms: C_2  and  C_13 
REMARK    3  A    between atoms: C_7  and  N_18 
REMARK    4  A    between atoms: C_10  and  N_22 
REMARK    5  A    between atoms: C_13  and  O_20 
ROOT
HETATM    1  N   UNK N   1      34.619  13.223  12.953  0.00  0.00    -0.299 N 
ATOM      2  HN  UNK N   1      34.068  14.073  13.062  1.00  0.00     0.187 HD
HETATM    3  N   UNK N   1      35.130  12.982  11.841  0.00  0.00    -0.300 N 
ATOM      4  HN  UNK N   1      35.594  12.089  11.673  1.00  0.00     0.187 HD
ENDROOT
BRANCH   1   5
HETATM    5  C   UNK N   1      34.774  12.365  14.068  0.00  0.00     0.065 A 
HETATM    6  C   UNK N   1      35.729  12.677  15.067  0.00  0.00     0.065 A 
HETATM    7  C   UNK N   1      35.906  11.794  16.142  0.00  0.00     0.021 A 
HETATM    8  C   UNK N   1      35.154  10.622  16.233  0.00  0.00     0.001 A 
HETATM    9  C   UNK N   1      34.213  10.316  15.249  0.00  0.00     0.002 A 
HETATM   10  C   UNK N   1      34.025  11.181  14.169  0.00  0.00     0.032 A 
BRANCH   6  11
HETATM   11  C   UNK N   1      36.572  13.905  15.010  0.00  0.00     0.178 C 
HETATM   12  O   UNK N   1      36.856  14.523  16.025  0.00  0.00    -0.646 OA
BRANCH  11  13
HETATM   13  O   UNK N   1      37.030  14.351  13.824  0.00  0.00    -0.773 OA
HETATM   14  H   UNK N   1      36.957  13.821  13.055  0.00  0.00     0.167 HD
ENDBRANCH  11  13
ENDBRANCH   6  11
ENDBRANCH   1   5
BRANCH   3  15
HETATM   15  C   UNK N   1      35.061  13.954  10.813  0.00  0.00     0.048 A 
HETATM   16  C   UNK N   1      35.153  15.312  11.129  0.00  0.00     0.033 A 
HETATM   17  C   UNK N   1      34.946  16.278  10.136  0.00  0.00     0.031 A 
HETATM   18  C   UNK N   1      34.644  15.893   8.817  0.00  0.00     0.029 A 
HETATM   19  C   UNK N   1      34.584  14.528   8.504  0.00  0.00     0.031 A 
HETATM   20  C   UNK N   1      34.784  13.568   9.492  0.00  0.00     0.033 A 
BRANCH  18  21
HETATM   21  N   UNK N   1      34.366  16.873   7.816  0.00  0.00    -0.390 N 
HETATM   22  C   UNK N   1      34.203  16.493   6.436  0.00  0.00     0.149 C 
HETATM   23  C   UNK N   1      34.322  18.275   8.149  0.00  0.00     0.149 C 
ENDBRANCH  18  21
ENDBRANCH   3  15
TORSDOF 5
ENDMDL
MODEL 8
REMARK VINA RESULT:      -5.8      5.142     10.243
REMARK  5 active torsions:
REMARK  status: ('A' for Active; 'I' for Inactive)
REMARK    1  A    between atoms: C_1  and  N_16 
REMARK    2  A    between atoms: C_2  and  C_13 
REMARK    3  A    between atoms: C_7  and  N_18 
REMARK    4  A    between atoms: C_10  and  N_22 
REMARK    5  A    between atoms: C_13  and  O_20 
ROOT
HETATM    1  N   UNK N   1      31.898  16.568   9.016  0.00  0.00    -0.299 N 
ATOM      2  HN  UNK N   1      31.866  15.586   9.289  1.00  0.00     0.187 HD
HETATM    3  N   UNK N   1      32.997  17.156   9.032  0.00  0.00    -0.300 N 
ATOM      4  HN  UNK N   1      33.042  18.162   8.869  1.00  0.00     0.187 HD
ENDROOT
BRANCH   1   5
HETATM    5  C   UNK N   1      30.693  17.206   8.634  0.00  0.00     0.065 A 
HETATM    6  C   UNK N   1      30.286  17.183   7.276  0.00  0.00     0.065 A 
HETATM    7  C   UNK N   1      29.117  17.860   6.903  0.00  0.00     0.021 A 
HETATM    8  C   UNK N   1      28.358  18.549   7.851  0.00  0.00     0.001 A 
HETATM    9  C   UNK N   1      28.760  18.570   9.187  0.00  0.00     0.002 A 
HETATM   10  C   UNK N   1      29.923  17.905   9.578  0.00  0.00     0.032 A 
BRANCH   6  11
HETATM   11  C   UNK N   1      31.068  16.479   6.220  0.00  0.00     0.178 C 
HETATM   12  O   UNK N   1      30.580  15.560   5.582  0.00  0.00    -0.646 OA
BRANCH  11  13
HETATM   13  O   UNK N   1      32.335  16.855   5.960  0.00  0.00    -0.773 OA
HETATM   14  H   UNK N   1      32.912  17.103   6.656  0.00  0.00     0.167 HD
ENDBRANCH  11  13
ENDBRANCH   6  11
ENDBRANCH   1   5
BRANCH   3  15
HETATM   15  C   UNK N   1      34.181  16.421   9.280  0.00  0.00     0.048 A 
HETATM   16  C   UNK N   1      34.510  15.333   8.467  0.00  0.00     0.033 A 
HETATM   17  C   UNK N   1      35.604  14.521   8.792  0.00  0.00     0.031 A 
HETATM   18  C   UNK N   1      36.378  14.789   9.936  0.00  0.00     0.029 A 
HETATM   19  C   UNK N   1      36.058  15.901  10.728  0.00  0.00     0.031 A 
HETATM   20  C   UNK N   1      34.968  16.704  10.408  0.00  0.00     0.033 A 
BRANCH  18  21
HETATM   21  N   UNK N   1      37.453  13.926  10.310  0.00  0.00    -0.390 N 
HETATM   22  C   UNK N   1      37.355  13.086  11.476  0.00  0.00     0.149 C 
HETATM   23  C   UNK N   1      38.694  13.934   9.576  0.00  0.00     0.149 C 
ENDBRANCH  18  21
ENDBRANCH   3  15
TORSDOF 5
ENDMDL
MODEL 9
REMARK VINA RESULT:      -5.7      9.035     12.041
REMARK  5 active torsions:
REMARK  status: ('A' for Active; 'I' for Inactive)
REMARK    1  A    between atoms: C_1  and  N_16 
REMARK    2  A    between atoms: C_2  and  C_13 
REMARK    3  A    between atoms: C_7  and  N_18 
REMARK    4  A    between atoms: C_10  and  N_22 
REMARK    5  A    between atoms: C_13  and  O_20 
ROOT
HETATM    1  N   UNK N   1      35.655  13.791  13.431  0.00  0.00    -0.299 N 
ATOM      2  HN  UNK N   1      36.268  14.602  13.364  1.00  0.00     0.187 HD
HETATM    3  N   UNK N   1      34.825  13.593  12.522  0.00  0.00    -0.300 N 
ATOM      4  HN  UNK N   1      34.129  12.853  12.617  1.00  0.00     0.187 HD
ENDROOT
BRANCH   1   5
HETATM    5  C   UNK N   1      35.783  12.935  14.552  0.00  0.00     0.065 A 
HETATM    6  C   UNK N   1      36.647  11.815  14.486  0.00  0.00     0.065 A 
HETATM    7  C   UNK N   1      36.727  10.948  15.586  0.00  0.00     0.021 A 
HETATM    8  C   UNK N   1      35.968  11.182  16.734  0.00  0.00     0.001 A 
HETATM    9  C   UNK N   1      35.118  12.286  16.798  0.00  0.00     0.002 A 
HETATM   10  C   UNK N   1      35.022  13.158  15.712  0.00  0.00     0.032 A 
BRANCH   6  11
HETATM   11  C   UNK N   1      37.465  11.508  13.278  0.00  0.00     0.178 C 
HETATM   12  O   UNK N   1      37.717  10.355  12.963  0.00  0.00    -0.646 OA
BRANCH  11  13
HETATM   13  O   UNK N   1      37.942  12.511  12.517  0.00  0.00    -0.773 OA
HETATM   14  H   UNK N   1      38.464  12.329  11.760  0.00  0.00     0.167 HD
ENDBRANCH  11  13
ENDBRANCH   6  11
ENDBRANCH   1   5
BRANCH   3  15
HETATM   15  C   UNK N   1      34.853  14.401  11.360  0.00  0.00     0.048 A 
HETATM   16  C   UNK N   1      35.252  15.737  11.448  0.00  0.00     0.033 A 
HETATM   17  C   UNK N   1      35.148  16.574  10.330  0.00  0.00     0.031 A 
HETATM   18  C   UNK N   1      34.642  16.082   9.113  0.00  0.00     0.029 A 
HETATM   19  C   UNK N   1      34.274  14.732   9.027  0.00  0.00     0.031 A 
HETATM   20  C   UNK N   1      34.371  13.902  10.140  0.00  0.00     0.033 A 
BRANCH  18  21
HETATM   21  N   UNK N   1      34.472  16.946   7.989  0.00  0.00    -0.390 N 
HETATM   22  C   UNK N   1      34.450  18.377   8.154  0.00  0.00     0.149 C 
HETATM   23  C   UNK N   1      34.237  16.406   6.673  0.00  0.00     0.149 C 
ENDBRANCH  18  21
ENDBRANCH   3  15
TORSDOF 5
ENDMDL
