MODEL 1
REMARK VINA RESULT:      -6.7      0.000      0.000
REMARK  5 active torsions:
REMARK  status: ('A' for Active; 'I' for Inactive)
REMARK    1  A    between atoms: C_6  and  N_7 
REMARK       I    between atoms: N_7  and  C_8 
REMARK    2  A    between atoms: C_8  and  C_11 
REMARK    3  A    between atoms: C_10  and  N_25 
REMARK    4  A    between atoms: C_13  and  S_17 
REMARK    5  A    between atoms: S_17  and  C_19 
ROOT
HETATM    1  C   UNK N   1      29.684  18.023   8.835  0.00  0.00     0.044 A 
HETATM    2  C   UNK N   1      30.657  17.270   8.134  0.00  0.00     0.060 A 
HETATM    3  C   UNK N   1      30.513  17.106   6.743  0.00  0.00     0.041 A 
HETATM    4  C   UNK N   1      29.411  17.644   6.057  0.00  0.00     0.048 A 
HETATM    5  C   UNK N   1      28.450  18.376   6.777  0.00  0.00     0.135 A 
HETATM    6  F   UNK N   1      27.331  18.846   6.180  0.00  0.00    -0.205 F 
HETATM    7  C   UNK N   1      28.605  18.575   8.147  0.00  0.00     0.073 A 
ENDROOT
BRANCH   2   8
HETATM    8  C   UNK N   1      31.787  16.595   8.837  0.00  0.00     0.259 C 
HETATM    9  N   UNK N   1      33.036  17.127   8.770  0.00  0.00    -0.303 N 
HETATM   10  H   UNK N   1      33.144  17.967   8.268  0.00  0.00     0.171 HD
HETATM   11  O   UNK N   1      31.568  15.621   9.545  0.00  0.00    -0.267 OA
BRANCH   9  12
HETATM   12  C   UNK N   1      34.197  16.569   9.365  0.00  0.00     0.151 A 
HETATM   13  S   UNK N   1      35.028  15.281   8.774  0.00  0.00    -0.064 SA
HETATM   14  C   UNK N   1      36.158  15.165   9.981  0.00  0.00     0.070 A 
HETATM   15  C   UNK N   1      35.834  16.198  10.885  0.00  0.00     0.097 A 
HETATM   16  N   UNK N   1      34.745  16.972  10.534  0.00  0.00    -0.346 N 
ATOM     17  HN  UNK N   1      34.396  17.753  11.089  1.00  0.00     0.167 HD
ENDBRANCH   9  12
ENDBRANCH   2   8
BRANCH   1  18
HETATM   18  N   UNK N   1      29.776  18.232  10.227  0.00  0.00    -0.398 N 
HETATM   19  H   UNK N   1      28.994  18.440  10.790  0.00  0.00     0.156 HD
HETATM   20  H   UNK N   1      30.660  18.168  10.655  0.00  0.00     0.156 HD
ENDBRANCH   1  18
BRANCH   4  21
HETATM   21  S   UNK N   1      29.159  17.163   4.328  0.00  0.00    -0.051 SA
BRANCH  21  22
HETATM   22  C   UNK N   1      30.788  16.619   3.766  0.00  0.00     0.150 A 
HETATM   23  N   UNK N   1      31.136  15.329   3.632  0.00  0.00    -0.341 N 
HETATM   24  C   UNK N   1      32.363  15.309   3.095  0.00  0.00     0.109 A 
HETATM   25  C   UNK N   1      30.330  14.163   3.955  0.00  0.00     0.158 C 
HETATM   26  C   UNK N   1      32.754  16.623   2.901  0.00  0.00     0.107 A 
HETATM   27  N   UNK N   1      31.759  17.436   3.315  0.00  0.00    -0.345 N 
ATOM     28  HN  UNK N   1      31.746  18.456   3.291  1.00  0.00     0.167 HD
ENDBRANCH  21  22
ENDBRANCH   4  21
TORSDOF 5
ENDMDL
MODEL 2
REMARK VINA RESULT:      -6.6      8.799     11.626
REMARK  5 active torsions:
REMARK  status: ('A' for Active; 'I' for Inactive)
REMARK    1  A    between atoms: C_6  and  N_7 
REMARK       I    between atoms: N_7  and  C_8 
REMARK    2  A    between atoms: C_8  and  C_11 
REMARK    3  A    between atoms: C_10  and  N_25 
REMARK    4  A    between atoms: C_13  and  S_17 
REMARK    5  A    between atoms: S_17  and  C_19 
ROOT
HETATM    1  C   UNK N   1      20.052  16.612   8.460  0.00  0.00     0.044 A 
HETATM    2  C   UNK N   1      20.784  16.463   7.258  0.00  0.00     0.060 A 
HETATM    3  C   UNK N   1      21.329  15.202   6.949  0.00  0.00     0.041 A 
HETATM    4  C   UNK N   1      21.183  14.112   7.823  0.00  0.00     0.048 A 
HETATM    5  C   UNK N   1      20.462  14.287   9.018  0.00  0.00     0.135 A 
HETATM    6  F   UNK N   1      20.361  13.295   9.931  0.00  0.00    -0.205 F 
HETATM    7  C   UNK N   1      19.889  15.522   9.314  0.00  0.00     0.073 A 
ENDROOT
BRANCH   2   8
HETATM    8  C   UNK N   1      21.051  17.618   6.351  0.00  0.00     0.259 C 
HETATM    9  N   UNK N   1      20.814  17.495   5.018  0.00  0.00    -0.303 N 
HETATM   10  H   UNK N   1      20.446  16.639   4.700  0.00  0.00     0.171 HD
HETATM   11  O   UNK N   1      21.393  18.695   6.820  0.00  0.00    -0.267 OA
BRANCH   9  12
HETATM   12  C   UNK N   1      21.054  18.502   4.047  0.00  0.00     0.151 A 
HETATM   13  S   UNK N   1      20.011  18.919   2.849  0.00  0.00    -0.064 SA
HETATM   14  C   UNK N   1      20.962  20.054   2.103  0.00  0.00     0.070 A 
HETATM   15  C   UNK N   1      22.158  20.076   2.851  0.00  0.00     0.097 A 
HETATM   16  N   UNK N   1      22.199  19.212   3.928  0.00  0.00    -0.346 N 
ATOM     17  HN  UNK N   1      22.996  19.121   4.558  1.00  0.00     0.167 HD
ENDBRANCH   9  12
ENDBRANCH   2   8
BRANCH   1  18
HETATM   18  N   UNK N   1      19.473  17.846   8.824  0.00  0.00    -0.398 N 
HETATM   19  H   UNK N   1      18.547  17.929   9.148  0.00  0.00     0.156 HD
HETATM   20  H   UNK N   1      20.020  18.661   8.749  0.00  0.00     0.156 HD
ENDBRANCH   1  18
BRANCH   4  21
HETATM   21  S   UNK N   1      22.135  12.607   7.484  0.00  0.00    -0.051 SA
BRANCH  21  22
HETATM   22  C   UNK N   1      23.374  12.547   8.797  0.00  0.00     0.150 A 
HETATM   23  N   UNK N   1      24.552  13.190   8.737  0.00  0.00    -0.341 N 
HETATM   24  C   UNK N   1      25.156  13.010   9.920  0.00  0.00     0.109 A 
HETATM   25  C   UNK N   1      25.069  13.978   7.631  0.00  0.00     0.158 C 
HETATM   26  C   UNK N   1      24.312  12.242  10.705  0.00  0.00     0.107 A 
HETATM   27  N   UNK N   1      23.196  11.964   9.998  0.00  0.00    -0.345 N 
ATOM     28  HN  UNK N   1      22.387  11.426  10.308  1.00  0.00     0.167 HD
ENDBRANCH  21  22
ENDBRANCH   4  21
TORSDOF 5
ENDMDL
MODEL 3
REMARK VINA RESULT:      -6.6      2.531      4.247
REMARK  5 active torsions:
REMARK  status: ('A' for Active; 'I' for Inactive)
REMARK    1  A    between atoms: C_6  and  N_7 
REMARK       I    between atoms: N_7  and  C_8 
REMARK    2  A    between atoms: C_8  and  C_11 
REMARK    3  A    between atoms: C_10  and  N_25 
REMARK    4  A    between atoms: C_13  and  S_17 
REMARK    5  A    between atoms: S_17  and  C_19 
ROOT
HETATM    1  C   UNK N   1      32.187  17.308   5.153  0.00  0.00     0.044 A 
HETATM    2  C   UNK N   1      31.924  17.231   6.542  0.00  0.00     0.060 A 
HETATM    3  C   UNK N   1      30.586  17.165   6.974  0.00  0.00     0.041 A 
HETATM    4  C   UNK N   1      29.522  17.207   6.058  0.00  0.00     0.048 A 
HETATM    5  C   UNK N   1      29.807  17.297   4.684  0.00  0.00     0.135 A 
HETATM    6  F   UNK N   1      28.821  17.423   3.767  0.00  0.00    -0.205 F 
HETATM    7  C   UNK N   1      31.130  17.326   4.245  0.00  0.00     0.073 A 
ENDROOT
BRANCH   2   8
HETATM    8  C   UNK N   1      33.019  17.287   7.555  0.00  0.00     0.259 C 
HETATM    9  N   UNK N   1      33.407  16.149   8.190  0.00  0.00    -0.303 N 
HETATM   10  H   UNK N   1      32.956  15.312   7.935  0.00  0.00     0.171 HD
HETATM   11  O   UNK N   1      33.623  18.334   7.740  0.00  0.00    -0.267 OA
BRANCH   9  12
HETATM   12  C   UNK N   1      34.408  16.072   9.191  0.00  0.00     0.151 A 
HETATM   13  S   UNK N   1      35.540  14.886   9.298  0.00  0.00    -0.064 SA
HETATM   14  C   UNK N   1      36.275  15.397  10.694  0.00  0.00     0.070 A 
HETATM   15  C   UNK N   1      35.566  16.555  11.077  0.00  0.00     0.097 A 
HETATM   16  N   UNK N   1      34.533  16.921  10.237  0.00  0.00    -0.346 N 
ATOM     17  HN  UNK N   1      33.936  17.734  10.386  1.00  0.00     0.167 HD
ENDBRANCH   9  12
ENDBRANCH   2   8
BRANCH   1  18
HETATM   18  N   UNK N   1      33.506  17.367   4.653  0.00  0.00    -0.398 N 
HETATM   19  H   UNK N   1      33.714  17.382   3.691  0.00  0.00     0.156 HD
HETATM   20  H   UNK N   1      34.250  17.394   5.296  0.00  0.00     0.156 HD
ENDBRANCH   1  18
BRANCH   4  21
HETATM   21  S   UNK N   1      27.839  17.388   6.706  0.00  0.00    -0.051 SA
BRANCH  21  22
HETATM   22  C   UNK N   1      27.336  19.050   6.207  0.00  0.00     0.150 A 
HETATM   23  N   UNK N   1      26.394  19.295   5.281  0.00  0.00    -0.341 N 
HETATM   24  C   UNK N   1      26.210  20.622   5.253  0.00  0.00     0.109 A 
HETATM   25  C   UNK N   1      25.666  18.319   4.488  0.00  0.00     0.158 C 
HETATM   26  C   UNK N   1      27.063  21.180   6.190  0.00  0.00     0.107 A 
HETATM   27  N   UNK N   1      27.758  20.189   6.788  0.00  0.00    -0.345 N 
ATOM     28  HN  UNK N   1      28.455  20.284   7.527  1.00  0.00     0.167 HD
ENDBRANCH  21  22
ENDBRANCH   4  21
TORSDOF 5
ENDMDL
MODEL 4
REMARK VINA RESULT:      -6.5      5.710     10.213
REMARK  5 active torsions:
REMARK  status: ('A' for Active; 'I' for Inactive)
REMARK    1  A    between atoms: C_6  and  N_7 
REMARK       I    between atoms: N_7  and  C_8 
REMARK    2  A    between atoms: C_8  and  C_11 
REMARK    3  A    between atoms: C_10  and  N_25 
REMARK    4  A    between atoms: C_13  and  S_17 
REMARK    5  A    between atoms: S_17  and  C_19 
ROOT
HETATM    1  C   UNK N   1      37.573  13.358  11.117  0.00  0.00     0.044 A 
HETATM    2  C   UNK N   1      36.323  13.997  11.298  0.00  0.00     0.060 A 
HETATM    3  C   UNK N   1      35.397  13.430  12.194  0.00  0.00     0.041 A 
HETATM    4  C   UNK N   1      35.682  12.236  12.878  0.00  0.00     0.048 A 
HETATM    5  C   UNK N   1      36.925  11.612  12.672  0.00  0.00     0.135 A 
HETATM    6  F   UNK N   1      37.218  10.421  13.241  0.00  0.00    -0.205 F 
HETATM    7  C   UNK N   1      37.862  12.186  11.814  0.00  0.00     0.073 A 
ENDROOT
BRANCH   2   8
HETATM    8  C   UNK N   1      35.938  15.209  10.517  0.00  0.00     0.259 C 
HETATM    9  N   UNK N   1      34.890  15.148   9.653  0.00  0.00    -0.303 N 
HETATM   10  H   UNK N   1      34.403  14.295   9.592  0.00  0.00     0.171 HD
HETATM   11  O   UNK N   1      36.505  16.273  10.725  0.00  0.00    -0.267 OA
BRANCH   9  12
HETATM   12  C   UNK N   1      34.443  16.215   8.832  0.00  0.00     0.151 A 
HETATM   13  S   UNK N   1      34.428  16.193   7.189  0.00  0.00    -0.064 SA
HETATM   14  C   UNK N   1      33.877  17.737   6.945  0.00  0.00     0.070 A 
HETATM   15  C   UNK N   1      33.715  18.276   8.239  0.00  0.00     0.097 A 
HETATM   16  N   UNK N   1      34.031  17.423   9.279  0.00  0.00    -0.346 N 
ATOM     17  HN  UNK N   1      33.961  17.674  10.265  1.00  0.00     0.167 HD
ENDBRANCH   9  12
ENDBRANCH   2   8
BRANCH   1  18
HETATM   18  N   UNK N   1      38.548  13.879  10.241  0.00  0.00    -0.398 N 
HETATM   19  H   UNK N   1      39.400  13.421  10.053  0.00  0.00     0.156 HD
HETATM   20  H   UNK N   1      38.370  14.740   9.798  0.00  0.00     0.156 HD
ENDBRANCH   1  18
BRANCH   4  21
HETATM   21  S   UNK N   1      34.343  11.435  13.799  0.00  0.00    -0.051 SA
BRANCH  21  22
HETATM   22  C   UNK N   1      34.667  11.852  15.527  0.00  0.00     0.150 A 
HETATM   23  N   UNK N   1      35.090  10.963  16.440  0.00  0.00    -0.341 N 
HETATM   24  C   UNK N   1      35.327  11.644  17.569  0.00  0.00     0.109 A 
HETATM   25  C   UNK N   1      35.306   9.539  16.246  0.00  0.00     0.158 C 
HETATM   26  C   UNK N   1      35.039  12.976  17.319  0.00  0.00     0.107 A 
HETATM   27  N   UNK N   1      34.635  13.098  16.037  0.00  0.00    -0.345 N 
ATOM     28  HN  UNK N   1      34.363  13.956  15.555  1.00  0.00     0.167 HD
ENDBRANCH  21  22
ENDBRANCH   4  21
TORSDOF 5
ENDMDL
MODEL 5
REMARK VINA RESULT:      -6.3      3.596      5.742
REMARK  5 active torsions:
REMARK  status: ('A' for Active; 'I' for Inactive)
REMARK    1  A    between atoms: C_6  and  N_7 
REMARK       I    between atoms: N_7  and  C_8 
REMARK    2  A    between atoms: C_8  and  C_11 
REMARK    3  A    between atoms: C_10  and  N_25 
REMARK    4  A    between atoms: C_13  and  S_17 
REMARK    5  A    between atoms: S_17  and  C_19 
ROOT
HETATM    1  C   UNK N   1      35.131  16.143  10.199  0.00  0.00     0.044 A 
HETATM    2  C   UNK N   1      34.293  15.003  10.160  0.00  0.00     0.060 A 
HETATM    3  C   UNK N   1      33.220  14.984   9.249  0.00  0.00     0.041 A 
HETATM    4  C   UNK N   1      32.954  16.082   8.413  0.00  0.00     0.048 A 
HETATM    5  C   UNK N   1      33.793  17.209   8.481  0.00  0.00     0.135 A 
HETATM    6  F   UNK N   1      33.534  18.323   7.758  0.00  0.00    -0.205 F 
HETATM    7  C   UNK N   1      34.879  17.221   9.353  0.00  0.00     0.073 A 
ENDROOT
BRANCH   2   8
HETATM    8  C   UNK N   1      34.476  13.857  11.099  0.00  0.00     0.259 C 
HETATM    9  N   UNK N   1      34.562  12.592  10.609  0.00  0.00    -0.303 N 
HETATM   10  H   UNK N   1      34.520  12.481   9.632  0.00  0.00     0.171 HD
HETATM   11  O   UNK N   1      34.641  14.070  12.293  0.00  0.00    -0.267 OA
BRANCH   9  12
HETATM   12  C   UNK N   1      34.703  11.419  11.394  0.00  0.00     0.151 A 
HETATM   13  S   UNK N   1      35.565  10.092  10.951  0.00  0.00    -0.064 SA
HETATM   14  C   UNK N   1      35.223   9.147  12.271  0.00  0.00     0.070 A 
HETATM   15  C   UNK N   1      34.379   9.939  13.077  0.00  0.00     0.097 A 
HETATM   16  N   UNK N   1      34.097  11.198  12.582  0.00  0.00    -0.346 N 
ATOM     17  HN  UNK N   1      33.503  11.878  13.056  1.00  0.00     0.167 HD
ENDBRANCH   9  12
ENDBRANCH   2   8
BRANCH   1  18
HETATM   18  N   UNK N   1      36.229  16.221  11.083  0.00  0.00    -0.398 N 
HETATM   19  H   UNK N   1      37.164  16.245  10.774  0.00  0.00     0.156 HD
HETATM   20  H   UNK N   1      36.052  16.253  12.051  0.00  0.00     0.156 HD
ENDBRANCH   1  18
BRANCH   4  21
HETATM   21  S   UNK N   1      31.407  16.087   7.470  0.00  0.00    -0.051 SA
BRANCH  21  22
HETATM   22  C   UNK N   1      30.355  17.278   8.329  0.00  0.00     0.150 A 
HETATM   23  N   UNK N   1      29.112  17.596   7.929  0.00  0.00    -0.341 N 
HETATM   24  C   UNK N   1      28.601  18.416   8.857  0.00  0.00     0.109 A 
HETATM   25  C   UNK N   1      28.418  17.113   6.747  0.00  0.00     0.158 C 
HETATM   26  C   UNK N   1      29.566  18.588   9.836  0.00  0.00     0.107 A 
HETATM   27  N   UNK N   1      30.656  17.866   9.502  0.00  0.00    -0.345 N 
ATOM     28  HN  UNK N   1      31.526  17.782  10.029  1.00  0.00     0.167 HD
ENDBRANCH  21  22
ENDBRANCH   4  21
TORSDOF 5
ENDMDL
MODEL 6
REMARK VINA RESULT:      -6.2      6.378      8.040
REMARK  5 active torsions:
REMARK  status: ('A' for Active; 'I' for Inactive)
REMARK    1  A    between atoms: C_6  and  N_7 
REMARK       I    between atoms: N_7  and  C_8 
REMARK    2  A    between atoms: C_8  and  C_11 
REMARK    3  A    between atoms: C_10  and  N_25 
REMARK    4  A    between atoms: C_13  and  S_17 
REMARK    5  A    between atoms: S_17  and  C_19 
ROOT
HETATM    1  C   UNK N   1      26.131  19.636   3.766  0.00  0.00     0.044 A 
HETATM    2  C   UNK N   1      25.892  18.564   4.659  0.00  0.00     0.060 A 
HETATM    3  C   UNK N   1      24.567  18.131   4.857  0.00  0.00     0.041 A 
HETATM    4  C   UNK N   1      23.490  18.763   4.212  0.00  0.00     0.048 A 
HETATM    5  C   UNK N   1      23.751  19.834   3.339  0.00  0.00     0.135 A 
HETATM    6  F   UNK N   1      22.748  20.528   2.756  0.00  0.00    -0.205 F 
HETATM    7  C   UNK N   1      25.063  20.245   3.109  0.00  0.00     0.073 A 
ENDROOT
BRANCH   2   8
HETATM    8  C   UNK N   1      26.993  17.932   5.444  0.00  0.00     0.259 C 
HETATM    9  N   UNK N   1      27.319  18.428   6.667  0.00  0.00    -0.303 N 
HETATM   10  H   UNK N   1      26.791  19.188   7.003  0.00  0.00     0.171 HD
HETATM   11  O   UNK N   1      27.532  16.916   5.026  0.00  0.00    -0.267 OA
BRANCH   9  12
HETATM   12  C   UNK N   1      28.362  17.941   7.496  0.00  0.00     0.151 A 
HETATM   13  S   UNK N   1      28.291  17.845   9.135  0.00  0.00    -0.064 SA
HETATM   14  C   UNK N   1      29.828  17.282   9.397  0.00  0.00     0.070 A 
HETATM   15  C   UNK N   1      30.405  17.184   8.113  0.00  0.00     0.097 A 
HETATM   16  N   UNK N   1      29.583  17.551   7.065  0.00  0.00    -0.346 N 
ATOM     17  HN  UNK N   1      29.864  17.531   6.085  1.00  0.00     0.167 HD
ENDBRANCH   9  12
ENDBRANCH   2   8
BRANCH   1  18
HETATM   18  N   UNK N   1      27.436  20.111   3.516  0.00  0.00    -0.398 N 
HETATM   19  H   UNK N   1      28.051  20.388   4.234  0.00  0.00     0.156 HD
HETATM   20  H   UNK N   1      27.744  20.170   2.583  0.00  0.00     0.156 HD
ENDBRANCH   1  18
BRANCH   4  21
HETATM   21  S   UNK N   1      21.807  18.325   4.723  0.00  0.00    -0.051 SA
BRANCH  21  22
HETATM   22  C   UNK N   1      21.092  17.506   3.280  0.00  0.00     0.150 A 
HETATM   23  N   UNK N   1      20.190  18.082   2.470  0.00  0.00    -0.341 N 
HETATM   24  C   UNK N   1      19.974  17.231   1.458  0.00  0.00     0.109 A 
HETATM   25  C   UNK N   1      19.589  19.398   2.616  0.00  0.00     0.158 C 
HETATM   26  C   UNK N   1      20.772  16.119   1.672  0.00  0.00     0.107 A 
HETATM   27  N   UNK N   1      21.475  16.303   2.810  0.00  0.00    -0.345 N 
ATOM     28  HN  UNK N   1      22.154  15.665   3.225  1.00  0.00     0.167 HD
ENDBRANCH  21  22
ENDBRANCH   4  21
TORSDOF 5
ENDMDL
MODEL 7
REMARK VINA RESULT:      -6.2      2.668      3.360
REMARK  5 active torsions:
REMARK  status: ('A' for Active; 'I' for Inactive)
REMARK    1  A    between atoms: C_6  and  N_7 
REMARK       I    between atoms: N_7  and  C_8 
REMARK    2  A    between atoms: C_8  and  C_11 
REMARK    3  A    between atoms: C_10  and  N_25 
REMARK    4  A    between atoms: C_13  and  S_17 
REMARK    5  A    between atoms: S_17  and  C_19 
ROOT
HETATM    1  C   UNK N   1      29.592  18.301   8.831  0.00  0.00     0.044 A 
HETATM    2  C   UNK N   1      30.481  17.546   8.030  0.00  0.00     0.060 A 
HETATM    3  C   UNK N   1      30.141  17.307   6.684  0.00  0.00     0.041 A 
HETATM    4  C   UNK N   1      28.931  17.776   6.144  0.00  0.00     0.048 A 
HETATM    5  C   UNK N   1      28.058  18.512   6.964  0.00  0.00     0.135 A 
HETATM    6  F   UNK N   1      26.847  18.916   6.519  0.00  0.00    -0.205 F 
HETATM    7  C   UNK N   1      28.404  18.784   8.287  0.00  0.00     0.073 A 
ENDROOT
BRANCH   2   8
HETATM    8  C   UNK N   1      31.726  16.942   8.588  0.00  0.00     0.259 C 
HETATM    9  N   UNK N   1      31.773  15.606   8.838  0.00  0.00    -0.303 N 
HETATM   10  H   UNK N   1      30.975  15.076   8.616  0.00  0.00     0.171 HD
HETATM   11  O   UNK N   1      32.727  17.632   8.730  0.00  0.00    -0.267 OA
BRANCH   9  12
HETATM   12  C   UNK N   1      32.881  14.916   9.395  0.00  0.00     0.151 A 
HETATM   13  S   UNK N   1      33.650  13.648   8.688  0.00  0.00    -0.064 SA
HETATM   14  C   UNK N   1      34.734  13.334   9.902  0.00  0.00     0.070 A 
HETATM   15  C   UNK N   1      34.447  14.284  10.904  0.00  0.00     0.097 A 
HETATM   16  N   UNK N   1      33.417  15.158  10.613  0.00  0.00    -0.346 N 
ATOM     17  HN  UNK N   1      33.100  15.896  11.241  1.00  0.00     0.167 HD
ENDBRANCH   9  12
ENDBRANCH   2   8
BRANCH   1  18
HETATM   18  N   UNK N   1      29.878  18.583  10.184  0.00  0.00    -0.398 N 
HETATM   19  H   UNK N   1      30.565  18.100  10.699  0.00  0.00     0.156 HD
HETATM   20  H   UNK N   1      29.366  19.294  10.634  0.00  0.00     0.156 HD
ENDBRANCH   1  18
BRANCH   4  21
HETATM   21  S   UNK N   1      28.449  17.200   4.495  0.00  0.00    -0.051 SA
BRANCH  21  22
HETATM   22  C   UNK N   1      27.362  18.497   3.861  0.00  0.00     0.150 A 
HETATM   23  N   UNK N   1      26.056  18.312   3.603  0.00  0.00    -0.341 N 
HETATM   24  C   UNK N   1      25.554  19.505   3.258  0.00  0.00     0.109 A 
HETATM   25  C   UNK N   1      25.304  17.074   3.719  0.00  0.00     0.158 C 
HETATM   26  C   UNK N   1      26.588  20.424   3.316  0.00  0.00     0.107 A 
HETATM   27  N   UNK N   1      27.713  19.787   3.702  0.00  0.00    -0.345 N 
ATOM     28  HN  UNK N   1      28.636  20.197   3.845  1.00  0.00     0.167 HD
ENDBRANCH  21  22
ENDBRANCH   4  21
TORSDOF 5
ENDMDL
MODEL 8
REMARK VINA RESULT:      -6.1      6.142      9.027
REMARK  5 active torsions:
REMARK  status: ('A' for Active; 'I' for Inactive)
REMARK    1  A    between atoms: C_6  and  N_7 
REMARK       I    between atoms: N_7  and  C_8 
REMARK    2  A    between atoms: C_8  and  C_11 
REMARK    3  A    between atoms: C_10  and  N_25 
REMARK    4  A    between atoms: C_13  and  S_17 
REMARK    5  A    between atoms: S_17  and  C_19 
ROOT
HETATM    1  C   UNK N   1      23.238  19.598   3.598  0.00  0.00     0.044 A 
HETATM    2  C   UNK N   1      23.689  18.781   4.663  0.00  0.00     0.060 A 
HETATM    3  C   UNK N   1      25.058  18.795   4.992  0.00  0.00     0.041 A 
HETATM    4  C   UNK N   1      25.974  19.574   4.266  0.00  0.00     0.048 A 
HETATM    5  C   UNK N   1      25.504  20.367   3.204  0.00  0.00     0.135 A 
HETATM    6  F   UNK N   1      26.353  21.072   2.423  0.00  0.00    -0.205 F 
HETATM    7  C   UNK N   1      24.145  20.387   2.895  0.00  0.00     0.073 A 
ENDROOT
BRANCH   2   8
HETATM    8  C   UNK N   1      22.770  17.861   5.394  0.00  0.00     0.259 C 
HETATM    9  N   UNK N   1      23.247  16.692   5.897  0.00  0.00    -0.303 N 
HETATM   10  H   UNK N   1      24.206  16.505   5.776  0.00  0.00     0.171 HD
HETATM   11  O   UNK N   1      21.616  18.203   5.618  0.00  0.00    -0.267 OA
BRANCH   9  12
HETATM   12  C   UNK N   1      22.475  15.719   6.582  0.00  0.00     0.151 A 
HETATM   13  S   UNK N   1      22.600  14.095   6.363  0.00  0.00    -0.064 SA
HETATM   14  C   UNK N   1      21.389  13.632   7.395  0.00  0.00     0.070 A 
HETATM   15  C   UNK N   1      20.872  14.836   7.917  0.00  0.00     0.097 A 
HETATM   16  N   UNK N   1      21.482  15.988   7.460  0.00  0.00    -0.346 N 
ATOM     17  HN  UNK N   1      21.216  16.929   7.750  1.00  0.00     0.167 HD
ENDBRANCH   9  12
ENDBRANCH   2   8
BRANCH   1  18
HETATM   18  N   UNK N   1      21.878  19.637   3.224  0.00  0.00    -0.398 N 
HETATM   19  H   UNK N   1      21.200  20.150   3.721  0.00  0.00     0.156 HD
HETATM   20  H   UNK N   1      21.594  19.128   2.431  0.00  0.00     0.156 HD
ENDBRANCH   1  18
BRANCH   4  21
HETATM   21  S   UNK N   1      27.743  19.331   4.578  0.00  0.00    -0.051 SA
BRANCH  21  22
HETATM   22  C   UNK N   1      27.825  18.720   6.276  0.00  0.00     0.150 A 
HETATM   23  N   UNK N   1      28.097  17.444   6.595  0.00  0.00    -0.341 N 
HETATM   24  C   UNK N   1      28.184  17.385   7.930  0.00  0.00     0.109 A 
HETATM   25  C   UNK N   1      28.311  16.335   5.679  0.00  0.00     0.158 C 
HETATM   26  C   UNK N   1      27.960  18.661   8.418  0.00  0.00     0.107 A 
HETATM   27  N   UNK N   1      27.746  19.492   7.376  0.00  0.00    -0.345 N 
ATOM     28  HN  UNK N   1      27.562  20.495   7.415  1.00  0.00     0.167 HD
ENDBRANCH  21  22
ENDBRANCH   4  21
TORSDOF 5
ENDMDL
MODEL 9
REMARK VINA RESULT:      -6.1     14.268     15.862
REMARK  5 active torsions:
REMARK  status: ('A' for Active; 'I' for Inactive)
REMARK    1  A    between atoms: C_6  and  N_7 
REMARK       I    between atoms: N_7  and  C_8 
REMARK    2  A    between atoms: C_8  and  C_11 
REMARK    3  A    between atoms: C_10  and  N_25 
REMARK    4  A    between atoms: C_13  and  S_17 
REMARK    5  A    between atoms: S_17  and  C_19 
ROOT
HETATM    1  C   UNK N   1      44.601  22.370   3.496  0.00  0.00     0.044 A 
HETATM    2  C   UNK N   1      44.336  23.306   2.468  0.00  0.00     0.060 A 
HETATM    3  C   UNK N   1      43.103  23.236   1.791  0.00  0.00     0.041 A 
HETATM    4  C   UNK N   1      42.159  22.241   2.099  0.00  0.00     0.048 A 
HETATM    5  C   UNK N   1      42.451  21.315   3.115  0.00  0.00     0.135 A 
HETATM    6  F   UNK N   1      41.614  20.290   3.395  0.00  0.00    -0.205 F 
HETATM    7  C   UNK N   1      43.653  21.400   3.815  0.00  0.00     0.073 A 
ENDROOT
BRANCH   2   8
HETATM    8  C   UNK N   1      45.350  24.314   2.038  0.00  0.00     0.259 C 
HETATM    9  N   UNK N   1      46.013  24.143   0.864  0.00  0.00    -0.303 N 
HETATM   10  H   UNK N   1      45.778  23.356   0.322  0.00  0.00     0.171 HD
HETATM   11  O   UNK N   1      45.511  25.333   2.696  0.00  0.00    -0.267 OA
BRANCH   9  12
HETATM   12  C   UNK N   1      47.018  25.006   0.359  0.00  0.00     0.151 A 
HETATM   13  S   UNK N   1      47.113  25.530  -1.196  0.00  0.00    -0.064 SA
HETATM   14  C   UNK N   1      48.520  26.396  -1.060  0.00  0.00     0.070 A 
HETATM   15  C   UNK N   1      48.917  26.238   0.285  0.00  0.00     0.097 A 
HETATM   16  N   UNK N   1      48.077  25.466   1.063  0.00  0.00    -0.346 N 
ATOM     17  HN  UNK N   1      48.237  25.267   2.051  1.00  0.00     0.167 HD
ENDBRANCH   9  12
ENDBRANCH   2   8
BRANCH   1  18
HETATM   18  N   UNK N   1      45.813  22.392   4.218  0.00  0.00    -0.398 N 
HETATM   19  H   UNK N   1      46.311  23.222   4.404  0.00  0.00     0.156 HD
HETATM   20  H   UNK N   1      46.178  21.540   4.551  0.00  0.00     0.156 HD
ENDBRANCH   1  18
BRANCH   4  21
HETATM   21  S   UNK N   1      40.723  22.055   1.008  0.00  0.00    -0.051 SA
BRANCH  21  22
HETATM   22  C   UNK N   1      40.451  23.707   0.329  0.00  0.00     0.150 A 
HETATM   23  N   UNK N   1      39.897  23.934  -0.874  0.00  0.00    -0.341 N 
HETATM   24  C   UNK N   1      39.754  25.261  -0.993  0.00  0.00     0.109 A 
HETATM   25  C   UNK N   1      39.479  22.943  -1.851  0.00  0.00     0.158 C 
HETATM   26  C   UNK N   1      40.233  25.837   0.172  0.00  0.00     0.107 A 
HETATM   27  N   UNK N   1      40.659  24.858   0.997  0.00  0.00    -0.345 N 
ATOM     28  HN  UNK N   1      41.055  24.966   1.931  1.00  0.00     0.167 HD
ENDBRANCH  21  22
ENDBRANCH   4  21
TORSDOF 5
ENDMDL
