MODEL 1
REMARK VINA RESULT:      -6.7      0.000      0.000
REMARK  3 active torsions:
REMARK  status: ('A' for Active; 'I' for Inactive)
REMARK    1  A    between atoms: C_9  and  C_8 
REMARK       I    between atoms: C_9  and  N_10 
REMARK    2  A    between atoms: C_12  and  S_14 
REMARK    3  A    between atoms: S_14  and  N_17 
ROOT
HETATM    1 Br   UNK N   1      28.387  18.115   5.167  0.00  0.00    -0.051 Br
HETATM    2  C   UNK N   1      26.767  18.831   4.468  0.00  0.00     0.011 A 
HETATM    3  C   UNK N   1      25.536  18.232   4.796  0.00  0.00     0.034 A 
HETATM    4  C   UNK N   1      26.807  19.966   3.626  0.00  0.00     0.021 A 
HETATM    5  C   UNK N   1      25.619  20.508   3.105  0.00  0.00     0.032 A 
HETATM    6  C   UNK N   1      24.421  19.893   3.451  0.00  0.00     0.044 A 
HETATM    7  N   UNK N   1      23.190  20.262   3.058  0.00  0.00    -0.350 N 
HETATM    8  C   UNK N   1      22.329  19.388   3.633  0.00  0.00     0.125 A 
HETATM    9  C   UNK N   1      23.054  18.435   4.413  0.00  0.00     0.119 A 
HETATM   10  C   UNK N   1      24.376  18.796   4.268  0.00  0.00     0.017 A 
HETATM   11  H   UNK N   1      22.961  21.016   2.469  0.00  0.00     0.166 HD
ENDROOT
BRANCH   9  12
HETATM   12  S   UNK N   1      22.537  16.970   5.392  0.00  0.00     0.247 S 
HETATM   13  O   UNK N   1      21.817  16.449   4.140  0.00  0.00    -0.206 OA
HETATM   14  O   UNK N   1      21.631  18.178   5.688  0.00  0.00    -0.206 OA
BRANCH  12  15
HETATM   15  N   UNK N   1      21.255  16.304   6.472  0.00  0.00    -0.206 NA
HETATM   16  C   UNK N   1      20.671  17.418   7.207  0.00  0.00     0.107 C 
HETATM   17  C   UNK N   1      20.200  16.893   8.553  0.00  0.00     0.017 C 
HETATM   18  C   UNK N   1      20.752  15.494   8.668  0.00  0.00     0.017 C 
HETATM   19  C   UNK N   1      21.714  15.374   7.516  0.00  0.00     0.107 C 
ENDBRANCH  12  15
ENDBRANCH   9  12
BRANCH   8  20
HETATM   20  C   UNK N   1      20.860  19.533   3.425  0.00  0.00     0.267 C 
HETATM   21  N   UNK N   1      20.108  18.539   2.921  0.00  0.00    -0.365 N 
HETATM   22  H   UNK N   1      19.141  18.670   2.791  0.00  0.00     0.159 HD
HETATM   23  H   UNK N   1      20.524  17.679   2.680  0.00  0.00     0.159 HD
HETATM   24  O   UNK N   1      20.313  20.569   3.768  0.00  0.00    -0.266 OA
ENDBRANCH   8  20
TORSDOF 3
ENDMDL
MODEL 2
REMARK VINA RESULT:      -6.7     11.202     13.354
REMARK  3 active torsions:
REMARK  status: ('A' for Active; 'I' for Inactive)
REMARK    1  A    between atoms: C_9  and  C_8 
REMARK       I    between atoms: C_9  and  N_10 
REMARK    2  A    between atoms: C_12  and  S_14 
REMARK    3  A    between atoms: S_14  and  N_17 
ROOT
HETATM    1 Br   UNK N   1      35.629  11.081  11.395  0.00  0.00    -0.051 Br
HETATM    2  C   UNK N   1      35.428  12.958  11.145  0.00  0.00     0.011 A 
HETATM    3  C   UNK N   1      35.188  13.471   9.857  0.00  0.00     0.034 A 
HETATM    4  C   UNK N   1      35.516  13.827  12.256  0.00  0.00     0.021 A 
HETATM    5  C   UNK N   1      35.367  15.215  12.087  0.00  0.00     0.032 A 
HETATM    6  C   UNK N   1      35.128  15.689  10.802  0.00  0.00     0.044 A 
HETATM    7  N   UNK N   1      34.957  16.972  10.442  0.00  0.00    -0.350 N 
HETATM    8  C   UNK N   1      34.751  16.967   9.103  0.00  0.00     0.125 A 
HETATM    9  C   UNK N   1      34.798  15.626   8.609  0.00  0.00     0.119 A 
HETATM   10  C   UNK N   1      35.039  14.852   9.724  0.00  0.00     0.017 A 
HETATM   11  H   UNK N   1      34.978  17.758  11.034  0.00  0.00     0.166 HD
ENDROOT
BRANCH   9  12
HETATM   12  S   UNK N   1      34.661  14.909   6.925  0.00  0.00     0.247 S 
HETATM   13  O   UNK N   1      35.193  16.238   6.370  0.00  0.00    -0.206 OA
HETATM   14  O   UNK N   1      33.293  15.405   7.425  0.00  0.00    -0.206 OA
BRANCH  12  15
HETATM   15  N   UNK N   1      33.569  14.692   5.506  0.00  0.00    -0.206 NA
HETATM   16  C   UNK N   1      34.400  14.377   4.351  0.00  0.00     0.107 C 
HETATM   17  C   UNK N   1      33.699  14.911   3.113  0.00  0.00     0.017 C 
HETATM   18  C   UNK N   1      32.556  15.757   3.617  0.00  0.00     0.017 C 
HETATM   19  C   UNK N   1      32.804  15.880   5.097  0.00  0.00     0.107 C 
ENDBRANCH  12  15
ENDBRANCH   9  12
BRANCH   8  20
HETATM   20  C   UNK N   1      34.491  18.243   8.377  0.00  0.00     0.267 C 
HETATM   21  N   UNK N   1      33.394  18.424   7.621  0.00  0.00    -0.365 N 
HETATM   22  H   UNK N   1      33.256  19.278   7.150  0.00  0.00     0.159 HD
HETATM   23  H   UNK N   1      32.728  17.703   7.538  0.00  0.00     0.159 HD
HETATM   24  O   UNK N   1      35.275  19.169   8.510  0.00  0.00    -0.266 OA
ENDBRANCH   8  20
TORSDOF 3
ENDMDL
MODEL 3
REMARK VINA RESULT:      -6.6     12.809     13.887
REMARK  3 active torsions:
REMARK  status: ('A' for Active; 'I' for Inactive)
REMARK    1  A    between atoms: C_9  and  C_8 
REMARK       I    between atoms: C_9  and  N_10 
REMARK    2  A    between atoms: C_12  and  S_14 
REMARK    3  A    between atoms: S_14  and  N_17 
ROOT
HETATM    1 Br   UNK N   1      31.098  22.491  -2.944  0.00  0.00    -0.051 Br
HETATM    2  C   UNK N   1      29.964  22.458  -4.473  0.00  0.00     0.011 A 
HETATM    3  C   UNK N   1      28.903  23.376  -4.579  0.00  0.00     0.034 A 
HETATM    4  C   UNK N   1      30.197  21.514  -5.499  0.00  0.00     0.021 A 
HETATM    5  C   UNK N   1      29.371  21.480  -6.636  0.00  0.00     0.032 A 
HETATM    6  C   UNK N   1      28.333  22.403  -6.710  0.00  0.00     0.044 A 
HETATM    7  N   UNK N   1      27.444  22.527  -7.709  0.00  0.00    -0.350 N 
HETATM    8  C   UNK N   1      26.624  23.549  -7.364  0.00  0.00     0.125 A 
HETATM    9  C   UNK N   1      27.017  24.079  -6.096  0.00  0.00     0.119 A 
HETATM   10  C   UNK N   1      28.105  23.320  -5.721  0.00  0.00     0.017 A 
HETATM   11  H   UNK N   1      27.399  21.984  -8.529  0.00  0.00     0.166 HD
ENDROOT
BRANCH   9  12
HETATM   12  S   UNK N   1      26.328  25.403  -5.027  0.00  0.00     0.247 S 
HETATM   13  O   UNK N   1      24.935  25.044  -5.566  0.00  0.00    -0.206 OA
HETATM   14  O   UNK N   1      26.924  25.991  -6.317  0.00  0.00    -0.206 OA
BRANCH  12  15
HETATM   15  N   UNK N   1      25.905  27.155  -4.948  0.00  0.00    -0.206 NA
HETATM   16  C   UNK N   1      26.941  27.893  -5.657  0.00  0.00     0.107 C 
HETATM   17  C   UNK N   1      27.056  29.266  -5.016  0.00  0.00     0.017 C 
HETATM   18  C   UNK N   1      26.224  29.208  -3.759  0.00  0.00     0.017 C 
HETATM   19  C   UNK N   1      25.882  27.749  -3.603  0.00  0.00     0.107 C 
ENDBRANCH  12  15
ENDBRANCH   9  12
BRANCH   8  20
HETATM   20  C   UNK N   1      25.529  23.977  -8.280  0.00  0.00     0.267 C 
HETATM   21  N   UNK N   1      25.511  25.195  -8.851  0.00  0.00    -0.365 N 
HETATM   22  H   UNK N   1      24.769  25.449  -9.447  0.00  0.00     0.159 HD
HETATM   23  H   UNK N   1      26.239  25.834  -8.672  0.00  0.00     0.159 HD
HETATM   24  O   UNK N   1      24.646  23.183  -8.559  0.00  0.00    -0.266 OA
ENDBRANCH   8  20
TORSDOF 3
ENDMDL
MODEL 4
REMARK VINA RESULT:      -6.5     11.738     13.550
REMARK  3 active torsions:
REMARK  status: ('A' for Active; 'I' for Inactive)
REMARK    1  A    between atoms: C_9  and  C_8 
REMARK       I    between atoms: C_9  and  N_10 
REMARK    2  A    between atoms: C_12  and  S_14 
REMARK    3  A    between atoms: S_14  and  N_17 
ROOT
HETATM    1 Br   UNK N   1      28.914  21.511  -9.980  0.00  0.00    -0.051 Br
HETATM    2  C   UNK N   1      29.373  21.440  -8.133  0.00  0.00     0.011 A 
HETATM    3  C   UNK N   1      28.939  22.458  -7.263  0.00  0.00     0.034 A 
HETATM    4  C   UNK N   1      30.143  20.361  -7.642  0.00  0.00     0.021 A 
HETATM    5  C   UNK N   1      30.487  20.294  -6.280  0.00  0.00     0.032 A 
HETATM    6  C   UNK N   1      30.040  21.314  -5.448  0.00  0.00     0.044 A 
HETATM    7  N   UNK N   1      30.263  21.425  -4.128  0.00  0.00    -0.350 N 
HETATM    8  C   UNK N   1      29.644  22.564  -3.732  0.00  0.00     0.125 A 
HETATM    9  C   UNK N   1      29.014  23.189  -4.853  0.00  0.00     0.119 A 
HETATM   10  C   UNK N   1      29.292  22.360  -5.918  0.00  0.00     0.017 A 
HETATM   11  H   UNK N   1      30.774  20.803  -3.563  0.00  0.00     0.166 HD
ENDROOT
BRANCH   9  12
HETATM   12  S   UNK N   1      28.071  24.752  -5.044  0.00  0.00     0.247 S 
HETATM   13  O   UNK N   1      28.855  25.313  -3.848  0.00  0.00    -0.206 OA
HETATM   14  O   UNK N   1      27.240  23.697  -4.294  0.00  0.00    -0.206 OA
BRANCH  12  15
HETATM   15  N   UNK N   1      26.579  25.638  -4.550  0.00  0.00    -0.206 NA
HETATM   16  C   UNK N   1      25.697  25.699  -5.707  0.00  0.00     0.107 C 
HETATM   17  C   UNK N   1      24.875  26.973  -5.599  0.00  0.00     0.017 C 
HETATM   18  C   UNK N   1      25.485  27.765  -4.470  0.00  0.00     0.017 C 
HETATM   19  C   UNK N   1      26.767  27.042  -4.154  0.00  0.00     0.107 C 
ENDBRANCH  12  15
ENDBRANCH   9  12
BRANCH   8  20
HETATM   20  C   UNK N   1      29.668  22.973  -2.299  0.00  0.00     0.267 C 
HETATM   21  N   UNK N   1      28.541  23.186  -1.598  0.00  0.00    -0.365 N 
HETATM   22  H   UNK N   1      28.591  23.461  -0.654  0.00  0.00     0.159 HD
HETATM   23  H   UNK N   1      27.662  23.066  -2.028  0.00  0.00     0.159 HD
HETATM   24  O   UNK N   1      30.743  23.073  -1.729  0.00  0.00    -0.266 OA
ENDBRANCH   8  20
TORSDOF 3
ENDMDL
MODEL 5
REMARK VINA RESULT:      -6.4      3.626      6.929
REMARK  3 active torsions:
REMARK  status: ('A' for Active; 'I' for Inactive)
REMARK    1  A    between atoms: C_9  and  C_8 
REMARK       I    between atoms: C_9  and  N_10 
REMARK    2  A    between atoms: C_12  and  S_14 
REMARK    3  A    between atoms: S_14  and  N_17 
ROOT
HETATM    1 Br   UNK N   1      24.100  11.729   8.610  0.00  0.00    -0.051 Br
HETATM    2  C   UNK N   1      22.546  12.729   9.068  0.00  0.00     0.011 A 
HETATM    3  C   UNK N   1      22.215  13.885   8.336  0.00  0.00     0.034 A 
HETATM    4  C   UNK N   1      21.728  12.303  10.139  0.00  0.00     0.021 A 
HETATM    5  C   UNK N   1      20.575  13.029  10.487  0.00  0.00     0.032 A 
HETATM    6  C   UNK N   1      20.276  14.165   9.742  0.00  0.00     0.044 A 
HETATM    7  N   UNK N   1      19.225  14.983   9.919  0.00  0.00    -0.350 N 
HETATM    8  C   UNK N   1      19.331  15.948   8.974  0.00  0.00     0.125 A 
HETATM    9  C   UNK N   1      20.497  15.722   8.178  0.00  0.00     0.119 A 
HETATM   10  C   UNK N   1      21.063  14.580   8.703  0.00  0.00     0.017 A 
HETATM   11  H   UNK N   1      18.520  14.898  10.600  0.00  0.00     0.166 HD
ENDROOT
BRANCH   9  12
HETATM   12  S   UNK N   1      21.262  16.650   6.791  0.00  0.00     0.247 S 
HETATM   13  O   UNK N   1      20.783  17.947   7.460  0.00  0.00    -0.206 OA
HETATM   14  O   UNK N   1      19.890  16.086   6.385  0.00  0.00    -0.206 OA
BRANCH  12  15
HETATM   15  N   UNK N   1      20.976  17.331   5.145  0.00  0.00    -0.206 NA
HETATM   16  C   UNK N   1      19.827  16.641   4.573  0.00  0.00     0.107 C 
HETATM   17  C   UNK N   1      20.009  16.606   3.065  0.00  0.00     0.017 C 
HETATM   18  C   UNK N   1      21.416  17.082   2.806  0.00  0.00     0.017 C 
HETATM   19  C   UNK N   1      22.056  17.123   4.168  0.00  0.00     0.107 C 
ENDBRANCH  12  15
ENDBRANCH   9  12
BRANCH   8  20
HETATM   20  C   UNK N   1      18.294  17.014   8.868  0.00  0.00     0.267 C 
HETATM   21  N   UNK N   1      18.470  18.237   9.398  0.00  0.00    -0.365 N 
HETATM   22  H   UNK N   1      17.763  18.917   9.315  0.00  0.00     0.159 HD
HETATM   23  H   UNK N   1      19.307  18.453   9.871  0.00  0.00     0.159 HD
HETATM   24  O   UNK N   1      17.273  16.786   8.239  0.00  0.00    -0.266 OA
ENDBRANCH   8  20
TORSDOF 3
ENDMDL
MODEL 6
REMARK VINA RESULT:      -5.9      5.432      7.099
REMARK  3 active torsions:
REMARK  status: ('A' for Active; 'I' for Inactive)
REMARK    1  A    between atoms: C_9  and  C_8 
REMARK       I    between atoms: C_9  and  N_10 
REMARK    2  A    between atoms: C_12  and  S_14 
REMARK    3  A    between atoms: S_14  and  N_17 
ROOT
HETATM    1 Br   UNK N   1      33.353  16.124   3.075  0.00  0.00    -0.051 Br
HETATM    2  C   UNK N   1      32.507  16.544   4.729  0.00  0.00     0.011 A 
HETATM    3  C   UNK N   1      31.124  16.803   4.762  0.00  0.00     0.034 A 
HETATM    4  C   UNK N   1      33.271  16.589   5.916  0.00  0.00     0.021 A 
HETATM    5  C   UNK N   1      32.660  16.895   7.145  0.00  0.00     0.032 A 
HETATM    6  C   UNK N   1      31.292  17.142   7.144  0.00  0.00     0.044 A 
HETATM    7  N   UNK N   1      30.533  17.447   8.210  0.00  0.00    -0.350 N 
HETATM    8  C   UNK N   1      29.270  17.600   7.746  0.00  0.00     0.125 A 
HETATM    9  C   UNK N   1      29.241  17.385   6.333  0.00  0.00     0.119 A 
HETATM   10  C   UNK N   1      30.546  17.097   5.997  0.00  0.00     0.017 A 
HETATM   11  H   UNK N   1      30.836  17.540   9.141  0.00  0.00     0.166 HD
ENDROOT
BRANCH   9  12
HETATM   12  S   UNK N   1      27.903  17.486   5.081  0.00  0.00     0.247 S 
HETATM   13  O   UNK N   1      27.377  18.728   5.815  0.00  0.00    -0.206 OA
HETATM   14  O   UNK N   1      27.574  16.433   6.153  0.00  0.00    -0.206 OA
BRANCH  12  15
HETATM   15  N   UNK N   1      26.228  16.952   4.674  0.00  0.00    -0.206 NA
HETATM   16  C   UNK N   1      25.386  18.139   4.617  0.00  0.00     0.107 C 
HETATM   17  C   UNK N   1      23.980  17.732   5.024  0.00  0.00     0.017 C 
HETATM   18  C   UNK N   1      24.092  16.323   5.551  0.00  0.00     0.017 C 
HETATM   19  C   UNK N   1      25.574  16.082   5.663  0.00  0.00     0.107 C 
ENDBRANCH  12  15
ENDBRANCH   9  12
BRANCH   8  20
HETATM   20  C   UNK N   1      28.156  17.916   8.687  0.00  0.00     0.267 C 
HETATM   21  N   UNK N   1      27.449  19.056   8.600  0.00  0.00    -0.365 N 
HETATM   22  H   UNK N   1      26.723  19.236   9.241  0.00  0.00     0.159 HD
HETATM   23  H   UNK N   1      27.657  19.712   7.895  0.00  0.00     0.159 HD
HETATM   24  O   UNK N   1      27.845  17.093   9.533  0.00  0.00    -0.266 OA
ENDBRANCH   8  20
TORSDOF 3
ENDMDL
MODEL 7
REMARK VINA RESULT:      -5.8     13.557     15.458
REMARK  3 active torsions:
REMARK  status: ('A' for Active; 'I' for Inactive)
REMARK    1  A    between atoms: C_9  and  C_8 
REMARK       I    between atoms: C_9  and  N_10 
REMARK    2  A    between atoms: C_12  and  S_14 
REMARK    3  A    between atoms: S_14  and  N_17 
ROOT
HETATM    1 Br   UNK N   1      37.530   9.900  14.443  0.00  0.00    -0.051 Br
HETATM    2  C   UNK N   1      37.059  11.682  13.968  0.00  0.00     0.011 A 
HETATM    3  C   UNK N   1      36.691  11.980  12.642  0.00  0.00     0.034 A 
HETATM    4  C   UNK N   1      37.076  12.698  14.950  0.00  0.00     0.021 A 
HETATM    5  C   UNK N   1      36.728  14.019  14.614  0.00  0.00     0.032 A 
HETATM    6  C   UNK N   1      36.366  14.278  13.297  0.00  0.00     0.044 A 
HETATM    7  N   UNK N   1      36.002  15.466  12.787  0.00  0.00    -0.350 N 
HETATM    8  C   UNK N   1      35.737  15.252  11.475  0.00  0.00     0.125 A 
HETATM    9  C   UNK N   1      35.948  13.875  11.156  0.00  0.00     0.119 A 
HETATM   10  C   UNK N   1      36.346  13.298  12.343  0.00  0.00     0.017 A 
HETATM   11  H   UNK N   1      35.941  16.321  13.270  0.00  0.00     0.166 HD
ENDROOT
BRANCH   9  12
HETATM   12  S   UNK N   1      35.834  12.924   9.590  0.00  0.00     0.247 S 
HETATM   13  O   UNK N   1      36.197  14.213   8.839  0.00  0.00    -0.206 OA
HETATM   14  O   UNK N   1      34.438  13.336  10.085  0.00  0.00    -0.206 OA
BRANCH  12  15
HETATM   15  N   UNK N   1      34.726  12.401   8.266  0.00  0.00    -0.206 NA
HETATM   16  C   UNK N   1      35.424  12.594   7.002  0.00  0.00     0.107 C 
HETATM   17  C   UNK N   1      34.382  12.894   5.937  0.00  0.00     0.017 C 
HETATM   18  C   UNK N   1      33.084  13.109   6.675  0.00  0.00     0.017 C 
HETATM   19  C   UNK N   1      33.484  13.177   8.125  0.00  0.00     0.107 C 
ENDBRANCH  12  15
ENDBRANCH   9  12
BRANCH   8  20
HETATM   20  C   UNK N   1      35.270  16.372  10.610  0.00  0.00     0.267 C 
HETATM   21  N   UNK N   1      34.103  16.321   9.943  0.00  0.00    -0.365 N 
HETATM   22  H   UNK N   1      33.826  17.076   9.375  0.00  0.00     0.159 HD
HETATM   23  H   UNK N   1      33.525  15.527  10.022  0.00  0.00     0.159 HD
HETATM   24  O   UNK N   1      35.943  17.388  10.541  0.00  0.00    -0.266 OA
ENDBRANCH   8  20
TORSDOF 3
ENDMDL
MODEL 8
REMARK VINA RESULT:      -5.8     19.344     20.523
REMARK  3 active torsions:
REMARK  status: ('A' for Active; 'I' for Inactive)
REMARK    1  A    between atoms: C_9  and  C_8 
REMARK       I    between atoms: C_9  and  N_10 
REMARK    2  A    between atoms: C_12  and  S_14 
REMARK    3  A    between atoms: S_14  and  N_17 
ROOT
HETATM    1 Br   UNK N   1      38.896  22.396  -2.015  0.00  0.00    -0.051 Br
HETATM    2  C   UNK N   1      40.040  22.866  -0.567  0.00  0.00     0.011 A 
HETATM    3  C   UNK N   1      40.731  21.861   0.136  0.00  0.00     0.034 A 
HETATM    4  C   UNK N   1      40.195  24.224  -0.208  0.00  0.00     0.021 A 
HETATM    5  C   UNK N   1      41.039  24.587   0.857  0.00  0.00     0.032 A 
HETATM    6  C   UNK N   1      41.708  23.570   1.528  0.00  0.00     0.044 A 
HETATM    7  N   UNK N   1      42.553  23.716   2.563  0.00  0.00    -0.350 N 
HETATM    8  C   UNK N   1      42.967  22.469   2.894  0.00  0.00     0.125 A 
HETATM    9  C   UNK N   1      42.353  21.508   2.032  0.00  0.00     0.119 A 
HETATM   10  C   UNK N   1      41.564  22.254   1.183  0.00  0.00     0.017 A 
HETATM   11  H   UNK N   1      42.817  24.560   2.994  0.00  0.00     0.166 HD
ENDROOT
BRANCH   9  12
HETATM   12  S   UNK N   1      42.420  19.676   1.956  0.00  0.00     0.247 S 
HETATM   13  O   UNK N   1      42.286  19.657   3.485  0.00  0.00    -0.206 OA
HETATM   14  O   UNK N   1      43.830  20.282   1.859  0.00  0.00    -0.206 OA
BRANCH  12  15
HETATM   15  N   UNK N   1      43.516  18.243   1.980  0.00  0.00    -0.206 NA
HETATM   16  C   UNK N   1      42.724  17.085   2.372  0.00  0.00     0.107 C 
HETATM   17  C   UNK N   1      43.641  16.119   3.103  0.00  0.00     0.017 C 
HETATM   18  C   UNK N   1      44.931  16.867   3.334  0.00  0.00     0.017 C 
HETATM   19  C   UNK N   1      44.612  18.290   2.960  0.00  0.00     0.107 C 
ENDBRANCH  12  15
ENDBRANCH   9  12
BRANCH   8  20
HETATM   20  C   UNK N   1      43.950  22.272   3.997  0.00  0.00     0.267 C 
HETATM   21  N   UNK N   1      45.273  22.187   3.769  0.00  0.00    -0.365 N 
HETATM   22  H   UNK N   1      45.895  22.050   4.520  0.00  0.00     0.159 HD
HETATM   23  H   UNK N   1      45.621  22.261   2.850  0.00  0.00     0.159 HD
HETATM   24  O   UNK N   1      43.547  22.233   5.149  0.00  0.00    -0.266 OA
ENDBRANCH   8  20
TORSDOF 3
ENDMDL
MODEL 9
REMARK VINA RESULT:      -5.7     14.062     15.623
REMARK  3 active torsions:
REMARK  status: ('A' for Active; 'I' for Inactive)
REMARK    1  A    between atoms: C_9  and  C_8 
REMARK       I    between atoms: C_9  and  N_10 
REMARK    2  A    between atoms: C_12  and  S_14 
REMARK    3  A    between atoms: S_14  and  N_17 
ROOT
HETATM    1 Br   UNK N   1      39.400   9.714   9.503  0.00  0.00    -0.051 Br
HETATM    2  C   UNK N   1      38.489  11.334   9.088  0.00  0.00     0.011 A 
HETATM    3  C   UNK N   1      37.574  11.879  10.009  0.00  0.00     0.034 A 
HETATM    4  C   UNK N   1      38.739  11.985   7.859  0.00  0.00     0.021 A 
HETATM    5  C   UNK N   1      38.076  13.184   7.541  0.00  0.00     0.032 A 
HETATM    6  C   UNK N   1      37.181  13.696   8.473  0.00  0.00     0.044 A 
HETATM    7  N   UNK N   1      36.457  14.821   8.353  0.00  0.00    -0.350 N 
HETATM    8  C   UNK N   1      35.731  14.931   9.491  0.00  0.00     0.125 A 
HETATM    9  C   UNK N   1      36.012  13.826  10.354  0.00  0.00     0.119 A 
HETATM   10  C   UNK N   1      36.937  13.071   9.666  0.00  0.00     0.017 A 
HETATM   11  H   UNK N   1      36.456  15.442   7.589  0.00  0.00     0.166 HD
ENDROOT
BRANCH   9  12
HETATM   12  S   UNK N   1      35.354  13.322  11.992  0.00  0.00     0.247 S 
HETATM   13  O   UNK N   1      34.107  14.166  11.696  0.00  0.00    -0.206 OA
HETATM   14  O   UNK N   1      36.373  14.466  12.136  0.00  0.00    -0.206 OA
BRANCH  12  15
HETATM   15  N   UNK N   1      35.292  13.747  13.744  0.00  0.00    -0.206 NA
HETATM   16  C   UNK N   1      36.518  14.465  14.069  0.00  0.00     0.107 C 
HETATM   17  C   UNK N   1      36.852  14.180  15.524  0.00  0.00     0.017 C 
HETATM   18  C   UNK N   1      35.914  13.081  15.957  0.00  0.00     0.017 C 
HETATM   19  C   UNK N   1      35.269  12.612  14.680  0.00  0.00     0.107 C 
ENDBRANCH  12  15
ENDBRANCH   9  12
BRANCH   8  20
HETATM   20  C   UNK N   1      34.832  16.101   9.701  0.00  0.00     0.267 C 
HETATM   21  N   UNK N   1      34.914  16.878  10.795  0.00  0.00    -0.365 N 
HETATM   22  H   UNK N   1      34.301  17.641  10.905  0.00  0.00     0.159 HD
HETATM   23  H   UNK N   1      35.587  16.685  11.488  0.00  0.00     0.159 HD
HETATM   24  O   UNK N   1      34.027  16.393   8.830  0.00  0.00    -0.266 OA
ENDBRANCH   8  20
TORSDOF 3
ENDMDL
