MODEL 1
REMARK VINA RESULT:      -7.3      0.000      0.000
REMARK  8 active torsions:
REMARK  status: ('A' for Active; 'I' for Inactive)
REMARK    1  A    between atoms: C_5  and  N_8 
REMARK    2  A    between atoms: N_8  and  C_9 
REMARK    3  A    between atoms: C_9  and  N_11 
REMARK    4  A    between atoms: C_12  and  N_11 
REMARK    5  A    between atoms: C_14  and  C_15 
REMARK    6  A    between atoms: C_16  and  O_25 
REMARK    7  A    between atoms: C_19  and  C_22 
REMARK    8  A    between atoms: C_20  and  O_21 
ROOT
HETATM    1  C   UNK N   1      22.785  12.208  11.320  0.00  0.00     0.060 A 
HETATM    2  C   UNK N   1      21.425  12.257  10.990  0.00  0.00     0.112 A 
HETATM    3  N   UNK N   1      21.046  12.729   9.771  0.00  0.00    -0.351 N 
ATOM      4  HN  UNK N   1      20.057  12.754   9.522  1.00  0.00     0.166 HD
HETATM    5  C   UNK N   1      21.974  13.167   8.887  0.00  0.00     0.107 A 
HETATM    6  C   UNK N   1      23.316  12.999   9.167  0.00  0.00     0.050 A 
HETATM    7  C   UNK N   1      23.731  12.528  10.382  0.00  0.00     0.028 A 
HETATM    8  C   UNK N   1      23.224  12.033  12.657  0.00  0.00     0.101 C 
HETATM    9  N   UNK N   1      23.632  11.900  13.728  0.00  0.00    -0.191 NA
ENDROOT
BRANCH   5  10
HETATM   10  N   UNK N   1      21.574  13.902   7.756  0.00  0.00    -0.319 N 
HETATM   11  H   UNK N   1      21.525  13.431   6.893  0.00  0.00     0.169 HD
BRANCH  10  12
HETATM   12  C   UNK N   1      21.236  15.283   7.783  0.00  0.00     0.173 C 
HETATM   13  S   UNK N   1      20.222  15.809   8.691  0.00  0.00    -0.041 SA
BRANCH  12  14
HETATM   14  N   UNK N   1      21.913  16.111   6.851  0.00  0.00    -0.362 N 
HETATM   15  H   UNK N   1      22.811  16.429   7.100  0.00  0.00     0.162 HD
BRANCH  14  16
HETATM   16  C   UNK N   1      21.399  16.524   5.579  0.00  0.00     0.093 A 
HETATM   17  C   UNK N   1      22.211  16.276   4.313  0.00  0.00     0.037 A 
HETATM   18  C   UNK N   1      22.552  17.467   5.121  0.00  0.00     0.049 A 
BRANCH  18  19
HETATM   19  C   UNK N   1      23.358  18.540   4.409  0.00  0.00     0.015 C 
HETATM   20  C   UNK N   1      22.877  19.533   3.541  0.00  0.00     0.077 C 
HETATM   21  C   UNK N   1      23.768  20.495   3.025  0.00  0.00     0.038 C 
HETATM   22  C   UNK N   1      25.148  20.384   3.240  0.00  0.00     0.021 C 
HETATM   23  C   UNK N   1      25.631  19.339   4.015  0.00  0.00     0.043 C 
HETATM   24  C   UNK N   1      24.732  18.512   4.671  0.00  0.00     0.089 C 
BRANCH  20  25
HETATM   25  O   UNK N   1      21.579  19.599   3.214  0.00  0.00    -0.355 OA
HETATM   26  C   UNK N   1      21.187  20.223   2.061  0.00  0.00     0.210 C 
ENDBRANCH  20  25
BRANCH  23  27
HETATM   27  C   UNK N   1      27.055  18.929   3.941  0.00  0.00     0.158 C 
HETATM   28  O   UNK N   1      27.380  17.770   3.765  0.00  0.00    -0.293 OA
HETATM   29  C   UNK N   1      28.073  19.875   4.502  0.00  0.00     0.097 C 
ENDBRANCH  23  27
BRANCH  24  30
HETATM   30  O   UNK N   1      25.202  17.666   5.570  0.00  0.00    -0.359 OA
HETATM   31  H   UNK N   1      25.870  17.035   5.384  0.00  0.00     0.217 HD
ENDBRANCH  24  30
ENDBRANCH  18  19
ENDBRANCH  14  16
ENDBRANCH  12  14
ENDBRANCH  10  12
ENDBRANCH   5  10
TORSDOF 8
ENDMDL
MODEL 2
REMARK VINA RESULT:      -7.1     14.636     16.562
REMARK  8 active torsions:
REMARK  status: ('A' for Active; 'I' for Inactive)
REMARK    1  A    between atoms: C_5  and  N_8 
REMARK    2  A    between atoms: N_8  and  C_9 
REMARK    3  A    between atoms: C_9  and  N_11 
REMARK    4  A    between atoms: C_12  and  N_11 
REMARK    5  A    between atoms: C_14  and  C_15 
REMARK    6  A    between atoms: C_16  and  O_25 
REMARK    7  A    between atoms: C_19  and  C_22 
REMARK    8  A    between atoms: C_20  and  O_21 
ROOT
HETATM    1  C   UNK N   1      25.726  25.192  -4.998  0.00  0.00     0.060 A 
HETATM    2  C   UNK N   1      26.277  25.340  -3.720  0.00  0.00     0.112 A 
HETATM    3  N   UNK N   1      26.314  26.572  -3.142  0.00  0.00    -0.351 N 
ATOM      4  HN  UNK N   1      26.703  26.682  -2.206  1.00  0.00     0.166 HD
HETATM    5  C   UNK N   1      25.838  27.653  -3.804  0.00  0.00     0.107 A 
HETATM    6  C   UNK N   1      25.183  27.484  -5.008  0.00  0.00     0.050 A 
HETATM    7  C   UNK N   1      25.127  26.260  -5.616  0.00  0.00     0.028 A 
HETATM    8  C   UNK N   1      25.939  24.025  -5.774  0.00  0.00     0.101 C 
HETATM    9  N   UNK N   1      26.087  23.099  -6.447  0.00  0.00    -0.191 NA
ENDROOT
BRANCH   5  10
HETATM   10  N   UNK N   1      26.126  28.947  -3.332  0.00  0.00    -0.319 N 
HETATM   11  H   UNK N   1      25.374  29.502  -3.022  0.00  0.00     0.169 HD
BRANCH  10  12
HETATM   12  C   UNK N   1      27.433  29.502  -3.274  0.00  0.00     0.173 C 
HETATM   13  S   UNK N   1      27.786  30.542  -2.313  0.00  0.00    -0.041 SA
BRANCH  12  14
HETATM   14  N   UNK N   1      28.363  29.014  -4.228  0.00  0.00    -0.362 N 
HETATM   15  H   UNK N   1      28.085  29.020  -5.173  0.00  0.00     0.162 HD
BRANCH  14  16
HETATM   16  C   UNK N   1      29.673  28.514  -3.933  0.00  0.00     0.093 A 
HETATM   17  C   UNK N   1      30.580  28.042  -5.064  0.00  0.00     0.037 A 
HETATM   18  C   UNK N   1      29.562  27.094  -4.562  0.00  0.00     0.049 A 
BRANCH  18  19
HETATM   19  C   UNK N   1      29.796  25.632  -4.904  0.00  0.00     0.015 C 
HETATM   20  C   UNK N   1      29.411  24.957  -6.074  0.00  0.00     0.077 C 
HETATM   21  C   UNK N   1      29.779  23.609  -6.250  0.00  0.00     0.038 C 
HETATM   22  C   UNK N   1      30.388  22.888  -5.215  0.00  0.00     0.021 C 
HETATM   23  C   UNK N   1      30.675  23.533  -4.020  0.00  0.00     0.043 C 
HETATM   24  C   UNK N   1      30.481  24.903  -3.926  0.00  0.00     0.089 C 
BRANCH  20  25
HETATM   25  O   UNK N   1      28.719  25.580  -7.038  0.00  0.00    -0.355 OA
HETATM   26  C   UNK N   1      28.644  25.043  -8.294  0.00  0.00     0.210 C 
ENDBRANCH  20  25
BRANCH  23  27
HETATM   27  C   UNK N   1      30.924  22.761  -2.777  0.00  0.00     0.158 C 
HETATM   28  O   UNK N   1      30.509  23.135  -1.697  0.00  0.00    -0.293 OA
HETATM   29  C   UNK N   1      32.036  21.757  -2.803  0.00  0.00     0.097 C 
ENDBRANCH  23  27
BRANCH  24  30
HETATM   30  O   UNK N   1      30.960  25.531  -2.868  0.00  0.00    -0.359 OA
HETATM   31  H   UNK N   1      30.460  26.141  -2.360  0.00  0.00     0.217 HD
ENDBRANCH  24  30
ENDBRANCH  18  19
ENDBRANCH  14  16
ENDBRANCH  12  14
ENDBRANCH  10  12
ENDBRANCH   5  10
TORSDOF 8
ENDMDL
MODEL 3
REMARK VINA RESULT:      -7.0      9.384     11.438
REMARK  8 active torsions:
REMARK  status: ('A' for Active; 'I' for Inactive)
REMARK    1  A    between atoms: C_5  and  N_8 
REMARK    2  A    between atoms: N_8  and  C_9 
REMARK    3  A    between atoms: C_9  and  N_11 
REMARK    4  A    between atoms: C_12  and  N_11 
REMARK    5  A    between atoms: C_14  and  C_15 
REMARK    6  A    between atoms: C_16  and  O_25 
REMARK    7  A    between atoms: C_19  and  C_22 
REMARK    8  A    between atoms: C_20  and  O_21 
ROOT
HETATM    1  C   UNK N   1      35.678  12.430  14.617  0.00  0.00     0.060 A 
HETATM    2  C   UNK N   1      34.843  12.332  13.498  0.00  0.00     0.112 A 
HETATM    3  N   UNK N   1      34.822  13.342  12.585  0.00  0.00    -0.351 N 
ATOM      4  HN  UNK N   1      34.224  13.268  11.762  1.00  0.00     0.166 HD
HETATM    5  C   UNK N   1      35.588  14.444  12.764  0.00  0.00     0.107 A 
HETATM    6  C   UNK N   1      36.501  14.480  13.800  0.00  0.00     0.050 A 
HETATM    7  C   UNK N   1      36.549  13.482  14.734  0.00  0.00     0.028 A 
HETATM    8  C   UNK N   1      35.520  11.586  15.745  0.00  0.00     0.101 C 
HETATM    9  N   UNK N   1      35.428  10.928  16.689  0.00  0.00    -0.191 NA
ENDROOT
BRANCH   5  10
HETATM   10  N   UNK N   1      35.362  15.591  11.981  0.00  0.00    -0.319 N 
HETATM   11  H   UNK N   1      35.177  16.438  12.447  0.00  0.00     0.169 HD
BRANCH  10  12
HETATM   12  C   UNK N   1      35.386  15.602  10.560  0.00  0.00     0.173 C 
HETATM   13  S   UNK N   1      36.295  14.751   9.799  0.00  0.00    -0.041 SA
BRANCH  12  14
HETATM   14  N   UNK N   1      34.504  16.515   9.926  0.00  0.00    -0.362 N 
HETATM   15  H   UNK N   1      33.740  16.843  10.454  0.00  0.00     0.162 HD
BRANCH  14  16
HETATM   16  C   UNK N   1      34.631  16.998   8.584  0.00  0.00     0.093 A 
HETATM   17  C   UNK N   1      33.968  18.310   8.181  0.00  0.00     0.037 A 
HETATM   18  C   UNK N   1      33.126  17.095   8.193  0.00  0.00     0.049 A 
BRANCH  18  19
HETATM   19  C   UNK N   1      31.830  17.182   7.405  0.00  0.00     0.015 C 
HETATM   20  C   UNK N   1      31.672  17.104   6.012  0.00  0.00     0.077 C 
HETATM   21  C   UNK N   1      30.377  17.133   5.458  0.00  0.00     0.038 C 
HETATM   22  C   UNK N   1      29.258  17.393   6.260  0.00  0.00     0.021 C 
HETATM   23  C   UNK N   1      29.430  17.572   7.626  0.00  0.00     0.043 C 
HETATM   24  C   UNK N   1      30.681  17.354   8.183  0.00  0.00     0.089 C 
BRANCH  20  25
HETATM   25  O   UNK N   1      32.730  16.977   5.200  0.00  0.00    -0.355 OA
HETATM   26  C   UNK N   1      33.177  15.736   4.834  0.00  0.00     0.210 C 
ENDBRANCH  20  25
BRANCH  23  27
HETATM   27  C   UNK N   1      28.390  18.242   8.444  0.00  0.00     0.158 C 
HETATM   28  O   UNK N   1      27.848  17.680   9.377  0.00  0.00    -0.293 OA
HETATM   29  C   UNK N   1      27.722  19.448   7.856  0.00  0.00     0.097 C 
ENDBRANCH  23  27
BRANCH  24  30
HETATM   30  O   UNK N   1      30.779  17.315   9.500  0.00  0.00    -0.359 OA
HETATM   31  H   UNK N   1      31.598  17.264   9.954  0.00  0.00     0.217 HD
ENDBRANCH  24  30
ENDBRANCH  18  19
ENDBRANCH  14  16
ENDBRANCH  12  14
ENDBRANCH  10  12
ENDBRANCH   5  10
TORSDOF 8
ENDMDL
MODEL 4
REMARK VINA RESULT:      -6.9      4.241      6.702
REMARK  8 active torsions:
REMARK  status: ('A' for Active; 'I' for Inactive)
REMARK    1  A    between atoms: C_5  and  N_8 
REMARK    2  A    between atoms: N_8  and  C_9 
REMARK    3  A    between atoms: C_9  and  N_11 
REMARK    4  A    between atoms: C_12  and  N_11 
REMARK    5  A    between atoms: C_14  and  C_15 
REMARK    6  A    between atoms: C_16  and  O_25 
REMARK    7  A    between atoms: C_19  and  C_22 
REMARK    8  A    between atoms: C_20  and  O_21 
ROOT
HETATM    1  C   UNK N   1      20.532  19.402   2.205  0.00  0.00     0.060 A 
HETATM    2  C   UNK N   1      19.789  18.218   2.113  0.00  0.00     0.112 A 
HETATM    3  N   UNK N   1      19.809  17.330   3.145  0.00  0.00    -0.351 N 
ATOM      4  HN  UNK N   1      19.260  16.473   3.086  1.00  0.00     0.166 HD
HETATM    5  C   UNK N   1      20.556  17.578   4.246  0.00  0.00     0.107 A 
HETATM    6  C   UNK N   1      21.184  18.800   4.386  0.00  0.00     0.050 A 
HETATM    7  C   UNK N   1      21.183  19.715   3.370  0.00  0.00     0.028 A 
HETATM    8  C   UNK N   1      20.806  20.202   1.068  0.00  0.00     0.101 C 
HETATM    9  N   UNK N   1      21.063  20.885   0.174  0.00  0.00    -0.191 NA
ENDROOT
BRANCH   5  10
HETATM   10  N   UNK N   1      20.795  16.550   5.177  0.00  0.00    -0.319 N 
HETATM   11  H   UNK N   1      20.374  16.623   6.064  0.00  0.00     0.169 HD
BRANCH  10  12
HETATM   12  C   UNK N   1      21.607  15.412   4.916  0.00  0.00     0.173 C 
HETATM   13  S   UNK N   1      21.041  14.070   4.814  0.00  0.00    -0.041 SA
BRANCH  12  14
HETATM   14  N   UNK N   1      23.000  15.650   4.799  0.00  0.00    -0.362 N 
HETATM   15  H   UNK N   1      23.559  15.453   5.586  0.00  0.00     0.162 HD
BRANCH  14  16
HETATM   16  C   UNK N   1      23.663  16.152   3.633  0.00  0.00     0.093 A 
HETATM   17  C   UNK N   1      25.151  15.891   3.431  0.00  0.00     0.037 A 
HETATM   18  C   UNK N   1      24.768  17.018   4.308  0.00  0.00     0.049 A 
BRANCH  18  19
HETATM   19  C   UNK N   1      25.852  18.051   4.567  0.00  0.00     0.015 C 
HETATM   20  C   UNK N   1      26.114  19.216   3.829  0.00  0.00     0.077 C 
HETATM   21  C   UNK N   1      27.123  20.099   4.262  0.00  0.00     0.038 C 
HETATM   22  C   UNK N   1      27.969  19.759   5.325  0.00  0.00     0.021 C 
HETATM   23  C   UNK N   1      27.771  18.556   5.989  0.00  0.00     0.043 C 
HETATM   24  C   UNK N   1      26.662  17.785   5.677  0.00  0.00     0.089 C 
BRANCH  20  25
HETATM   25  O   UNK N   1      25.405  19.516   2.733  0.00  0.00    -0.355 OA
HETATM   26  C   UNK N   1      24.582  20.609   2.718  0.00  0.00     0.210 C 
ENDBRANCH  20  25
BRANCH  23  27
HETATM   27  C   UNK N   1      28.847  17.956   6.817  0.00  0.00     0.158 C 
HETATM   28  O   UNK N   1      29.327  16.870   6.555  0.00  0.00    -0.293 OA
HETATM   29  C   UNK N   1      29.033  18.500   8.201  0.00  0.00     0.097 C 
ENDBRANCH  23  27
BRANCH  24  30
HETATM   30  O   UNK N   1      26.371  16.762   6.460  0.00  0.00    -0.359 OA
HETATM   31  H   UNK N   1      26.865  15.965   6.471  0.00  0.00     0.217 HD
ENDBRANCH  24  30
ENDBRANCH  18  19
ENDBRANCH  14  16
ENDBRANCH  12  14
ENDBRANCH  10  12
ENDBRANCH   5  10
TORSDOF 8
ENDMDL
MODEL 5
REMARK VINA RESULT:      -6.7      1.305      3.366
REMARK  8 active torsions:
REMARK  status: ('A' for Active; 'I' for Inactive)
REMARK    1  A    between atoms: C_5  and  N_8 
REMARK    2  A    between atoms: N_8  and  C_9 
REMARK    3  A    between atoms: C_9  and  N_11 
REMARK    4  A    between atoms: C_12  and  N_11 
REMARK    5  A    between atoms: C_14  and  C_15 
REMARK    6  A    between atoms: C_16  and  O_25 
REMARK    7  A    between atoms: C_19  and  C_22 
REMARK    8  A    between atoms: C_20  and  O_21 
ROOT
HETATM    1  C   UNK N   1      22.532  12.265  11.362  0.00  0.00     0.060 A 
HETATM    2  C   UNK N   1      21.148  12.379  11.186  0.00  0.00     0.112 A 
HETATM    3  N   UNK N   1      20.659  12.919  10.036  0.00  0.00    -0.351 N 
ATOM      4  HN  UNK N   1      19.652  12.992   9.898  1.00  0.00     0.166 HD
HETATM    5  C   UNK N   1      21.504  13.361   9.074  0.00  0.00     0.107 A 
HETATM    6  C   UNK N   1      22.860  13.132   9.197  0.00  0.00     0.050 A 
HETATM    7  C   UNK N   1      23.384  12.591  10.339  0.00  0.00     0.028 A 
HETATM    8  C   UNK N   1      23.106  12.014  12.634  0.00  0.00     0.101 C 
HETATM    9  N   UNK N   1      23.622  11.818  13.647  0.00  0.00    -0.191 NA
ENDROOT
BRANCH   5  10
HETATM   10  N   UNK N   1      21.015  14.161   8.025  0.00  0.00    -0.319 N 
HETATM   11  H   UNK N   1      20.215  14.709   8.196  0.00  0.00     0.169 HD
BRANCH  10  12
HETATM   12  C   UNK N   1      21.605  14.229   6.733  0.00  0.00     0.173 C 
HETATM   13  S   UNK N   1      21.311  13.241   5.700  0.00  0.00    -0.041 SA
BRANCH  12  14
HETATM   14  N   UNK N   1      22.525  15.288   6.520  0.00  0.00    -0.362 N 
HETATM   15  H   UNK N   1      22.451  16.075   7.108  0.00  0.00     0.162 HD
BRANCH  14  16
HETATM   16  C   UNK N   1      23.551  15.309   5.521  0.00  0.00     0.093 A 
HETATM   17  C   UNK N   1      24.767  16.211   5.698  0.00  0.00     0.037 A 
HETATM   18  C   UNK N   1      23.534  16.823   5.156  0.00  0.00     0.049 A 
BRANCH  18  19
HETATM   19  C   UNK N   1      23.717  18.149   4.435  0.00  0.00     0.015 C 
HETATM   20  C   UNK N   1      24.876  18.940   4.384  0.00  0.00     0.077 C 
HETATM   21  C   UNK N   1      24.883  20.111   3.602  0.00  0.00     0.038 C 
HETATM   22  C   UNK N   1      23.709  20.580   3.000  0.00  0.00     0.021 C 
HETATM   23  C   UNK N   1      22.538  19.847   3.138  0.00  0.00     0.043 C 
HETATM   24  C   UNK N   1      22.586  18.604   3.748  0.00  0.00     0.089 C 
BRANCH  20  25
HETATM   25  O   UNK N   1      25.986  18.587   5.047  0.00  0.00    -0.355 OA
HETATM   26  C   UNK N   1      27.175  19.212   4.788  0.00  0.00     0.210 C 
ENDBRANCH  20  25
BRANCH  23  27
HETATM   27  C   UNK N   1      21.214  20.471   2.894  0.00  0.00     0.158 C 
HETATM   28  O   UNK N   1      20.374  20.556   3.770  0.00  0.00    -0.293 OA
HETATM   29  C   UNK N   1      20.771  20.610   1.469  0.00  0.00     0.097 C 
ENDBRANCH  23  27
BRANCH  24  30
HETATM   30  O   UNK N   1      21.518  17.831   3.678  0.00  0.00    -0.359 OA
HETATM   31  H   UNK N   1      20.823  17.853   4.308  0.00  0.00     0.217 HD
ENDBRANCH  24  30
ENDBRANCH  18  19
ENDBRANCH  14  16
ENDBRANCH  12  14
ENDBRANCH  10  12
ENDBRANCH   5  10
TORSDOF 8
ENDMDL
MODEL 6
REMARK VINA RESULT:      -6.6      3.602      4.893
REMARK  8 active torsions:
REMARK  status: ('A' for Active; 'I' for Inactive)
REMARK    1  A    between atoms: C_5  and  N_8 
REMARK    2  A    between atoms: N_8  and  C_9 
REMARK    3  A    between atoms: C_9  and  N_11 
REMARK    4  A    between atoms: C_12  and  N_11 
REMARK    5  A    between atoms: C_14  and  C_15 
REMARK    6  A    between atoms: C_16  and  O_25 
REMARK    7  A    between atoms: C_19  and  C_22 
REMARK    8  A    between atoms: C_20  and  O_21 
ROOT
HETATM    1  C   UNK N   1      23.396  12.076  11.320  0.00  0.00     0.060 A 
HETATM    2  C   UNK N   1      22.188  12.024  10.615  0.00  0.00     0.112 A 
HETATM    3  N   UNK N   1      22.166  12.358   9.295  0.00  0.00    -0.351 N 
ATOM      4  HN  UNK N   1      21.290  12.309   8.775  1.00  0.00     0.166 HD
HETATM    5  C   UNK N   1      23.299  12.758   8.671  0.00  0.00     0.107 A 
HETATM    6  C   UNK N   1      24.507  12.687   9.336  0.00  0.00     0.050 A 
HETATM    7  C   UNK N   1      24.565  12.354  10.661  0.00  0.00     0.028 A 
HETATM    8  C   UNK N   1      23.436  12.051  12.737  0.00  0.00     0.101 C 
HETATM    9  N   UNK N   1      23.522  12.041  13.888  0.00  0.00    -0.191 NA
ENDROOT
BRANCH   5  10
HETATM   10  N   UNK N   1      23.225  13.362   7.402  0.00  0.00    -0.319 N 
HETATM   11  H   UNK N   1      22.567  14.083   7.272  0.00  0.00     0.169 HD
BRANCH  10  12
HETATM   12  C   UNK N   1      24.043  12.998   6.298  0.00  0.00     0.173 C 
HETATM   13  S   UNK N   1      24.041  11.644   5.752  0.00  0.00    -0.041 SA
BRANCH  12  14
HETATM   14  N   UNK N   1      24.887  14.014   5.782  0.00  0.00    -0.362 N 
HETATM   15  H   UNK N   1      25.465  13.777   5.021  0.00  0.00     0.162 HD
BRANCH  14  16
HETATM   16  C   UNK N   1      24.970  15.357   6.275  0.00  0.00     0.093 A 
HETATM   17  C   UNK N   1      25.526  16.462   5.385  0.00  0.00     0.037 A 
HETATM   18  C   UNK N   1      26.498  15.608   6.103  0.00  0.00     0.049 A 
BRANCH  18  19
HETATM   19  C   UNK N   1      27.903  16.172   6.231  0.00  0.00     0.015 C 
HETATM   20  C   UNK N   1      28.945  16.087   5.294  0.00  0.00     0.077 C 
HETATM   21  C   UNK N   1      30.168  16.735   5.555  0.00  0.00     0.038 C 
HETATM   22  C   UNK N   1      30.414  17.332   6.798  0.00  0.00     0.021 C 
HETATM   23  C   UNK N   1      29.415  17.325   7.762  0.00  0.00     0.043 C 
HETATM   24  C   UNK N   1      28.155  16.852   7.427  0.00  0.00     0.089 C 
BRANCH  20  25
HETATM   25  O   UNK N   1      28.789  15.419   4.143  0.00  0.00    -0.355 OA
HETATM   26  C   UNK N   1      28.921  16.066   2.944  0.00  0.00     0.210 C 
ENDBRANCH  20  25
BRANCH  23  27
HETATM   27  C   UNK N   1      29.734  17.555   9.193  0.00  0.00     0.158 C 
HETATM   28  O   UNK N   1      29.534  16.704  10.039  0.00  0.00    -0.293 OA
HETATM   29  C   UNK N   1      29.903  18.975   9.640  0.00  0.00     0.097 C 
ENDBRANCH  23  27
BRANCH  24  30
HETATM   30  O   UNK N   1      27.166  17.051   8.280  0.00  0.00    -0.359 OA
HETATM   31  H   UNK N   1      26.927  17.898   8.603  0.00  0.00     0.217 HD
ENDBRANCH  24  30
ENDBRANCH  18  19
ENDBRANCH  14  16
ENDBRANCH  12  14
ENDBRANCH  10  12
ENDBRANCH   5  10
TORSDOF 8
ENDMDL
MODEL 7
REMARK VINA RESULT:      -6.6     10.671     13.951
REMARK  8 active torsions:
REMARK  status: ('A' for Active; 'I' for Inactive)
REMARK    1  A    between atoms: C_5  and  N_8 
REMARK    2  A    between atoms: N_8  and  C_9 
REMARK    3  A    between atoms: C_9  and  N_11 
REMARK    4  A    between atoms: C_12  and  N_11 
REMARK    5  A    between atoms: C_14  and  C_15 
REMARK    6  A    between atoms: C_16  and  O_25 
REMARK    7  A    between atoms: C_19  and  C_22 
REMARK    8  A    between atoms: C_20  and  O_21 
ROOT
HETATM    1  C   UNK N   1      29.159  17.153   7.124  0.00  0.00     0.060 A 
HETATM    2  C   UNK N   1      29.362  17.876   8.306  0.00  0.00     0.112 A 
HETATM    3  N   UNK N   1      30.564  17.802   8.941  0.00  0.00    -0.351 N 
ATOM      4  HN  UNK N   1      30.719  18.337   9.795  1.00  0.00     0.166 HD
HETATM    5  C   UNK N   1      31.553  17.021   8.446  0.00  0.00     0.107 A 
HETATM    6  C   UNK N   1      31.392  16.412   7.217  0.00  0.00     0.050 A 
HETATM    7  C   UNK N   1      30.199  16.467   6.552  0.00  0.00     0.028 A 
HETATM    8  C   UNK N   1      27.862  16.934   6.594  0.00  0.00     0.101 C 
HETATM    9  N   UNK N   1      26.829  16.723   6.126  0.00  0.00    -0.191 NA
ENDROOT
BRANCH   5  10
HETATM   10  N   UNK N   1      32.679  16.729   9.238  0.00  0.00    -0.319 N 
HETATM   11  H   UNK N   1      32.536  16.241  10.081  0.00  0.00     0.169 HD
BRANCH  10  12
HETATM   12  C   UNK N   1      34.010  17.093   8.895  0.00  0.00     0.173 C 
HETATM   13  S   UNK N   1      34.298  18.247   8.048  0.00  0.00    -0.041 SA
BRANCH  12  14
HETATM   14  N   UNK N   1      35.037  16.250   9.391  0.00  0.00    -0.362 N 
HETATM   15  H   UNK N   1      35.517  16.550  10.197  0.00  0.00     0.162 HD
BRANCH  14  16
HETATM   16  C   UNK N   1      35.435  14.999   8.817  0.00  0.00     0.093 A 
HETATM   17  C   UNK N   1      34.641  13.735   9.122  0.00  0.00     0.037 A 
HETATM   18  C   UNK N   1      35.645  14.167  10.117  0.00  0.00     0.049 A 
BRANCH  18  19
HETATM   19  C   UNK N   1      36.090  13.106  11.110  0.00  0.00     0.015 C 
HETATM   20  C   UNK N   1      37.128  12.174  10.955  0.00  0.00     0.077 C 
HETATM   21  C   UNK N   1      37.447  11.306  12.018  0.00  0.00     0.038 C 
HETATM   22  C   UNK N   1      36.647  11.253  13.166  0.00  0.00     0.021 C 
HETATM   23  C   UNK N   1      35.557  12.107  13.273  0.00  0.00     0.043 C 
HETATM   24  C   UNK N   1      35.366  13.083  12.307  0.00  0.00     0.089 C 
BRANCH  20  25
HETATM   25  O   UNK N   1      37.840  12.111   9.821  0.00  0.00    -0.355 OA
HETATM   26  C   UNK N   1      39.075  12.696   9.746  0.00  0.00     0.210 C 
ENDBRANCH  20  25
BRANCH  23  27
HETATM   27  C   UNK N   1      34.460  11.828  14.232  0.00  0.00     0.158 C 
HETATM   28  O   UNK N   1      34.181  12.601  15.129  0.00  0.00    -0.293 OA
HETATM   29  C   UNK N   1      33.987  10.410  14.343  0.00  0.00     0.097 C 
ENDBRANCH  23  27
BRANCH  24  30
HETATM   30  O   UNK N   1      34.461  14.018  12.534  0.00  0.00    -0.359 OA
HETATM   31  H   UNK N   1      33.925  14.040  13.303  0.00  0.00     0.217 HD
ENDBRANCH  24  30
ENDBRANCH  18  19
ENDBRANCH  14  16
ENDBRANCH  12  14
ENDBRANCH  10  12
ENDBRANCH   5  10
TORSDOF 8
ENDMDL
MODEL 8
REMARK VINA RESULT:      -6.5      5.114      8.073
REMARK  8 active torsions:
REMARK  status: ('A' for Active; 'I' for Inactive)
REMARK    1  A    between atoms: C_5  and  N_8 
REMARK    2  A    between atoms: N_8  and  C_9 
REMARK    3  A    between atoms: C_9  and  N_11 
REMARK    4  A    between atoms: C_12  and  N_11 
REMARK    5  A    between atoms: C_14  and  C_15 
REMARK    6  A    between atoms: C_16  and  O_25 
REMARK    7  A    between atoms: C_19  and  C_22 
REMARK    8  A    between atoms: C_20  and  O_21 
ROOT
HETATM    1  C   UNK N   1      32.397  17.317   6.000  0.00  0.00     0.060 A 
HETATM    2  C   UNK N   1      31.180  17.262   6.689  0.00  0.00     0.112 A 
HETATM    3  N   UNK N   1      30.011  17.287   5.991  0.00  0.00    -0.351 N 
ATOM      4  HN  UNK N   1      29.122  17.234   6.489  1.00  0.00     0.166 HD
HETATM    5  C   UNK N   1      30.021  17.382   4.641  0.00  0.00     0.107 A 
HETATM    6  C   UNK N   1      31.220  17.309   3.960  0.00  0.00     0.050 A 
HETATM    7  C   UNK N   1      32.413  17.282   4.630  0.00  0.00     0.028 A 
HETATM    8  C   UNK N   1      33.617  17.611   6.659  0.00  0.00     0.101 C 
HETATM    9  N   UNK N   1      34.634  17.852   7.147  0.00  0.00    -0.191 NA
ENDROOT
BRANCH   5  10
HETATM   10  N   UNK N   1      28.834  17.685   3.950  0.00  0.00    -0.319 N 
HETATM   11  H   UNK N   1      28.750  17.377   3.019  0.00  0.00     0.169 HD
BRANCH  10  12
HETATM   12  C   UNK N   1      27.746  18.407   4.513  0.00  0.00     0.173 C 
HETATM   13  S   UNK N   1      27.761  19.863   4.617  0.00  0.00    -0.041 SA
BRANCH  12  14
HETATM   14  N   UNK N   1      26.665  17.630   5.001  0.00  0.00    -0.362 N 
HETATM   15  H   UNK N   1      26.247  17.919   5.845  0.00  0.00     0.162 HD
BRANCH  14  16
HETATM   16  C   UNK N   1      26.129  16.461   4.370  0.00  0.00     0.093 A 
HETATM   17  C   UNK N   1      25.559  16.550   2.960  0.00  0.00     0.037 A 
HETATM   18  C   UNK N   1      24.682  16.957   4.079  0.00  0.00     0.049 A 
BRANCH  18  19
HETATM   19  C   UNK N   1      23.195  17.005   3.767  0.00  0.00     0.015 C 
HETATM   20  C   UNK N   1      22.358  15.929   3.432  0.00  0.00     0.077 C 
HETATM   21  C   UNK N   1      20.980  16.154   3.245  0.00  0.00     0.038 C 
HETATM   22  C   UNK N   1      20.458  17.454   3.238  0.00  0.00     0.021 C 
HETATM   23  C   UNK N   1      21.309  18.526   3.469  0.00  0.00     0.043 C 
HETATM   24  C   UNK N   1      22.623  18.280   3.837  0.00  0.00     0.089 C 
BRANCH  20  25
HETATM   25  O   UNK N   1      22.842  14.686   3.310  0.00  0.00    -0.355 OA
HETATM   26  C   UNK N   1      22.749  13.801   4.350  0.00  0.00     0.210 C 
ENDBRANCH  20  25
BRANCH  23  27
HETATM   27  C   UNK N   1      20.925  19.904   3.074  0.00  0.00     0.158 C 
HETATM   28  O   UNK N   1      20.455  20.692   3.872  0.00  0.00    -0.293 OA
HETATM   29  C   UNK N   1      20.728  20.171   1.613  0.00  0.00     0.097 C 
ENDBRANCH  23  27
BRANCH  24  30
HETATM   30  O   UNK N   1      23.353  19.295   4.262  0.00  0.00    -0.359 OA
HETATM   31  H   UNK N   1      23.702  19.351   5.131  0.00  0.00     0.217 HD
ENDBRANCH  24  30
ENDBRANCH  18  19
ENDBRANCH  14  16
ENDBRANCH  12  14
ENDBRANCH  10  12
ENDBRANCH   5  10
TORSDOF 8
ENDMDL
MODEL 9
REMARK VINA RESULT:      -6.5     14.721     18.086
REMARK  8 active torsions:
REMARK  status: ('A' for Active; 'I' for Inactive)
REMARK    1  A    between atoms: C_5  and  N_8 
REMARK    2  A    between atoms: N_8  and  C_9 
REMARK    3  A    between atoms: C_9  and  N_11 
REMARK    4  A    between atoms: C_12  and  N_11 
REMARK    5  A    between atoms: C_14  and  C_15 
REMARK    6  A    between atoms: C_16  and  O_25 
REMARK    7  A    between atoms: C_19  and  C_22 
REMARK    8  A    between atoms: C_20  and  O_21 
ROOT
HETATM    1  C   UNK N   1      27.962  27.235  -9.117  0.00  0.00     0.060 A 
HETATM    2  C   UNK N   1      28.608  28.160  -8.288  0.00  0.00     0.112 A 
HETATM    3  N   UNK N   1      28.128  28.388  -7.035  0.00  0.00    -0.351 N 
ATOM      4  HN  UNK N   1      28.604  29.052  -6.423  1.00  0.00     0.166 HD
HETATM    5  C   UNK N   1      27.024  27.740  -6.596  0.00  0.00     0.107 A 
HETATM    6  C   UNK N   1      26.466  26.740  -7.367  0.00  0.00     0.050 A 
HETATM    7  C   UNK N   1      26.924  26.484  -8.631  0.00  0.00     0.028 A 
HETATM    8  C   UNK N   1      28.207  27.183 -10.513  0.00  0.00     0.101 C 
HETATM    9  N   UNK N   1      28.367  27.104 -11.653  0.00  0.00    -0.191 NA
ENDROOT
BRANCH   5  10
HETATM   10  N   UNK N   1      26.375  28.174  -5.425  0.00  0.00    -0.319 N 
HETATM   11  H   UNK N   1      25.485  28.585  -5.516  0.00  0.00     0.169 HD
BRANCH  10  12
HETATM   12  C   UNK N   1      26.923  28.053  -4.119  0.00  0.00     0.173 C 
HETATM   13  S   UNK N   1      27.071  29.206  -3.236  0.00  0.00    -0.041 SA
BRANCH  12  14
HETATM   14  N   UNK N   1      27.354  26.756  -3.739  0.00  0.00    -0.362 N 
HETATM   15  H   UNK N   1      28.308  26.643  -3.521  0.00  0.00     0.162 HD
BRANCH  14  16
HETATM   16  C   UNK N   1      26.518  25.597  -3.644  0.00  0.00     0.093 A 
HETATM   17  C   UNK N   1      27.123  24.251  -3.263  0.00  0.00     0.037 A 
HETATM   18  C   UNK N   1      27.228  24.672  -4.677  0.00  0.00     0.049 A 
BRANCH  18  19
HETATM   19  C   UNK N   1      27.528  23.567  -5.675  0.00  0.00     0.015 C 
HETATM   20  C   UNK N   1      28.763  22.940  -5.908  0.00  0.00     0.077 C 
HETATM   21  C   UNK N   1      28.838  21.877  -6.829  0.00  0.00     0.038 C 
HETATM   22  C   UNK N   1      27.738  21.537  -7.627  0.00  0.00     0.021 C 
HETATM   23  C   UNK N   1      26.545  22.229  -7.465  0.00  0.00     0.043 C 
HETATM   24  C   UNK N   1      26.428  23.142  -6.428  0.00  0.00     0.089 C 
BRANCH  20  25
HETATM   25  O   UNK N   1      29.868  23.319  -5.252  0.00  0.00    -0.355 OA
HETATM   26  C   UNK N   1      30.340  22.575  -4.204  0.00  0.00     0.210 C 
ENDBRANCH  20  25
BRANCH  23  27
HETATM   27  C   UNK N   1      25.504  22.212  -8.522  0.00  0.00     0.158 C 
HETATM   28  O   UNK N   1      24.318  22.182  -8.253  0.00  0.00    -0.293 OA
HETATM   29  C   UNK N   1      25.930  21.809  -9.900  0.00  0.00     0.097 C 
ENDBRANCH  23  27
BRANCH  24  30
HETATM   30  O   UNK N   1      25.231  23.627  -6.154  0.00  0.00    -0.359 OA
HETATM   31  H   UNK N   1      24.988  23.955  -5.310  0.00  0.00     0.217 HD
ENDBRANCH  24  30
ENDBRANCH  18  19
ENDBRANCH  14  16
ENDBRANCH  12  14
ENDBRANCH  10  12
ENDBRANCH   5  10
TORSDOF 8
ENDMDL
