MODEL 1
REMARK VINA RESULT:      -7.5      0.000      0.000
REMARK  5 active torsions:
REMARK  status: ('A' for Active; 'I' for Inactive)
REMARK    1  A    between atoms: S_1  and  N_3 
REMARK    2  A    between atoms: S_1  and  C_12 
REMARK    3  A    between atoms: O_4  and  C_21 
REMARK    4  A    between atoms: O_4  and  C_22 
REMARK    5  A    between atoms: C_17  and  C_21 
ROOT
HETATM    1  S   UNK N   1      30.281  28.448  -4.042  0.00  0.00     0.244 S 
HETATM    2  O   UNK N   1      31.362  29.109  -4.917  0.00  0.00    -0.206 OA
HETATM    3  O   UNK N   1      29.259  28.599  -5.181  0.00  0.00    -0.206 OA
ENDROOT
BRANCH   1   4
HETATM    4  N   UNK N   1      29.365  29.737  -3.203  0.00  0.00    -0.200 NA
HETATM    5  C   UNK N   1      28.234  29.236  -2.419  0.00  0.00     0.099 C 
HETATM    6  C   UNK N   1      28.156  30.113  -1.194  0.00  0.00     0.024 C 
HETATM    7  C   UNK N   1      29.594  30.403  -0.884  0.00  0.00     0.017 C 
HETATM    8  C   UNK N   1      30.258  30.402  -2.245  0.00  0.00     0.108 C 
BRANCH   5   9
HETATM    9  C   UNK N   1      26.936  29.422  -3.180  0.00  0.00     0.196 C 
BRANCH   9  10
HETATM   10  O   UNK N   1      26.055  28.398  -2.929  0.00  0.00    -0.350 OA
BRANCH  10  11
HETATM   11  C   UNK N   1      25.952  27.323  -3.745  0.00  0.00     0.068 A 
HETATM   12  C   UNK N   1      25.260  27.450  -4.950  0.00  0.00     0.037 A 
HETATM   13  C   UNK N   1      25.130  26.355  -5.809  0.00  0.00     0.003 A 
HETATM   14  C   UNK N   1      25.690  25.123  -5.465  0.00  0.00     0.000 A 
HETATM   15  C   UNK N   1      26.385  24.986  -4.260  0.00  0.00     0.003 A 
HETATM   16  C   UNK N   1      26.517  26.081  -3.402  0.00  0.00     0.037 A 
ENDBRANCH  10  11
ENDBRANCH   9  10
ENDBRANCH   5   9
ENDBRANCH   1   4
BRANCH   1  17
HETATM   17  C   UNK N   1      30.136  26.669  -4.339  0.00  0.00     0.075 A 
HETATM   18  C   UNK N   1      30.438  25.707  -3.349  0.00  0.00     0.042 A 
HETATM   19  C   UNK N   1      30.304  24.352  -3.692  0.00  0.00     0.048 A 
HETATM   20  C   UNK N   1      30.520  23.113  -2.938  0.00  0.00     0.252 A 
HETATM   21  C   UNK N   1      29.895  23.963  -4.957  0.00  0.00     0.051 A 
HETATM   22  O   UNK N   1      30.893  22.995  -1.784  0.00  0.00    -0.281 OA
HETATM   23  C   UNK N   1      30.195  22.030  -3.865  0.00  0.00     0.299 A 
HETATM   24  N   UNK N   1      29.828  22.555  -5.052  0.00  0.00    -0.315 N 
HETATM   25  O   UNK N   1      30.239  20.833  -3.625  0.00  0.00    -0.264 OA
HETATM   26  C   UNK N   1      29.434  21.804  -6.218  0.00  0.00     0.160 C 
HETATM   27  C   UNK N   1      29.608  24.887  -5.949  0.00  0.00     0.032 A 
HETATM   28  C   UNK N   1      29.738  26.245  -5.633  0.00  0.00     0.027 A 
ENDBRANCH   1  17
TORSDOF 5
ENDMDL
MODEL 2
REMARK VINA RESULT:      -7.3      3.137      5.018
REMARK  5 active torsions:
REMARK  status: ('A' for Active; 'I' for Inactive)
REMARK    1  A    between atoms: S_1  and  N_3 
REMARK    2  A    between atoms: S_1  and  C_12 
REMARK    3  A    between atoms: O_4  and  C_21 
REMARK    4  A    between atoms: O_4  and  C_22 
REMARK    5  A    between atoms: C_17  and  C_21 
ROOT
HETATM    1  S   UNK N   1      27.543  24.492  -4.174  0.00  0.00     0.244 S 
HETATM    2  O   UNK N   1      26.585  24.290  -2.986  0.00  0.00    -0.206 OA
HETATM    3  O   UNK N   1      28.353  25.511  -3.355  0.00  0.00    -0.206 OA
ENDROOT
BRANCH   1   4
HETATM    4  N   UNK N   1      26.971  25.890  -5.133  0.00  0.00    -0.200 NA
HETATM    5  C   UNK N   1      25.644  25.693  -5.721  0.00  0.00     0.099 C 
HETATM    6  C   UNK N   1      24.965  27.040  -5.677  0.00  0.00     0.024 C 
HETATM    7  C   UNK N   1      25.460  27.635  -4.393  0.00  0.00     0.017 C 
HETATM    8  C   UNK N   1      26.850  27.054  -4.245  0.00  0.00     0.108 C 
BRANCH   5   9
HETATM    9  C   UNK N   1      25.762  25.304  -7.182  0.00  0.00     0.196 C 
BRANCH   9  10
HETATM   10  O   UNK N   1      25.092  24.135  -7.447  0.00  0.00    -0.350 OA
BRANCH  10  11
HETATM   11  C   UNK N   1      25.744  22.985  -7.741  0.00  0.00     0.068 A 
HETATM   12  C   UNK N   1      27.123  23.021  -7.948  0.00  0.00     0.037 A 
HETATM   13  C   UNK N   1      27.822  21.853  -8.262  0.00  0.00     0.003 A 
HETATM   14  C   UNK N   1      27.143  20.639  -8.375  0.00  0.00     0.000 A 
HETATM   15  C   UNK N   1      25.761  20.591  -8.170  0.00  0.00     0.003 A 
HETATM   16  C   UNK N   1      25.063  21.759  -7.853  0.00  0.00     0.037 A 
ENDBRANCH  10  11
ENDBRANCH   9  10
ENDBRANCH   5   9
ENDBRANCH   1   4
BRANCH   1  17
HETATM   17  C   UNK N   1      29.017  23.448  -4.065  0.00  0.00     0.075 A 
HETATM   18  C   UNK N   1      29.333  22.476  -5.042  0.00  0.00     0.042 A 
HETATM   19  C   UNK N   1      30.494  21.711  -4.850  0.00  0.00     0.048 A 
HETATM   20  C   UNK N   1      31.120  20.645  -5.639  0.00  0.00     0.252 A 
HETATM   21  C   UNK N   1      31.306  21.891  -3.741  0.00  0.00     0.051 A 
HETATM   22  O   UNK N   1      30.731  20.166  -6.690  0.00  0.00    -0.281 OA
HETATM   23  C   UNK N   1      32.322  20.265  -4.898  0.00  0.00     0.299 A 
HETATM   24  N   UNK N   1      32.412  21.014  -3.781  0.00  0.00    -0.315 N 
HETATM   25  O   UNK N   1      33.132  19.410  -5.222  0.00  0.00    -0.264 OA
HETATM   26  C   UNK N   1      33.462  20.932  -2.796  0.00  0.00     0.160 C 
HETATM   27  C   UNK N   1      31.008  22.826  -2.763  0.00  0.00     0.032 A 
HETATM   28  C   UNK N   1      29.853  23.600  -2.928  0.00  0.00     0.027 A 
ENDBRANCH   1  17
TORSDOF 5
ENDMDL
MODEL 3
REMARK VINA RESULT:      -7.3      3.099      5.278
REMARK  5 active torsions:
REMARK  status: ('A' for Active; 'I' for Inactive)
REMARK    1  A    between atoms: S_1  and  N_3 
REMARK    2  A    between atoms: S_1  and  C_12 
REMARK    3  A    between atoms: O_4  and  C_21 
REMARK    4  A    between atoms: O_4  and  C_22 
REMARK    5  A    between atoms: C_17  and  C_21 
ROOT
HETATM    1  S   UNK N   1      27.348  23.321  -6.725  0.00  0.00     0.244 S 
HETATM    2  O   UNK N   1      26.162  22.344  -6.828  0.00  0.00    -0.206 OA
HETATM    3  O   UNK N   1      26.904  23.719  -5.307  0.00  0.00    -0.206 OA
ENDROOT
BRANCH   1   4
HETATM    4  N   UNK N   1      26.791  24.945  -7.232  0.00  0.00    -0.200 NA
HETATM    5  C   UNK N   1      27.797  25.702  -7.980  0.00  0.00     0.099 C 
HETATM    6  C   UNK N   1      27.037  26.490  -9.018  0.00  0.00     0.024 C 
HETATM    7  C   UNK N   1      25.924  25.566  -9.408  0.00  0.00     0.017 C 
HETATM    8  C   UNK N   1      25.646  24.789  -8.138  0.00  0.00     0.108 C 
BRANCH   5   9
HETATM    9  C   UNK N   1      28.487  26.706  -7.077  0.00  0.00     0.196 C 
BRANCH   9  10
HETATM   10  O   UNK N   1      27.884  27.939  -7.144  0.00  0.00    -0.350 OA
BRANCH  10  11
HETATM   11  C   UNK N   1      27.412  28.567  -6.041  0.00  0.00     0.068 A 
HETATM   12  C   UNK N   1      26.406  27.956  -5.292  0.00  0.00     0.037 A 
HETATM   13  C   UNK N   1      25.891  28.583  -4.154  0.00  0.00     0.003 A 
HETATM   14  C   UNK N   1      26.380  29.831  -3.761  0.00  0.00     0.000 A 
HETATM   15  C   UNK N   1      27.387  30.451  -4.504  0.00  0.00     0.003 A 
HETATM   16  C   UNK N   1      27.903  29.823  -5.641  0.00  0.00     0.037 A 
ENDBRANCH  10  11
ENDBRANCH   9  10
ENDBRANCH   5   9
ENDBRANCH   1   4
BRANCH   1  17
HETATM   17  C   UNK N   1      28.787  22.585  -5.913  0.00  0.00     0.075 A 
HETATM   18  C   UNK N   1      29.183  22.937  -4.602  0.00  0.00     0.042 A 
HETATM   19  C   UNK N   1      30.325  22.314  -4.074  0.00  0.00     0.048 A 
HETATM   20  C   UNK N   1      31.007  22.427  -2.781  0.00  0.00     0.252 A 
HETATM   21  C   UNK N   1      31.049  21.389  -4.808  0.00  0.00     0.051 A 
HETATM   22  O   UNK N   1      30.708  23.138  -1.838  0.00  0.00    -0.281 OA
HETATM   23  C   UNK N   1      32.137  21.502  -2.854  0.00  0.00     0.299 A 
HETATM   24  N   UNK N   1      32.143  20.899  -4.060  0.00  0.00    -0.315 N 
HETATM   25  O   UNK N   1      32.957  21.290  -1.974  0.00  0.00    -0.264 OA
HETATM   26  C   UNK N   1      33.102  19.920  -4.506  0.00  0.00     0.160 C 
HETATM   27  C   UNK N   1      30.690  21.039  -6.100  0.00  0.00     0.032 A 
HETATM   28  C   UNK N   1      29.557  21.649  -6.651  0.00  0.00     0.027 A 
ENDBRANCH   1  17
TORSDOF 5
ENDMDL
MODEL 4
REMARK VINA RESULT:      -7.2      3.051      4.740
REMARK  5 active torsions:
REMARK  status: ('A' for Active; 'I' for Inactive)
REMARK    1  A    between atoms: S_1  and  N_3 
REMARK    2  A    between atoms: S_1  and  C_12 
REMARK    3  A    between atoms: O_4  and  C_21 
REMARK    4  A    between atoms: O_4  and  C_22 
REMARK    5  A    between atoms: C_17  and  C_21 
ROOT
HETATM    1  S   UNK N   1      27.613  24.416  -4.421  0.00  0.00     0.244 S 
HETATM    2  O   UNK N   1      26.900  24.208  -3.072  0.00  0.00    -0.206 OA
HETATM    3  O   UNK N   1      28.667  25.300  -3.734  0.00  0.00    -0.206 OA
ENDROOT
BRANCH   1   4
HETATM    4  N   UNK N   1      26.996  25.924  -5.162  0.00  0.00    -0.200 NA
HETATM    5  C   UNK N   1      25.648  25.794  -5.719  0.00  0.00     0.099 C 
HETATM    6  C   UNK N   1      24.966  27.117  -5.469  0.00  0.00     0.024 C 
HETATM    7  C   UNK N   1      25.509  27.540  -4.138  0.00  0.00     0.017 C 
HETATM    8  C   UNK N   1      26.907  26.958  -4.123  0.00  0.00     0.108 C 
BRANCH   5   9
HETATM    9  C   UNK N   1      25.708  25.603  -7.222  0.00  0.00     0.196 C 
BRANCH   9  10
HETATM   10  O   UNK N   1      25.186  24.389  -7.596  0.00  0.00    -0.350 OA
BRANCH  10  11
HETATM   11  C   UNK N   1      25.964  23.394  -8.083  0.00  0.00     0.068 A 
HETATM   12  C   UNK N   1      25.710  22.080  -7.689  0.00  0.00     0.037 A 
HETATM   13  C   UNK N   1      26.500  21.032  -8.168  0.00  0.00     0.003 A 
HETATM   14  C   UNK N   1      27.556  21.295  -9.044  0.00  0.00     0.000 A 
HETATM   15  C   UNK N   1      27.818  22.607  -9.445  0.00  0.00     0.003 A 
HETATM   16  C   UNK N   1      27.026  23.654  -8.968  0.00  0.00     0.037 A 
ENDBRANCH  10  11
ENDBRANCH   9  10
ENDBRANCH   5   9
ENDBRANCH   1   4
BRANCH   1  17
HETATM   17  C   UNK N   1      28.970  23.247  -4.678  0.00  0.00     0.075 A 
HETATM   18  C   UNK N   1      29.895  22.921  -3.660  0.00  0.00     0.042 A 
HETATM   19  C   UNK N   1      30.918  22.012  -3.974  0.00  0.00     0.048 A 
HETATM   20  C   UNK N   1      32.022  21.453  -3.187  0.00  0.00     0.252 A 
HETATM   21  C   UNK N   1      31.028  21.453  -5.237  0.00  0.00     0.051 A 
HETATM   22  O   UNK N   1      32.303  21.684  -2.024  0.00  0.00    -0.281 OA
HETATM   23  C   UNK N   1      32.730  20.551  -4.094  0.00  0.00     0.299 A 
HETATM   24  N   UNK N   1      32.126  20.567  -5.300  0.00  0.00    -0.315 N 
HETATM   25  O   UNK N   1      33.714  19.879  -3.825  0.00  0.00    -0.264 OA
HETATM   26  C   UNK N   1      32.533  19.806  -6.454  0.00  0.00     0.160 C 
HETATM   27  C   UNK N   1      30.142  21.769  -6.255  0.00  0.00     0.032 A 
HETATM   28  C   UNK N   1      29.115  22.676  -5.969  0.00  0.00     0.027 A 
ENDBRANCH   1  17
TORSDOF 5
ENDMDL
MODEL 5
REMARK VINA RESULT:      -7.2     15.277     17.776
REMARK  5 active torsions:
REMARK  status: ('A' for Active; 'I' for Inactive)
REMARK    1  A    between atoms: S_1  and  N_3 
REMARK    2  A    between atoms: S_1  and  C_12 
REMARK    3  A    between atoms: O_4  and  C_21 
REMARK    4  A    between atoms: O_4  and  C_22 
REMARK    5  A    between atoms: C_17  and  C_21 
ROOT
HETATM    1  S   UNK N   1      21.015  14.186   8.473  0.00  0.00     0.244 S 
HETATM    2  O   UNK N   1      19.742  14.148   9.338  0.00  0.00    -0.206 OA
HETATM    3  O   UNK N   1      20.398  13.160   7.508  0.00  0.00    -0.206 OA
ENDROOT
BRANCH   1   4
HETATM    4  N   UNK N   1      22.100  12.864   9.002  0.00  0.00    -0.200 NA
HETATM    5  C   UNK N   1      23.449  13.317   9.350  0.00  0.00     0.099 C 
HETATM    6  C   UNK N   1      23.891  12.456  10.508  0.00  0.00     0.024 C 
HETATM    7  C   UNK N   1      22.628  12.247  11.286  0.00  0.00     0.017 C 
HETATM    8  C   UNK N   1      21.549  12.262  10.223  0.00  0.00     0.108 C 
BRANCH   5   9
HETATM    9  C   UNK N   1      24.410  13.051   8.207  0.00  0.00     0.196 C 
BRANCH   9  10
HETATM   10  O   UNK N   1      24.807  14.219   7.603  0.00  0.00    -0.350 OA
BRANCH  10  11
HETATM   11  C   UNK N   1      24.437  14.534   6.339  0.00  0.00     0.068 A 
HETATM   12  C   UNK N   1      23.867  13.548   5.534  0.00  0.00     0.037 A 
HETATM   13  C   UNK N   1      23.484  13.841   4.222  0.00  0.00     0.003 A 
HETATM   14  C   UNK N   1      23.672  15.125   3.707  0.00  0.00     0.000 A 
HETATM   15  C   UNK N   1      24.242  16.120   4.506  0.00  0.00     0.003 A 
HETATM   16  C   UNK N   1      24.623  15.828   5.817  0.00  0.00     0.037 A 
ENDBRANCH  10  11
ENDBRANCH   9  10
ENDBRANCH   5   9
ENDBRANCH   1   4
BRANCH   1  17
HETATM   17  C   UNK N   1      20.885  15.349   7.094  0.00  0.00     0.075 A 
HETATM   18  C   UNK N   1      20.416  14.963   5.817  0.00  0.00     0.042 A 
HETATM   19  C   UNK N   1      20.369  15.945   4.814  0.00  0.00     0.048 A 
HETATM   20  C   UNK N   1      19.944  15.909   3.411  0.00  0.00     0.252 A 
HETATM   21  C   UNK N   1      20.773  17.248   5.057  0.00  0.00     0.051 A 
HETATM   22  O   UNK N   1      19.524  14.953   2.782  0.00  0.00    -0.281 OA
HETATM   23  C   UNK N   1      20.133  17.269   2.911  0.00  0.00     0.299 A 
HETATM   24  N   UNK N   1      20.623  18.044   3.900  0.00  0.00    -0.315 N 
HETATM   25  O   UNK N   1      19.890  17.666   1.781  0.00  0.00    -0.264 OA
HETATM   26  C   UNK N   1      20.938  19.447   3.792  0.00  0.00     0.160 C 
HETATM   27  C   UNK N   1      21.251  17.646   6.295  0.00  0.00     0.032 A 
HETATM   28  C   UNK N   1      21.311  16.685   7.312  0.00  0.00     0.027 A 
ENDBRANCH   1  17
TORSDOF 5
ENDMDL
MODEL 6
REMARK VINA RESULT:      -7.2     13.904     16.577
REMARK  5 active torsions:
REMARK  status: ('A' for Active; 'I' for Inactive)
REMARK    1  A    between atoms: S_1  and  N_3 
REMARK    2  A    between atoms: S_1  and  C_12 
REMARK    3  A    between atoms: O_4  and  C_21 
REMARK    4  A    between atoms: O_4  and  C_22 
REMARK    5  A    between atoms: C_17  and  C_21 
ROOT
HETATM    1  S   UNK N   1      33.749  16.743   7.188  0.00  0.00     0.244 S 
HETATM    2  O   UNK N   1      34.464  18.066   6.859  0.00  0.00    -0.206 OA
HETATM    3  O   UNK N   1      34.874  15.955   6.498  0.00  0.00    -0.206 OA
ENDROOT
BRANCH   1   4
HETATM    4  N   UNK N   1      32.727  16.287   5.790  0.00  0.00    -0.200 NA
HETATM    5  C   UNK N   1      31.739  17.306   5.430  0.00  0.00     0.099 C 
HETATM    6  C   UNK N   1      31.633  17.267   3.925  0.00  0.00     0.024 C 
HETATM    7  C   UNK N   1      33.035  16.971   3.486  0.00  0.00     0.017 C 
HETATM    8  C   UNK N   1      33.588  16.123   4.612  0.00  0.00     0.108 C 
BRANCH   5   9
HETATM    9  C   UNK N   1      30.374  16.943   5.981  0.00  0.00     0.196 C 
BRANCH   9  10
HETATM   10  O   UNK N   1      29.367  17.382   5.158  0.00  0.00    -0.350 OA
BRANCH  10  11
HETATM   11  C   UNK N   1      28.597  18.450   5.473  0.00  0.00     0.068 A 
HETATM   12  C   UNK N   1      28.061  19.227   4.445  0.00  0.00     0.037 A 
HETATM   13  C   UNK N   1      27.271  20.341   4.739  0.00  0.00     0.003 A 
HETATM   14  C   UNK N   1      27.014  20.688   6.067  0.00  0.00     0.000 A 
HETATM   15  C   UNK N   1      27.546  19.916   7.103  0.00  0.00     0.003 A 
HETATM   16  C   UNK N   1      28.334  18.801   6.810  0.00  0.00     0.037 A 
ENDBRANCH  10  11
ENDBRANCH   9  10
ENDBRANCH   5   9
ENDBRANCH   1   4
BRANCH   1  17
HETATM   17  C   UNK N   1      34.352  15.987   8.717  0.00  0.00     0.075 A 
HETATM   18  C   UNK N   1      34.296  14.593   8.949  0.00  0.00     0.042 A 
HETATM   19  C   UNK N   1      34.780  14.115  10.177  0.00  0.00     0.048 A 
HETATM   20  C   UNK N   1      34.882  12.767  10.745  0.00  0.00     0.252 A 
HETATM   21  C   UNK N   1      35.291  14.973  11.138  0.00  0.00     0.051 A 
HETATM   22  O   UNK N   1      34.538  11.714  10.237  0.00  0.00    -0.281 OA
HETATM   23  C   UNK N   1      35.487  12.944  12.064  0.00  0.00     0.299 A 
HETATM   24  N   UNK N   1      35.720  14.255  12.276  0.00  0.00    -0.315 N 
HETATM   25  O   UNK N   1      35.750  12.059  12.865  0.00  0.00    -0.264 OA
HETATM   26  C   UNK N   1      36.309  14.824  13.462  0.00  0.00     0.160 C 
HETATM   27  C   UNK N   1      35.342  16.344  10.940  0.00  0.00     0.032 A 
HETATM   28  C   UNK N   1      34.862  16.847   9.724  0.00  0.00     0.027 A 
ENDBRANCH   1  17
TORSDOF 5
ENDMDL
MODEL 7
REMARK VINA RESULT:      -7.1      1.635      2.086
REMARK  5 active torsions:
REMARK  status: ('A' for Active; 'I' for Inactive)
REMARK    1  A    between atoms: S_1  and  N_3 
REMARK    2  A    between atoms: S_1  and  C_12 
REMARK    3  A    between atoms: O_4  and  C_21 
REMARK    4  A    between atoms: O_4  and  C_22 
REMARK    5  A    between atoms: C_17  and  C_21 
ROOT
HETATM    1  S   UNK N   1      29.084  27.723  -4.874  0.00  0.00     0.244 S 
HETATM    2  O   UNK N   1      30.355  28.586  -4.963  0.00  0.00    -0.206 OA
HETATM    3  O   UNK N   1      29.033  27.630  -6.408  0.00  0.00    -0.206 OA
ENDROOT
BRANCH   1   4
HETATM    4  N   UNK N   1      27.658  28.797  -5.005  0.00  0.00    -0.200 NA
HETATM    5  C   UNK N   1      26.828  28.820  -3.799  0.00  0.00     0.099 C 
HETATM    6  C   UNK N   1      26.318  30.234  -3.671  0.00  0.00     0.024 C 
HETATM    7  C   UNK N   1      27.467  31.062  -4.164  0.00  0.00     0.017 C 
HETATM    8  C   UNK N   1      28.124  30.176  -5.201  0.00  0.00     0.108 C 
BRANCH   5   9
HETATM    9  C   UNK N   1      25.616  27.925  -3.970  0.00  0.00     0.196 C 
BRANCH   9  10
HETATM   10  O   UNK N   1      25.426  27.583  -5.286  0.00  0.00    -0.350 OA
BRANCH  10  11
HETATM   11  C   UNK N   1      25.607  26.317  -5.731  0.00  0.00     0.068 A 
HETATM   12  C   UNK N   1      25.724  25.282  -4.803  0.00  0.00     0.037 A 
HETATM   13  C   UNK N   1      25.921  23.966  -5.232  0.00  0.00     0.003 A 
HETATM   14  C   UNK N   1      26.006  23.679  -6.596  0.00  0.00     0.000 A 
HETATM   15  C   UNK N   1      25.890  24.708  -7.533  0.00  0.00     0.003 A 
HETATM   16  C   UNK N   1      25.691  26.023  -7.105  0.00  0.00     0.037 A 
ENDBRANCH  10  11
ENDBRANCH   9  10
ENDBRANCH   5   9
ENDBRANCH   1   4
BRANCH   1  17
HETATM   17  C   UNK N   1      29.441  25.950  -4.921  0.00  0.00     0.075 A 
HETATM   18  C   UNK N   1      29.859  25.229  -3.779  0.00  0.00     0.042 A 
HETATM   19  C   UNK N   1      30.124  23.858  -3.932  0.00  0.00     0.048 A 
HETATM   20  C   UNK N   1      30.559  22.822  -2.990  0.00  0.00     0.252 A 
HETATM   21  C   UNK N   1      29.987  23.227  -5.158  0.00  0.00     0.051 A 
HETATM   22  O   UNK N   1      30.806  22.946  -1.803  0.00  0.00    -0.281 OA
HETATM   23  C   UNK N   1      30.641  21.591  -3.775  0.00  0.00     0.299 A 
HETATM   24  N   UNK N   1      30.300  21.853  -5.053  0.00  0.00    -0.315 N 
HETATM   25  O   UNK N   1      30.964  20.488  -3.361  0.00  0.00    -0.264 OA
HETATM   26  C   UNK N   1      30.258  20.893  -6.127  0.00  0.00     0.160 C 
HETATM   27  C   UNK N   1      29.594  23.916  -6.294  0.00  0.00     0.032 A 
HETATM   28  C   UNK N   1      29.328  25.285  -6.169  0.00  0.00     0.027 A 
ENDBRANCH   1  17
TORSDOF 5
ENDMDL
MODEL 8
REMARK VINA RESULT:      -7.1     19.438     22.816
REMARK  5 active torsions:
REMARK  status: ('A' for Active; 'I' for Inactive)
REMARK    1  A    between atoms: S_1  and  N_3 
REMARK    2  A    between atoms: S_1  and  C_12 
REMARK    3  A    between atoms: O_4  and  C_21 
REMARK    4  A    between atoms: O_4  and  C_22 
REMARK    5  A    between atoms: C_17  and  C_21 
ROOT
HETATM    1  S   UNK N   1      36.002  13.323  12.789  0.00  0.00     0.244 S 
HETATM    2  O   UNK N   1      36.586  14.091  13.988  0.00  0.00    -0.206 OA
HETATM    3  O   UNK N   1      34.595  13.424  13.401  0.00  0.00    -0.206 OA
ENDROOT
BRANCH   1   4
HETATM    4  N   UNK N   1      35.934  11.583  13.208  0.00  0.00    -0.200 NA
HETATM    5  C   UNK N   1      34.573  11.084  13.418  0.00  0.00     0.099 C 
HETATM    6  C   UNK N   1      34.561   9.673  12.883  0.00  0.00     0.024 C 
HETATM    7  C   UNK N   1      35.475   9.745  11.697  0.00  0.00     0.017 C 
HETATM    8  C   UNK N   1      36.481  10.807  12.088  0.00  0.00     0.108 C 
BRANCH   5   9
HETATM    9  C   UNK N   1      34.260  11.000  14.899  0.00  0.00     0.196 C 
BRANCH   9  10
HETATM   10  O   UNK N   1      35.393  11.151  15.662  0.00  0.00    -0.350 OA
BRANCH  10  11
HETATM   11  C   UNK N   1      35.349  11.652  16.918  0.00  0.00     0.068 A 
HETATM   12  C   UNK N   1      35.187  13.027  17.095  0.00  0.00     0.037 A 
HETATM   13  C   UNK N   1      35.147  13.575  18.380  0.00  0.00     0.003 A 
HETATM   14  C   UNK N   1      35.274  12.749  19.498  0.00  0.00     0.000 A 
HETATM   15  C   UNK N   1      35.437  11.372  19.332  0.00  0.00     0.003 A 
HETATM   16  C   UNK N   1      35.474  10.823  18.048  0.00  0.00     0.037 A 
ENDBRANCH  10  11
ENDBRANCH   9  10
ENDBRANCH   5   9
ENDBRANCH   1   4
BRANCH   1  17
HETATM   17  C   UNK N   1      35.365  14.422  11.501  0.00  0.00     0.075 A 
HETATM   18  C   UNK N   1      34.392  14.009  10.562  0.00  0.00     0.042 A 
HETATM   19  C   UNK N   1      33.980  14.940   9.596  0.00  0.00     0.048 A 
HETATM   20  C   UNK N   1      33.011  14.865   8.497  0.00  0.00     0.252 A 
HETATM   21  C   UNK N   1      34.506  16.220   9.553  0.00  0.00     0.051 A 
HETATM   22  O   UNK N   1      32.325  13.912   8.170  0.00  0.00    -0.281 OA
HETATM   23  C   UNK N   1      33.037  16.182   7.863  0.00  0.00     0.299 A 
HETATM   24  N   UNK N   1      33.927  16.967   8.502  0.00  0.00    -0.315 N 
HETATM   25  O   UNK N   1      32.366  16.538   6.906  0.00  0.00    -0.264 OA
HETATM   26  C   UNK N   1      34.232  18.336   8.170  0.00  0.00     0.160 C 
HETATM   27  C   UNK N   1      35.472  16.644  10.452  0.00  0.00     0.032 A 
HETATM   28  C   UNK N   1      35.904  15.732  11.424  0.00  0.00     0.027 A 
ENDBRANCH   1  17
TORSDOF 5
ENDMDL
MODEL 9
REMARK VINA RESULT:      -7.1     16.807     19.515
REMARK  5 active torsions:
REMARK  status: ('A' for Active; 'I' for Inactive)
REMARK    1  A    between atoms: S_1  and  N_3 
REMARK    2  A    between atoms: S_1  and  C_12 
REMARK    3  A    between atoms: O_4  and  C_21 
REMARK    4  A    between atoms: O_4  and  C_22 
REMARK    5  A    between atoms: C_17  and  C_21 
ROOT
HETATM    1  S   UNK N   1      35.044  15.843  10.199  0.00  0.00     0.244 S 
HETATM    2  O   UNK N   1      35.675  17.228  10.435  0.00  0.00    -0.206 OA
HETATM    3  O   UNK N   1      36.238  15.443   9.316  0.00  0.00    -0.206 OA
ENDROOT
BRANCH   1   4
HETATM    4  N   UNK N   1      34.091  15.905   8.685  0.00  0.00    -0.200 NA
HETATM    5  C   UNK N   1      34.391  17.070   7.851  0.00  0.00     0.099 C 
HETATM    6  C   UNK N   1      34.291  16.595   6.422  0.00  0.00     0.024 C 
HETATM    7  C   UNK N   1      34.817  15.193   6.485  0.00  0.00     0.017 C 
HETATM    8  C   UNK N   1      34.423  14.728   7.871  0.00  0.00     0.108 C 
BRANCH   5   9
HETATM    9  C   UNK N   1      33.337  18.144   8.037  0.00  0.00     0.196 C 
BRANCH   9  10
HETATM   10  O   UNK N   1      32.309  17.706   8.834  0.00  0.00    -0.350 OA
BRANCH  10  11
HETATM   11  C   UNK N   1      31.014  17.796   8.449  0.00  0.00     0.068 A 
HETATM   12  C   UNK N   1      30.109  18.474   9.266  0.00  0.00     0.037 A 
HETATM   13  C   UNK N   1      28.764  18.576   8.900  0.00  0.00     0.003 A 
HETATM   14  C   UNK N   1      28.315  17.995   7.712  0.00  0.00     0.000 A 
HETATM   15  C   UNK N   1      29.214  17.314   6.886  0.00  0.00     0.003 A 
HETATM   16  C   UNK N   1      30.559  17.214   7.252  0.00  0.00     0.037 A 
ENDBRANCH  10  11
ENDBRANCH   9  10
ENDBRANCH   5   9
ENDBRANCH   1   4
BRANCH   1  17
HETATM   17  C   UNK N   1      35.661  14.592  11.351  0.00  0.00     0.075 A 
HETATM   18  C   UNK N   1      35.053  14.347  12.604  0.00  0.00     0.042 A 
HETATM   19  C   UNK N   1      35.624  13.362  13.426  0.00  0.00     0.048 A 
HETATM   20  C   UNK N   1      35.267  12.850  14.753  0.00  0.00     0.252 A 
HETATM   21  C   UNK N   1      36.747  12.653  13.033  0.00  0.00     0.051 A 
HETATM   22  O   UNK N   1      34.345  13.204  15.467  0.00  0.00    -0.281 OA
HETATM   23  C   UNK N   1      36.256  11.817  15.051  0.00  0.00     0.299 A 
HETATM   24  N   UNK N   1      37.121  11.716  14.022  0.00  0.00    -0.315 N 
HETATM   25  O   UNK N   1      36.310  11.137  16.065  0.00  0.00    -0.264 OA
HETATM   26  C   UNK N   1      38.236  10.806  13.945  0.00  0.00     0.160 C 
HETATM   27  C   UNK N   1      37.369  12.885  11.816  0.00  0.00     0.032 A 
HETATM   28  C   UNK N   1      36.822  13.866  10.980  0.00  0.00     0.027 A 
ENDBRANCH   1  17
TORSDOF 5
ENDMDL
