REMARK  5 active torsions:
REMARK  status: ('A' for Active; 'I' for Inactive)
REMARK    1  A    between atoms: S_1  and  N_3 
REMARK    2  A    between atoms: S_1  and  C_12 
REMARK    3  A    between atoms: O_4  and  C_21 
REMARK    4  A    between atoms: O_4  and  C_22 
REMARK    5  A    between atoms: C_17  and  C_21 
ROOT
HETATM    1  S   UNK N   1       1.878  -1.265   0.135  0.00  0.00     0.244 S 
HETATM    2  O   UNK N   1       2.857  -2.268   0.772  0.00  0.00    -0.206 OA
HETATM    3  O   UNK N   1       2.054  -1.951  -1.230  0.00  0.00    -0.206 OA
ENDROOT
BRANCH   1   4
HETATM    4  N   UNK N   1       2.823   0.091  -0.553  0.00  0.00    -0.200 NA
HETATM    5  C   UNK N   1       2.647   1.353   0.169  0.00  0.00     0.099 C 
HETATM    6  C   UNK N   1       3.988   2.044   0.131  0.00  0.00     0.024 C 
HETATM    7  C   UNK N   1       4.964   0.911   0.232  0.00  0.00     0.017 C 
HETATM    8  C   UNK N   1       4.252  -0.234  -0.457  0.00  0.00     0.108 C 
BRANCH   5   9
HETATM    9  C   UNK N   1       1.665   2.250  -0.559  0.00  0.00     0.196 C 
BRANCH   9  10
HETATM   10  O   UNK N   1       0.371   1.823  -0.387  0.00  0.00    -0.350 OA
BRANCH  10  11
HETATM   11  C   UNK N   1      -0.648   2.689  -0.177  0.00  0.00     0.068 A 
HETATM   12  C   UNK N   1      -1.934   2.187   0.025  0.00  0.00     0.037 A 
HETATM   13  C   UNK N   1      -3.008   3.056   0.235  0.00  0.00     0.003 A 
HETATM   14  C   UNK N   1      -2.801   4.437   0.241  0.00  0.00     0.000 A 
HETATM   15  C   UNK N   1      -1.517   4.950   0.040  0.00  0.00     0.003 A 
HETATM   16  C   UNK N   1      -0.443   4.081  -0.168  0.00  0.00     0.037 A 
ENDBRANCH  10  11
ENDBRANCH   9  10
ENDBRANCH   5   9
ENDBRANCH   1   4
BRANCH   1  17
HETATM   17  C   UNK N   1       0.182  -1.892   0.071  0.00  0.00     0.075 A 
HETATM   18  C   UNK N   1      -0.945  -1.039   0.108  0.00  0.00     0.042 A 
HETATM   19  C   UNK N   1      -2.216  -1.634   0.067  0.00  0.00     0.048 A 
HETATM   20  C   UNK N   1      -3.572  -1.076   0.081  0.00  0.00     0.252 A 
HETATM   21  C   UNK N   1      -2.370  -3.009  -0.002  0.00  0.00     0.051 A 
HETATM   22  O   UNK N   1      -3.897   0.097   0.144  0.00  0.00    -0.281 OA
HETATM   23  C   UNK N   1      -4.469  -2.228   0.006  0.00  0.00     0.299 A 
HETATM   24  N   UNK N   1      -3.738  -3.360  -0.042  0.00  0.00    -0.315 N 
HETATM   25  O   UNK N   1      -5.690  -2.195  -0.013  0.00  0.00    -0.264 OA
HETATM   26  C   UNK N   1      -4.265  -4.699  -0.123  0.00  0.00     0.160 C 
HETATM   27  C   UNK N   1      -1.281  -3.866  -0.024  0.00  0.00     0.032 A 
HETATM   28  C   UNK N   1      -0.002  -3.298   0.020  0.00  0.00     0.027 A 
ENDBRANCH   1  17
TORSDOF 5
