MODEL 1
REMARK VINA RESULT:      -5.1      0.000      0.000
REMARK  2 active torsions:
REMARK  status: ('A' for Active; 'I' for Inactive)
REMARK    1  A    between atoms: C_3  and  O_4 
REMARK    2  A    between atoms: C_7  and  N_8 
ROOT
HETATM    1  C   UNK N   1      35.700  11.475  17.031  0.00  0.00     0.033 A 
HETATM    2  C   UNK N   1      35.487  11.007  18.331  0.00  0.00     0.039 A 
HETATM    3  C   UNK N   1      35.193  11.908  19.360  0.00  0.00     0.065 A 
HETATM    4  C   UNK N   1      35.113  13.275  19.091  0.00  0.00     0.039 A 
HETATM    5  C   UNK N   1      35.325  13.745  17.793  0.00  0.00     0.033 A 
HETATM    6  C   UNK N   1      35.620  12.849  16.754  0.00  0.00     0.039 A 
ENDROOT
BRANCH   6   7
HETATM    7  N   UNK N   1      35.837  13.343  15.424  0.00  0.00    -0.317 N 
HETATM    8  C   UNK N   1      35.143  12.997  14.327  0.00  0.00     0.115 A 
HETATM    9  C   UNK N   1      35.669  13.697  13.261  0.00  0.00     0.106 A 
HETATM   10  N   UNK N   1      36.682  14.468  13.711  0.00  0.00    -0.360 N 
HETATM   11  C   UNK N   1      36.766  14.235  15.036  0.00  0.00     0.188 A 
ATOM     12  HN  UNK N   1      37.265  15.099  13.160  1.00  0.00     0.166 HD
ENDBRANCH   6   7
BRANCH   3  13
HETATM   13  O   UNK N   1      34.989  11.460  20.608  0.00  0.00    -0.361 OA
HETATM   14  H   UNK N   1      34.201  10.998  20.816  0.00  0.00     0.217 HD
ENDBRANCH   3  13
TORSDOF 2
ENDMDL
MODEL 2
REMARK VINA RESULT:      -4.9      1.181      1.546
REMARK  2 active torsions:
REMARK  status: ('A' for Active; 'I' for Inactive)
REMARK    1  A    between atoms: C_3  and  O_4 
REMARK    2  A    between atoms: C_7  and  N_8 
ROOT
HETATM    1  C   UNK N   1      35.315  11.108  17.021  0.00  0.00     0.033 A 
HETATM    2  C   UNK N   1      35.414  10.995  18.411  0.00  0.00     0.039 A 
HETATM    3  C   UNK N   1      35.344  12.140  19.212  0.00  0.00     0.065 A 
HETATM    4  C   UNK N   1      35.176  13.395  18.626  0.00  0.00     0.039 A 
HETATM    5  C   UNK N   1      35.076  13.509  17.238  0.00  0.00     0.033 A 
HETATM    6  C   UNK N   1      35.145  12.368  16.425  0.00  0.00     0.039 A 
ENDROOT
BRANCH   6   7
HETATM    7  N   UNK N   1      35.041  12.497  15.000  0.00  0.00    -0.317 N 
HETATM    8  C   UNK N   1      35.610  13.452  14.247  0.00  0.00     0.115 A 
HETATM    9  C   UNK N   1      35.263  13.213  12.934  0.00  0.00     0.106 A 
HETATM   10  N   UNK N   1      34.483  12.112  12.889  0.00  0.00    -0.360 N 
HETATM   11  C   UNK N   1      34.362  11.692  14.163  0.00  0.00     0.188 A 
ATOM     12  HN  UNK N   1      34.070  11.685  12.060  1.00  0.00     0.166 HD
ENDBRANCH   6   7
BRANCH   3  13
HETATM   13  O   UNK N   1      35.440  12.032  20.546  0.00  0.00    -0.361 OA
HETATM   14  H   UNK N   1      36.018  12.596  21.021  0.00  0.00     0.217 HD
ENDBRANCH   3  13
TORSDOF 2
ENDMDL
MODEL 3
REMARK VINA RESULT:      -4.8     10.742     11.592
REMARK  2 active torsions:
REMARK  status: ('A' for Active; 'I' for Inactive)
REMARK    1  A    between atoms: C_3  and  O_4 
REMARK    2  A    between atoms: C_7  and  N_8 
ROOT
HETATM    1  C   UNK N   1      30.920  18.134   8.867  0.00  0.00     0.033 A 
HETATM    2  C   UNK N   1      29.683  18.413   9.456  0.00  0.00     0.039 A 
HETATM    3  C   UNK N   1      28.500  18.030   8.816  0.00  0.00     0.065 A 
HETATM    4  C   UNK N   1      28.552  17.368   7.588  0.00  0.00     0.039 A 
HETATM    5  C   UNK N   1      29.786  17.089   6.998  0.00  0.00     0.033 A 
HETATM    6  C   UNK N   1      30.978  17.469   7.632  0.00  0.00     0.039 A 
ENDROOT
BRANCH   6   7
HETATM    7  N   UNK N   1      32.241  17.177   7.015  0.00  0.00    -0.317 N 
HETATM    8  C   UNK N   1      33.341  16.725   7.638  0.00  0.00     0.115 A 
HETATM    9  C   UNK N   1      34.329  16.575   6.688  0.00  0.00     0.106 A 
HETATM   10  N   UNK N   1      33.829  16.937   5.487  0.00  0.00    -0.360 N 
HETATM   11  C   UNK N   1      32.551  17.300   5.712  0.00  0.00     0.188 A 
ATOM     12  HN  UNK N   1      34.318  16.935   4.592  1.00  0.00     0.166 HD
ENDBRANCH   6   7
BRANCH   3  13
HETATM   13  O   UNK N   1      27.313  18.297   9.382  0.00  0.00    -0.361 OA
HETATM   14  H   UNK N   1      27.079  17.891  10.193  0.00  0.00     0.217 HD
ENDBRANCH   3  13
TORSDOF 2
ENDMDL
MODEL 4
REMARK VINA RESULT:      -4.7     26.562     27.719
REMARK  2 active torsions:
REMARK  status: ('A' for Active; 'I' for Inactive)
REMARK    1  A    between atoms: C_3  and  O_4 
REMARK    2  A    between atoms: C_7  and  N_8 
ROOT
HETATM    1  C   UNK N   1      25.182  26.631  -6.093  0.00  0.00     0.033 A 
HETATM    2  C   UNK N   1      25.179  27.708  -5.201  0.00  0.00     0.039 A 
HETATM    3  C   UNK N   1      25.756  27.569  -3.935  0.00  0.00     0.065 A 
HETATM    4  C   UNK N   1      26.335  26.356  -3.559  0.00  0.00     0.039 A 
HETATM    5  C   UNK N   1      26.339  25.280  -4.448  0.00  0.00     0.033 A 
HETATM    6  C   UNK N   1      25.763  25.409  -5.720  0.00  0.00     0.039 A 
ENDROOT
BRANCH   6   7
HETATM    7  N   UNK N   1      25.773  24.295  -6.626  0.00  0.00    -0.317 N 
HETATM    8  C   UNK N   1      25.862  22.999  -6.288  0.00  0.00     0.115 A 
HETATM    9  C   UNK N   1      25.837  22.259  -7.452  0.00  0.00     0.106 A 
HETATM   10  N   UNK N   1      25.733  23.107  -8.497  0.00  0.00    -0.360 N 
HETATM   11  C   UNK N   1      25.695  24.346  -7.968  0.00  0.00     0.188 A 
ATOM     12  HN  UNK N   1      25.691  22.860  -9.486  1.00  0.00     0.166 HD
ENDBRANCH   6   7
BRANCH   3  13
HETATM   13  O   UNK N   1      25.754  28.603  -3.079  0.00  0.00    -0.361 OA
HETATM   14  H   UNK N   1      26.534  28.824  -2.610  0.00  0.00     0.217 HD
ENDBRANCH   3  13
TORSDOF 2
ENDMDL
MODEL 5
REMARK VINA RESULT:      -4.6     23.119     25.037
REMARK  2 active torsions:
REMARK  status: ('A' for Active; 'I' for Inactive)
REMARK    1  A    between atoms: C_3  and  O_4 
REMARK    2  A    between atoms: C_7  and  N_8 
ROOT
HETATM    1  C   UNK N   1      29.199  24.876  -4.092  0.00  0.00     0.033 A 
HETATM    2  C   UNK N   1      30.239  24.252  -3.397  0.00  0.00     0.039 A 
HETATM    3  C   UNK N   1      29.951  23.355  -2.364  0.00  0.00     0.065 A 
HETATM    4  C   UNK N   1      28.625  23.080  -2.025  0.00  0.00     0.039 A 
HETATM    5  C   UNK N   1      27.585  23.702  -2.718  0.00  0.00     0.033 A 
HETATM    6  C   UNK N   1      27.863  24.604  -3.755  0.00  0.00     0.039 A 
ENDROOT
BRANCH   6   7
HETATM    7  N   UNK N   1      26.786  25.238  -4.461  0.00  0.00    -0.317 N 
HETATM    8  C   UNK N   1      26.364  26.502  -4.294  0.00  0.00     0.115 A 
HETATM    9  C   UNK N   1      25.312  26.710  -5.161  0.00  0.00     0.106 A 
HETATM   10  N   UNK N   1      25.095  25.573  -5.855  0.00  0.00    -0.360 N 
HETATM   11  C   UNK N   1      26.008  24.687  -5.410  0.00  0.00     0.188 A 
ATOM     12  HN  UNK N   1      24.385  25.416  -6.571  1.00  0.00     0.166 HD
ENDBRANCH   6   7
BRANCH   3  13
HETATM   13  O   UNK N   1      30.949  22.755  -1.697  0.00  0.00    -0.361 OA
HETATM   14  H   UNK N   1      30.790  21.956  -1.235  0.00  0.00     0.217 HD
ENDBRANCH   3  13
TORSDOF 2
ENDMDL
MODEL 6
REMARK VINA RESULT:      -4.6     13.146     14.188
REMARK  2 active torsions:
REMARK  status: ('A' for Active; 'I' for Inactive)
REMARK    1  A    between atoms: C_3  and  O_4 
REMARK    2  A    between atoms: C_7  and  N_8 
ROOT
HETATM    1  C   UNK N   1      22.210  12.961   9.883  0.00  0.00     0.033 A 
HETATM    2  C   UNK N   1      21.912  12.368  11.114  0.00  0.00     0.039 A 
HETATM    3  C   UNK N   1      22.942  11.870  11.918  0.00  0.00     0.065 A 
HETATM    4  C   UNK N   1      24.268  11.964  11.495  0.00  0.00     0.039 A 
HETATM    5  C   UNK N   1      24.568  12.555  10.267  0.00  0.00     0.033 A 
HETATM    6  C   UNK N   1      23.543  13.058   9.452  0.00  0.00     0.039 A 
ENDROOT
BRANCH   6   7
HETATM    7  N   UNK N   1      23.863  13.664   8.191  0.00  0.00    -0.317 N 
HETATM    8  C   UNK N   1      25.081  13.729   7.629  0.00  0.00     0.115 A 
HETATM    9  C   UNK N   1      24.952  14.391   6.426  0.00  0.00     0.106 A 
HETATM   10  N   UNK N   1      23.656  14.728   6.257  0.00  0.00    -0.360 N 
HETATM   11  C   UNK N   1      23.009  14.274   7.349  0.00  0.00     0.188 A 
ATOM     12  HN  UNK N   1      23.249  15.225   5.465  1.00  0.00     0.166 HD
ENDBRANCH   6   7
BRANCH   3  13
HETATM   13  O   UNK N   1      22.656  11.301  13.100  0.00  0.00    -0.361 OA
HETATM   14  H   UNK N   1      22.932  10.423  13.276  0.00  0.00     0.217 HD
ENDBRANCH   3  13
TORSDOF 2
ENDMDL
MODEL 7
REMARK VINA RESULT:      -4.5      9.690     11.361
REMARK  2 active torsions:
REMARK  status: ('A' for Active; 'I' for Inactive)
REMARK    1  A    between atoms: C_3  and  O_4 
REMARK    2  A    between atoms: C_7  and  N_8 
ROOT
HETATM    1  C   UNK N   1      30.374  18.313   8.921  0.00  0.00     0.033 A 
HETATM    2  C   UNK N   1      29.009  18.315   8.619  0.00  0.00     0.039 A 
HETATM    3  C   UNK N   1      28.530  17.568   7.538  0.00  0.00     0.065 A 
HETATM    4  C   UNK N   1      29.413  16.819   6.760  0.00  0.00     0.039 A 
HETATM    5  C   UNK N   1      30.777  16.815   7.060  0.00  0.00     0.033 A 
HETATM    6  C   UNK N   1      31.268  17.561   8.142  0.00  0.00     0.039 A 
ENDROOT
BRANCH   6   7
HETATM    7  N   UNK N   1      32.671  17.550   8.441  0.00  0.00    -0.317 N 
HETATM    8  C   UNK N   1      33.348  16.553   9.033  0.00  0.00     0.115 A 
HETATM    9  C   UNK N   1      34.667  16.943   9.133  0.00  0.00     0.106 A 
HETATM   10  N   UNK N   1      34.791  18.178   8.602  0.00  0.00    -0.360 N 
HETATM   11  C   UNK N   1      33.558  18.528   8.185  0.00  0.00     0.188 A 
ATOM     12  HN  UNK N   1      35.644  18.732   8.531  1.00  0.00     0.166 HD
ENDBRANCH   6   7
BRANCH   3  13
HETATM   13  O   UNK N   1      27.220  17.570   7.248  0.00  0.00    -0.361 OA
HETATM   14  H   UNK N   1      26.589  17.660   7.934  0.00  0.00     0.217 HD
ENDBRANCH   3  13
TORSDOF 2
ENDMDL
MODEL 8
REMARK VINA RESULT:      -4.5     14.620     15.695
REMARK  2 active torsions:
REMARK  status: ('A' for Active; 'I' for Inactive)
REMARK    1  A    between atoms: C_3  and  O_4 
REMARK    2  A    between atoms: C_7  and  N_8 
ROOT
HETATM    1  C   UNK N   1      23.821  12.938   8.442  0.00  0.00     0.033 A 
HETATM    2  C   UNK N   1      24.679  12.817   9.539  0.00  0.00     0.039 A 
HETATM    3  C   UNK N   1      24.180  12.390  10.774  0.00  0.00     0.065 A 
HETATM    4  C   UNK N   1      22.825  12.085  10.913  0.00  0.00     0.039 A 
HETATM    5  C   UNK N   1      21.967  12.205   9.819  0.00  0.00     0.033 A 
HETATM    6  C   UNK N   1      22.457  12.632   8.576  0.00  0.00     0.039 A 
ENDROOT
BRANCH   6   7
HETATM    7  N   UNK N   1      21.566  12.752   7.458  0.00  0.00    -0.317 N 
HETATM    8  C   UNK N   1      21.214  11.768   6.615  0.00  0.00     0.115 A 
HETATM    9  C   UNK N   1      20.345  12.302   5.687  0.00  0.00     0.106 A 
HETATM   10  N   UNK N   1      20.169  13.611   5.966  0.00  0.00    -0.360 N 
HETATM   11  C   UNK N   1      20.925  13.863   7.052  0.00  0.00     0.188 A 
ATOM     12  HN  UNK N   1      19.583  14.274   5.458  1.00  0.00     0.166 HD
ENDBRANCH   6   7
BRANCH   3  13
HETATM   13  O   UNK N   1      25.003  12.274  11.828  0.00  0.00    -0.361 OA
HETATM   14  H   UNK N   1      24.677  11.943  12.641  0.00  0.00     0.217 HD
ENDBRANCH   3  13
TORSDOF 2
ENDMDL
MODEL 9
REMARK VINA RESULT:      -4.5     11.036     11.698
REMARK  2 active torsions:
REMARK  status: ('A' for Active; 'I' for Inactive)
REMARK    1  A    between atoms: C_3  and  O_4 
REMARK    2  A    between atoms: C_7  and  N_8 
ROOT
HETATM    1  C   UNK N   1      32.759  18.066   8.039  0.00  0.00     0.033 A 
HETATM    2  C   UNK N   1      33.984  17.688   7.481  0.00  0.00     0.039 A 
HETATM    3  C   UNK N   1      34.043  16.615   6.585  0.00  0.00     0.065 A 
HETATM    4  C   UNK N   1      32.881  15.921   6.247  0.00  0.00     0.039 A 
HETATM    5  C   UNK N   1      31.657  16.297   6.803  0.00  0.00     0.033 A 
HETATM    6  C   UNK N   1      31.586  17.372   7.703  0.00  0.00     0.039 A 
ENDROOT
BRANCH   6   7
HETATM    7  N   UNK N   1      30.323  17.750   8.268  0.00  0.00    -0.317 N 
HETATM    8  C   UNK N   1      29.112  17.375   7.825  0.00  0.00     0.115 A 
HETATM    9  C   UNK N   1      28.167  17.955   8.646  0.00  0.00     0.106 A 
HETATM   10  N   UNK N   1      28.805  18.683   9.587  0.00  0.00    -0.360 N 
HETATM   11  C   UNK N   1      30.121  18.542   9.337  0.00  0.00     0.188 A 
ATOM     12  HN  UNK N   1      28.377  19.228  10.336  1.00  0.00     0.166 HD
ENDBRANCH   6   7
BRANCH   3  13
HETATM   13  O   UNK N   1      35.218  16.251   6.050  0.00  0.00    -0.361 OA
HETATM   14  H   UNK N   1      35.240  15.644   5.336  0.00  0.00     0.217 HD
ENDBRANCH   3  13
TORSDOF 2
ENDMDL
