MODEL 1
REMARK VINA RESULT:      -5.2      0.000      0.000
REMARK  3 active torsions:
REMARK  status: ('A' for Active; 'I' for Inactive)
REMARK    1  A    between atoms: C_3  and  S_4 
REMARK       I    between atoms: C_8  and  N_9 
REMARK    2  A    between atoms: N_9  and  C_10 
REMARK       I    between atoms: C_16  and  N_17 
REMARK    3  A    between atoms: N_17  and  C_18 
ROOT
HETATM    1  N   UNK N   1      36.497  14.111  11.049  0.00  0.00    -0.169 N 
ATOM      2  HN  UNK N   1      37.235  13.516  11.427  1.00  0.00     0.186 HD
HETATM    3  C   UNK N   1      36.483  14.411   9.729  0.00  0.00     0.174 A 
HETATM    4  N   UNK N   1      35.503  15.210   9.231  0.00  0.00    -0.169 N 
ATOM      5  HN  UNK N   1      35.491  15.438   8.237  1.00  0.00     0.186 HD
HETATM    6  C   UNK N   1      34.537  15.705  10.050  0.00  0.00     0.695 A 
HETATM    7  N   UNK N   1      33.490  16.526   9.541  0.00  0.00    -0.217 N 
HETATM    8  N   UNK N   1      34.551  15.386  11.371  0.00  0.00    -0.022 N 
ATOM      9  HN  UNK N   1      33.819  15.742  11.986  1.00  0.00     0.203 HD
HETATM   10  C   UNK N   1      35.534  14.598  11.875  0.00  0.00     0.694 A 
HETATM   11  N   UNK N   1      35.549  14.277  13.252  0.00  0.00    -0.226 N 
HETATM   12  H   UNK N   1      32.685  16.607  10.102  0.00  0.00     0.178 HD
HETATM   13  H   UNK N   1      34.850  14.642  13.842  0.00  0.00     0.177 HD
ENDROOT
BRANCH   7  14
HETATM   14  C   UNK N   1      33.479  17.261   8.284  0.00  0.00     0.036 C 
HETATM   15  C   UNK N   1      32.168  18.006   8.141  0.00  0.00     0.038 C 
HETATM   16  C   UNK N   1      33.693  16.388   7.056  0.00  0.00     0.038 C 
HETATM   17  C   UNK N   1      34.602  18.275   8.322  0.00  0.00     0.038 C 
ENDBRANCH   7  14
BRANCH   3  18
HETATM   18  S   UNK N   1      37.762  13.721   8.666  0.00  0.00    -0.097 SA
HETATM   19  C   UNK N   1      38.827  13.081   9.994  0.00  0.00     0.099 C 
ENDBRANCH   3  18
BRANCH  11  20
HETATM   20  C   UNK N   1      36.572  13.424  13.804  0.00  0.00     0.133 C 
HETATM   21  C   UNK N   1      36.821  13.788  15.252  0.00  0.00     0.027 C 
ENDBRANCH  11  20
TORSDOF 3
ENDMDL
MODEL 2
REMARK VINA RESULT:      -5.1      1.842      1.919
REMARK  3 active torsions:
REMARK  status: ('A' for Active; 'I' for Inactive)
REMARK    1  A    between atoms: C_3  and  S_4 
REMARK       I    between atoms: C_8  and  N_9 
REMARK    2  A    between atoms: N_9  and  C_10 
REMARK       I    between atoms: C_16  and  N_17 
REMARK    3  A    between atoms: N_17  and  C_18 
ROOT
HETATM    1  N   UNK N   1      35.544  13.453  12.028  0.00  0.00    -0.169 N 
ATOM      2  HN  UNK N   1      35.798  12.597  12.519  1.00  0.00     0.186 HD
HETATM    3  C   UNK N   1      34.863  13.383  10.859  0.00  0.00     0.174 A 
HETATM    4  N   UNK N   1      34.532  14.526  10.203  0.00  0.00    -0.169 N 
ATOM      5  HN  UNK N   1      34.021  14.475   9.323  1.00  0.00     0.186 HD
HETATM    6  C   UNK N   1      34.877  15.737  10.716  0.00  0.00     0.695 A 
HETATM    7  N   UNK N   1      34.519  16.946  10.054  0.00  0.00    -0.217 N 
HETATM    8  N   UNK N   1      35.547  15.798  11.897  0.00  0.00    -0.022 N 
ATOM      9  HN  UNK N   1      35.793  16.705  12.294  1.00  0.00     0.203 HD
HETATM   10  C   UNK N   1      35.890  14.659  12.550  0.00  0.00     0.694 A 
HETATM   11  N   UNK N   1      36.594  14.729  13.774  0.00  0.00    -0.226 N 
HETATM   12  H   UNK N   1      34.533  17.765  10.599  0.00  0.00     0.178 HD
HETATM   13  H   UNK N   1      36.846  15.608  14.139  0.00  0.00     0.177 HD
ENDROOT
BRANCH   7  14
HETATM   14  C   UNK N   1      34.136  17.105   8.657  0.00  0.00     0.036 C 
HETATM   15  C   UNK N   1      32.629  17.026   8.531  0.00  0.00     0.038 C 
HETATM   16  C   UNK N   1      34.770  16.085   7.723  0.00  0.00     0.038 C 
HETATM   17  C   UNK N   1      34.582  18.478   8.201  0.00  0.00     0.038 C 
ENDBRANCH   7  14
BRANCH   3  18
HETATM   18  S   UNK N   1      34.401  11.765  10.218  0.00  0.00    -0.097 SA
HETATM   19  C   UNK N   1      35.204  10.778  11.517  0.00  0.00     0.099 C 
ENDBRANCH   3  18
BRANCH  11  20
HETATM   20  C   UNK N   1      36.950  13.532  14.494  0.00  0.00     0.133 C 
HETATM   21  C   UNK N   1      36.004  13.329  15.658  0.00  0.00     0.027 C 
ENDBRANCH  11  20
TORSDOF 3
ENDMDL
MODEL 3
REMARK VINA RESULT:      -5.1      6.547      9.147
REMARK  3 active torsions:
REMARK  status: ('A' for Active; 'I' for Inactive)
REMARK    1  A    between atoms: C_3  and  S_4 
REMARK       I    between atoms: C_8  and  N_9 
REMARK    2  A    between atoms: N_9  and  C_10 
REMARK       I    between atoms: C_16  and  N_17 
REMARK    3  A    between atoms: N_17  and  C_18 
ROOT
HETATM    1  N   UNK N   1      30.058  17.337   6.710  0.00  0.00    -0.169 N 
ATOM      2  HN  UNK N   1      30.628  16.827   7.384  1.00  0.00     0.186 HD
HETATM    3  C   UNK N   1      28.892  17.902   7.103  0.00  0.00     0.174 A 
HETATM    4  N   UNK N   1      28.131  18.575   6.199  0.00  0.00    -0.169 N 
ATOM      5  HN  UNK N   1      27.253  18.999   6.492  1.00  0.00     0.186 HD
HETATM    6  C   UNK N   1      28.537  18.685   4.906  0.00  0.00     0.695 A 
HETATM    7  N   UNK N   1      27.764  19.405   3.950  0.00  0.00    -0.217 N 
HETATM    8  N   UNK N   1      29.717  18.128   4.524  0.00  0.00    -0.022 N 
ATOM      9  HN  UNK N   1      30.033  18.222   3.559  1.00  0.00     0.203 HD
HETATM   10  C   UNK N   1      30.474  17.446   5.421  0.00  0.00     0.694 A 
HETATM   11  N   UNK N   1      31.695  16.860   5.016  0.00  0.00    -0.226 N 
HETATM   12  H   UNK N   1      28.234  19.695   3.135  0.00  0.00     0.178 HD
HETATM   13  H   UNK N   1      31.983  16.939   4.077  0.00  0.00     0.177 HD
ENDROOT
BRANCH   7  14
HETATM   14  C   UNK N   1      26.355  19.759   4.045  0.00  0.00     0.036 C 
HETATM   15  C   UNK N   1      25.941  20.537   2.813  0.00  0.00     0.038 C 
HETATM   16  C   UNK N   1      26.002  20.565   5.286  0.00  0.00     0.038 C 
HETATM   17  C   UNK N   1      25.550  18.477   4.091  0.00  0.00     0.038 C 
ENDBRANCH   7  14
BRANCH   3  18
HETATM   18  S   UNK N   1      28.393  17.758   8.827  0.00  0.00    -0.097 SA
HETATM   19  C   UNK N   1      29.797  18.668   9.538  0.00  0.00     0.099 C 
ENDBRANCH   3  18
BRANCH  11  20
HETATM   20  C   UNK N   1      32.525  16.149   5.956  0.00  0.00     0.133 C 
HETATM   21  C   UNK N   1      33.731  16.988   6.318  0.00  0.00     0.027 C 
ENDBRANCH  11  20
TORSDOF 3
ENDMDL
MODEL 4
REMARK VINA RESULT:      -5.1      6.520      9.616
REMARK  3 active torsions:
REMARK  status: ('A' for Active; 'I' for Inactive)
REMARK    1  A    between atoms: C_3  and  S_4 
REMARK       I    between atoms: C_8  and  N_9 
REMARK    2  A    between atoms: N_9  and  C_10 
REMARK       I    between atoms: C_16  and  N_17 
REMARK    3  A    between atoms: N_17  and  C_18 
ROOT
HETATM    1  N   UNK N   1      28.144  18.730   6.146  0.00  0.00    -0.169 N 
ATOM      2  HN  UNK N   1      27.295  19.226   6.416  1.00  0.00     0.186 HD
HETATM    3  C   UNK N   1      28.865  18.069   7.082  0.00  0.00     0.174 A 
HETATM    4  N   UNK N   1      30.000  17.415   6.719  0.00  0.00    -0.169 N 
ATOM      5  HN  UNK N   1      30.545  16.919   7.423  1.00  0.00     0.186 HD
HETATM    6  C   UNK N   1      30.411  17.419   5.423  0.00  0.00     0.695 A 
HETATM    7  N   UNK N   1      31.586  16.721   5.021  0.00  0.00    -0.217 N 
HETATM    8  N   UNK N   1      29.672  18.072   4.488  0.00  0.00    -0.022 N 
ATOM      9  HN  UNK N   1      29.968  18.064   3.512  1.00  0.00     0.203 HD
HETATM   10  C   UNK N   1      28.545  18.736   4.848  0.00  0.00     0.694 A 
HETATM   11  N   UNK N   1      27.785  19.422   3.872  0.00  0.00    -0.226 N 
HETATM   12  H   UNK N   1      31.668  16.517   4.062  0.00  0.00     0.178 HD
HETATM   13  H   UNK N   1      28.089  19.426   2.935  0.00  0.00     0.177 HD
ENDROOT
BRANCH   7  14
HETATM   14  C   UNK N   1      32.680  16.276   5.873  0.00  0.00     0.036 C 
HETATM   15  C   UNK N   1      32.223  15.105   6.719  0.00  0.00     0.038 C 
HETATM   16  C   UNK N   1      33.236  17.361   6.782  0.00  0.00     0.038 C 
HETATM   17  C   UNK N   1      33.810  15.807   4.980  0.00  0.00     0.038 C 
ENDBRANCH   7  14
BRANCH   3  18
HETATM   18  S   UNK N   1      28.282  18.064   8.786  0.00  0.00    -0.097 SA
HETATM   19  C   UNK N   1      29.833  18.630   9.549  0.00  0.00     0.099 C 
ENDBRANCH   3  18
BRANCH  11  20
HETATM   20  C   UNK N   1      26.572  20.116   4.228  0.00  0.00     0.133 C 
HETATM   21  C   UNK N   1      25.730  20.352   2.993  0.00  0.00     0.027 C 
ENDBRANCH  11  20
TORSDOF 3
ENDMDL
MODEL 5
REMARK VINA RESULT:      -5.1      1.530      5.698
REMARK  3 active torsions:
REMARK  status: ('A' for Active; 'I' for Inactive)
REMARK    1  A    between atoms: C_3  and  S_4 
REMARK       I    between atoms: C_8  and  N_9 
REMARK    2  A    between atoms: N_9  and  C_10 
REMARK       I    between atoms: C_16  and  N_17 
REMARK    3  A    between atoms: N_17  and  C_18 
ROOT
HETATM    1  N   UNK N   1      34.987  15.210   9.260  0.00  0.00    -0.169 N 
ATOM      2  HN  UNK N   1      34.643  15.326   8.307  1.00  0.00     0.186 HD
HETATM    3  C   UNK N   1      35.261  13.971   9.732  0.00  0.00     0.174 A 
HETATM    4  N   UNK N   1      35.713  13.820  11.005  0.00  0.00    -0.169 N 
ATOM      5  HN  UNK N   1      35.918  12.888  11.362  1.00  0.00     0.186 HD
HETATM    6  C   UNK N   1      35.892  14.906  11.803  0.00  0.00     0.695 A 
HETATM    7  N   UNK N   1      36.386  14.769  13.132  0.00  0.00    -0.217 N 
HETATM    8  N   UNK N   1      35.629  16.147  11.315  0.00  0.00    -0.022 N 
ATOM      9  HN  UNK N   1      35.779  16.966  11.905  1.00  0.00     0.203 HD
HETATM   10  C   UNK N   1      35.168  16.301  10.049  0.00  0.00     0.694 A 
HETATM   11  N   UNK N   1      34.886  17.594   9.550  0.00  0.00    -0.226 N 
HETATM   12  H   UNK N   1      36.765  15.579  13.545  0.00  0.00     0.178 HD
HETATM   13  H   UNK N   1      35.014  18.378  10.133  0.00  0.00     0.177 HD
ENDROOT
BRANCH   7  14
HETATM   14  C   UNK N   1      36.391  13.564  13.950  0.00  0.00     0.036 C 
HETATM   15  C   UNK N   1      36.932  13.885  15.328  0.00  0.00     0.038 C 
HETATM   16  C   UNK N   1      37.192  12.417  13.354  0.00  0.00     0.038 C 
HETATM   17  C   UNK N   1      34.960  13.091  14.097  0.00  0.00     0.038 C 
ENDBRANCH   7  14
BRANCH   3  18
HETATM   18  S   UNK N   1      35.034  12.556   8.643  0.00  0.00    -0.097 SA
HETATM   19  C   UNK N   1      34.389  11.413   9.901  0.00  0.00     0.099 C 
ENDBRANCH   3  18
BRANCH  11  20
HETATM   20  C   UNK N   1      34.416  17.783   8.200  0.00  0.00     0.133 C 
HETATM   21  C   UNK N   1      32.924  18.038   8.204  0.00  0.00     0.027 C 
ENDBRANCH  11  20
TORSDOF 3
ENDMDL
MODEL 6
REMARK VINA RESULT:      -5.0      2.044      2.945
REMARK  3 active torsions:
REMARK  status: ('A' for Active; 'I' for Inactive)
REMARK    1  A    between atoms: C_3  and  S_4 
REMARK       I    between atoms: C_8  and  N_9 
REMARK    2  A    between atoms: N_9  and  C_10 
REMARK       I    between atoms: C_16  and  N_17 
REMARK    3  A    between atoms: N_17  and  C_18 
ROOT
HETATM    1  N   UNK N   1      35.039  13.957   9.349  0.00  0.00    -0.169 N 
ATOM      2  HN  UNK N   1      35.859  13.351   9.347  1.00  0.00     0.186 HD
HETATM    3  C   UNK N   1      34.717  14.660   8.237  0.00  0.00     0.174 A 
HETATM    4  N   UNK N   1      33.627  15.472   8.246  0.00  0.00    -0.169 N 
ATOM      5  HN  UNK N   1      33.385  16.003   7.411  1.00  0.00     0.186 HD
HETATM    6  C   UNK N   1      32.859  15.578   9.363  0.00  0.00     0.695 A 
HETATM    7  N   UNK N   1      31.701  16.407   9.383  0.00  0.00    -0.217 N 
HETATM    8  N   UNK N   1      33.181  14.857  10.469  0.00  0.00    -0.022 N 
ATOM      9  HN  UNK N   1      32.597  14.920  11.303  1.00  0.00     0.203 HD
HETATM   10  C   UNK N   1      34.275  14.053  10.468  0.00  0.00     0.694 A 
HETATM   11  N   UNK N   1      34.610  13.312  11.625  0.00  0.00    -0.226 N 
HETATM   12  H   UNK N   1      31.042  16.222  10.090  0.00  0.00     0.178 HD
HETATM   13  H   UNK N   1      34.052  13.396  12.433  0.00  0.00     0.177 HD
ENDROOT
BRANCH   7  14
HETATM   14  C   UNK N   1      31.384  17.500   8.474  0.00  0.00     0.036 C 
HETATM   15  C   UNK N   1      32.659  18.208   8.066  0.00  0.00     0.038 C 
HETATM   16  C   UNK N   1      30.409  18.518   9.048  0.00  0.00     0.038 C 
HETATM   17  C   UNK N   1      30.748  16.910   7.233  0.00  0.00     0.038 C 
ENDBRANCH   7  14
BRANCH   3  18
HETATM   18  S   UNK N   1      35.742  14.480   6.768  0.00  0.00    -0.097 SA
HETATM   19  C   UNK N   1      34.740  15.530   5.673  0.00  0.00     0.099 C 
ENDBRANCH   3  18
BRANCH  11  20
HETATM   20  C   UNK N   1      35.755  12.437  11.639  0.00  0.00     0.133 C 
HETATM   21  C   UNK N   1      36.833  13.010  12.534  0.00  0.00     0.027 C 
ENDBRANCH  11  20
TORSDOF 3
ENDMDL
MODEL 7
REMARK VINA RESULT:      -4.7      5.359      7.916
REMARK  3 active torsions:
REMARK  status: ('A' for Active; 'I' for Inactive)
REMARK    1  A    between atoms: C_3  and  S_4 
REMARK       I    between atoms: C_8  and  N_9 
REMARK    2  A    between atoms: N_9  and  C_10 
REMARK       I    between atoms: C_16  and  N_17 
REMARK    3  A    between atoms: N_17  and  C_18 
ROOT
HETATM    1  N   UNK N   1      30.300  16.900   6.790  0.00  0.00    -0.169 N 
ATOM      2  HN  UNK N   1      31.013  16.202   6.578  1.00  0.00     0.186 HD
HETATM    3  C   UNK N   1      29.534  17.405   5.794  0.00  0.00     0.174 A 
HETATM    4  N   UNK N   1      28.591  18.341   6.079  0.00  0.00    -0.169 N 
ATOM      5  HN  UNK N   1      28.015  18.724   5.330  1.00  0.00     0.186 HD
HETATM    6  C   UNK N   1      28.411  18.768   7.357  0.00  0.00     0.695 A 
HETATM    7  N   UNK N   1      27.412  19.732   7.677  0.00  0.00    -0.217 N 
HETATM    8  N   UNK N   1      29.173  18.244   8.352  0.00  0.00    -0.022 N 
ATOM      9  HN  UNK N   1      29.030  18.550   9.315  1.00  0.00     0.203 HD
HETATM   10  C   UNK N   1      30.125  17.318   8.071  0.00  0.00     0.694 A 
HETATM   11  N   UNK N   1      30.922  16.783   9.109  0.00  0.00    -0.226 N 
HETATM   12  H   UNK N   1      27.136  19.780   8.621  0.00  0.00     0.178 HD
HETATM   13  H   UNK N   1      30.790  17.099  10.033  0.00  0.00     0.177 HD
ENDROOT
BRANCH   7  14
HETATM   14  C   UNK N   1      26.754  20.655   6.763  0.00  0.00     0.036 C 
HETATM   15  C   UNK N   1      25.838  21.577   7.542  0.00  0.00     0.038 C 
HETATM   16  C   UNK N   1      25.955  19.971   5.664  0.00  0.00     0.038 C 
HETATM   17  C   UNK N   1      27.821  21.495   6.095  0.00  0.00     0.038 C 
ENDBRANCH   7  14
BRANCH   3  18
HETATM   18  S   UNK N   1      29.782  16.802   4.116  0.00  0.00    -0.097 SA
HETATM   19  C   UNK N   1      31.080  15.591   4.508  0.00  0.00     0.099 C 
ENDBRANCH   3  18
BRANCH  11  20
HETATM   20  C   UNK N   1      31.923  15.783   8.836  0.00  0.00     0.133 C 
HETATM   21  C   UNK N   1      33.296  16.418   8.817  0.00  0.00     0.027 C 
ENDBRANCH  11  20
TORSDOF 3
ENDMDL
MODEL 8
REMARK VINA RESULT:      -4.7     12.784     14.100
REMARK  3 active torsions:
REMARK  status: ('A' for Active; 'I' for Inactive)
REMARK    1  A    between atoms: C_3  and  S_4 
REMARK       I    between atoms: C_8  and  N_9 
REMARK    2  A    between atoms: N_9  and  C_10 
REMARK       I    between atoms: C_16  and  N_17 
REMARK    3  A    between atoms: N_17  and  C_18 
ROOT
HETATM    1  N   UNK N   1      41.591  21.900   1.317  0.00  0.00    -0.169 N 
ATOM      2  HN  UNK N   1      41.941  20.968   1.537  1.00  0.00     0.186 HD
HETATM    3  C   UNK N   1      40.769  22.077   0.255  0.00  0.00     0.174 A 
HETATM    4  N   UNK N   1      40.310  23.322  -0.040  0.00  0.00    -0.169 N 
ATOM      5  HN  UNK N   1      39.693  23.457  -0.840  1.00  0.00     0.186 HD
HETATM    6  C   UNK N   1      40.670  24.386   0.725  0.00  0.00     0.695 A 
HETATM    7  N   UNK N   1      40.181  25.694   0.444  0.00  0.00    -0.217 N 
HETATM    8  N   UNK N   1      41.483  24.196   1.798  0.00  0.00    -0.022 N 
ATOM      9  HN  UNK N   1      41.742  24.989   2.385  1.00  0.00     0.203 HD
HETATM   10  C   UNK N   1      41.952  22.957   2.090  0.00  0.00     0.694 A 
HETATM   11  N   UNK N   1      42.805  22.767   3.202  0.00  0.00    -0.226 N 
HETATM   12  H   UNK N   1      40.232  26.348   1.177  0.00  0.00     0.178 HD
HETATM   13  H   UNK N   1      43.067  23.542   3.751  0.00  0.00     0.177 HD
ENDROOT
BRANCH   7  14
HETATM   14  C   UNK N   1      39.616  26.172  -0.811  0.00  0.00     0.036 C 
HETATM   15  C   UNK N   1      39.239  27.633  -0.676  0.00  0.00     0.038 C 
HETATM   16  C   UNK N   1      38.401  25.384  -1.280  0.00  0.00     0.038 C 
HETATM   17  C   UNK N   1      40.679  26.050  -1.882  0.00  0.00     0.038 C 
ENDBRANCH   7  14
BRANCH   3  18
HETATM   18  S   UNK N   1      40.294  20.644  -0.725  0.00  0.00    -0.097 SA
HETATM   19  C   UNK N   1      41.931  20.321  -1.448  0.00  0.00     0.099 C 
ENDBRANCH   3  18
BRANCH  11  20
HETATM   20  C   UNK N   1      43.299  21.456   3.543  0.00  0.00     0.133 C 
HETATM   21  C   UNK N   1      44.762  21.536   3.920  0.00  0.00     0.027 C 
ENDBRANCH  11  20
TORSDOF 3
ENDMDL
MODEL 9
REMARK VINA RESULT:      -4.6      7.451     10.802
REMARK  3 active torsions:
REMARK  status: ('A' for Active; 'I' for Inactive)
REMARK    1  A    between atoms: C_3  and  S_4 
REMARK       I    between atoms: C_8  and  N_9 
REMARK    2  A    between atoms: N_9  and  C_10 
REMARK       I    between atoms: C_16  and  N_17 
REMARK    3  A    between atoms: N_17  and  C_18 
ROOT
HETATM    1  N   UNK N   1      26.764  18.020   5.109  0.00  0.00    -0.169 N 
ATOM      2  HN  UNK N   1      25.757  18.090   5.252  1.00  0.00     0.186 HD
HETATM    3  C   UNK N   1      27.447  16.976   5.636  0.00  0.00     0.174 A 
HETATM    4  N   UNK N   1      28.791  16.889   5.450  0.00  0.00    -0.169 N 
ATOM      5  HN  UNK N   1      29.307  16.106   5.847  1.00  0.00     0.186 HD
HETATM    6  C   UNK N   1      29.449  17.841   4.736  0.00  0.00     0.695 A 
HETATM    7  N   UNK N   1      30.853  17.754   4.512  0.00  0.00    -0.217 N 
HETATM    8  N   UNK N   1      28.752  18.876   4.198  0.00  0.00    -0.022 N 
ATOM      9  HN  UNK N   1      29.239  19.584   3.648  1.00  0.00     0.203 HD
HETATM   10  C   UNK N   1      27.412  18.974   4.391  0.00  0.00     0.694 A 
HETATM   11  N   UNK N   1      26.694  20.058   3.837  0.00  0.00    -0.226 N 
HETATM   12  H   UNK N   1      31.212  18.289   3.768  0.00  0.00     0.178 HD
HETATM   13  H   UNK N   1      27.176  20.748   3.324  0.00  0.00     0.177 HD
ENDROOT
BRANCH   7  14
HETATM   14  C   UNK N   1      31.817  16.963   5.264  0.00  0.00     0.036 C 
HETATM   15  C   UNK N   1      31.701  15.506   4.867  0.00  0.00     0.038 C 
HETATM   16  C   UNK N   1      31.670  17.082   6.774  0.00  0.00     0.038 C 
HETATM   17  C   UNK N   1      33.206  17.447   4.903  0.00  0.00     0.038 C 
ENDBRANCH   7  14
BRANCH   3  18
HETATM   18  S   UNK N   1      26.544  15.721   6.557  0.00  0.00    -0.097 SA
HETATM   19  C   UNK N   1      24.941  15.955   5.731  0.00  0.00     0.099 C 
ENDBRANCH   3  18
BRANCH  11  20
HETATM   20  C   UNK N   1      25.267  20.170   4.011  0.00  0.00     0.133 C 
HETATM   21  C   UNK N   1      24.617  20.571   2.705  0.00  0.00     0.027 C 
ENDBRANCH  11  20
TORSDOF 3
ENDMDL
