REMARK  3 active torsions:
REMARK  status: ('A' for Active; 'I' for Inactive)
REMARK    1  A    between atoms: C_3  and  S_4 
REMARK       I    between atoms: C_8  and  N_9 
REMARK    2  A    between atoms: N_9  and  C_10 
REMARK       I    between atoms: C_16  and  N_17 
REMARK    3  A    between atoms: N_17  and  C_18 
ROOT
HETATM    1  N   UNK N   1       1.545   1.081  -0.025  0.00  0.00    -0.169 N 
ATOM      2  HN  UNK N   1       2.421   1.598  -0.097  1.00  0.00     0.186 HD
HETATM    3  C   UNK N   1       1.561  -0.273  -0.009  0.00  0.00     0.174 A 
HETATM    4  N   UNK N   1       0.391  -0.959   0.080  0.00  0.00    -0.169 N 
ATOM      5  HN  UNK N   1       0.401  -1.978   0.090  1.00  0.00     0.186 HD
HETATM    6  C   UNK N   1      -0.792  -0.293   0.156  0.00  0.00     0.695 A 
HETATM    7  N   UNK N   1      -2.026  -0.995   0.272  0.00  0.00    -0.217 N 
HETATM    8  N   UNK N   1      -0.797   1.066   0.155  0.00  0.00    -0.022 N 
ATOM      9  HN  UNK N   1      -1.681   1.570   0.229  1.00  0.00     0.203 HD
HETATM   10  C   UNK N   1       0.368   1.755   0.055  0.00  0.00     0.694 A 
HETATM   11  N   UNK N   1       0.356   3.169   0.045  0.00  0.00    -0.226 N 
HETATM   12  H   UNK N   1      -2.793  -0.480   0.611  0.00  0.00     0.178 HD
HETATM   13  H   UNK N   1      -0.504   3.647   0.096  0.00  0.00     0.177 HD
ENDROOT
BRANCH   7  14
HETATM   14  C   UNK N   1      -2.279  -2.391  -0.057  0.00  0.00     0.036 C 
HETATM   15  C   UNK N   1      -2.496  -3.183   1.216  0.00  0.00     0.038 C 
HETATM   16  C   UNK N   1      -1.171  -3.045  -0.869  0.00  0.00     0.038 C 
HETATM   17  C   UNK N   1      -3.547  -2.457  -0.882  0.00  0.00     0.038 C 
ENDBRANCH   7  14
BRANCH   3  18
HETATM   18  S   UNK N   1       3.145  -1.125  -0.089  0.00  0.00    -0.097 SA
HETATM   19  C   UNK N   1       2.487  -2.818  -0.006  0.00  0.00     0.099 C 
ENDBRANCH   3  18
BRANCH  11  20
HETATM   20  C   UNK N   1       1.583   3.921  -0.039  0.00  0.00     0.133 C 
HETATM   21  C   UNK N   1       1.284   5.404  -0.002  0.00  0.00     0.027 C 
ENDBRANCH  11  20
TORSDOF 3
