MODEL 1
REMARK VINA RESULT:      -6.7      0.000      0.000
REMARK  6 active torsions:
REMARK  status: ('A' for Active; 'I' for Inactive)
REMARK    1  A    between atoms: C_1  and  N_18 
REMARK    2  A    between atoms: C_2  and  C_13 
REMARK    3  A    between atoms: C_7  and  N_20 
REMARK    4  A    between atoms: C_9  and  C_14 
REMARK    5  A    between atoms: C_10  and  O_24 
REMARK    6  A    between atoms: C_13  and  O_23 
ROOT
HETATM    1  N   UNK N   1      35.098   9.771  21.047  0.00  0.00    -0.299 N 
ATOM      2  HN  UNK N   1      35.694   9.313  21.737  1.00  0.00     0.187 HD
HETATM    3  N   UNK N   1      35.525  10.856  20.572  0.00  0.00    -0.300 N 
ATOM      4  HN  UNK N   1      36.275  11.307  21.096  1.00  0.00     0.187 HD
ENDROOT
BRANCH   3   5
HETATM    5  C   UNK N   1      35.093  11.528  19.400  0.00  0.00     0.048 A 
HETATM    6  C   UNK N   1      35.098  10.824  18.186  0.00  0.00     0.041 A 
HETATM    7  C   UNK N   1      35.185  11.492  16.944  0.00  0.00    -0.015 A 
HETATM    8  C   UNK N   1      35.275  12.904  16.940  0.00  0.00     0.072 A 
HETATM    9  C   UNK N   1      35.247  13.609  18.146  0.00  0.00     0.039 A 
HETATM   10  C   UNK N   1      35.198  12.924  19.362  0.00  0.00     0.034 A 
BRANCH   7  11
HETATM   11  C   UNK N   1      35.288  10.696  15.645  0.00  0.00    -0.021 C 
HETATM   12  C   UNK N   1      35.322   9.210  15.971  0.00  0.00     0.019 C 
HETATM   13  C   UNK N   1      36.548  11.053  14.874  0.00  0.00     0.019 C 
HETATM   14  C   UNK N   1      34.105  10.932  14.717  0.00  0.00     0.019 C 
ENDBRANCH   7  11
BRANCH   8  15
HETATM   15  O   UNK N   1      35.410  13.586  15.788  0.00  0.00    -0.360 OA
HETATM   16  H   UNK N   1      35.915  14.365  15.659  0.00  0.00     0.217 HD
ENDBRANCH   8  15
ENDBRANCH   3   5
BRANCH   1  17
HETATM   17  C   UNK N   1      33.882   9.115  20.730  0.00  0.00     0.065 A 
HETATM   18  C   UNK N   1      32.702   9.344  21.495  0.00  0.00     0.065 A 
HETATM   19  C   UNK N   1      31.590   8.509  21.294  0.00  0.00     0.021 A 
HETATM   20  C   UNK N   1      31.634   7.461  20.375  0.00  0.00     0.001 A 
HETATM   21  C   UNK N   1      32.797   7.227  19.644  0.00  0.00     0.002 A 
HETATM   22  C   UNK N   1      33.918   8.039  19.833  0.00  0.00     0.032 A 
BRANCH  18  23
HETATM   23  C   UNK N   1      32.611  10.386  22.556  0.00  0.00     0.178 C 
HETATM   24  O   UNK N   1      32.162  10.095  23.654  0.00  0.00    -0.646 OA
BRANCH  23  25
HETATM   25  O   UNK N   1      33.027  11.645  22.338  0.00  0.00    -0.773 OA
HETATM   26  H   UNK N   1      32.702  12.405  21.895  0.00  0.00     0.167 HD
ENDBRANCH  23  25
ENDBRANCH  18  23
ENDBRANCH   1  17
TORSDOF 6
ENDMDL
MODEL 2
REMARK VINA RESULT:      -6.6     12.924     15.736
REMARK  6 active torsions:
REMARK  status: ('A' for Active; 'I' for Inactive)
REMARK    1  A    between atoms: C_1  and  N_18 
REMARK    2  A    between atoms: C_2  and  C_13 
REMARK    3  A    between atoms: C_7  and  N_20 
REMARK    4  A    between atoms: C_9  and  C_14 
REMARK    5  A    between atoms: C_10  and  O_24 
REMARK    6  A    between atoms: C_13  and  O_23 
ROOT
HETATM    1  N   UNK N   1      27.796  16.561   5.718  0.00  0.00    -0.299 N 
ATOM      2  HN  UNK N   1      26.852  16.173   5.708  1.00  0.00     0.187 HD
HETATM    3  N   UNK N   1      28.741  15.729   5.728  0.00  0.00    -0.300 N 
ATOM      4  HN  UNK N   1      28.491  14.775   5.989  1.00  0.00     0.187 HD
ENDROOT
BRANCH   3   5
HETATM    5  C   UNK N   1      30.107  15.953   5.421  0.00  0.00     0.048 A 
HETATM    6  C   UNK N   1      31.032  15.986   6.477  0.00  0.00     0.041 A 
HETATM    7  C   UNK N   1      32.260  16.675   6.362  0.00  0.00    -0.015 A 
HETATM    8  C   UNK N   1      32.548  17.349   5.151  0.00  0.00     0.072 A 
HETATM    9  C   UNK N   1      31.639  17.298   4.091  0.00  0.00     0.039 A 
HETATM   10  C   UNK N   1      30.416  16.641   4.241  0.00  0.00     0.034 A 
BRANCH   7  11
HETATM   11  C   UNK N   1      33.202  16.778   7.559  0.00  0.00    -0.021 C 
HETATM   12  C   UNK N   1      32.626  15.980   8.718  0.00  0.00     0.019 C 
HETATM   13  C   UNK N   1      33.380  18.221   8.003  0.00  0.00     0.019 C 
HETATM   14  C   UNK N   1      34.587  16.220   7.266  0.00  0.00     0.019 C 
ENDBRANCH   7  11
BRANCH   8  15
HETATM   15  O   UNK N   1      33.680  18.062   5.008  0.00  0.00    -0.360 OA
HETATM   16  H   UNK N   1      34.218  18.396   5.699  0.00  0.00     0.217 HD
ENDBRANCH   8  15
ENDBRANCH   3   5
BRANCH   1  17
HETATM   17  C   UNK N   1      27.897  17.974   5.719  0.00  0.00     0.065 A 
HETATM   18  C   UNK N   1      27.982  18.705   6.939  0.00  0.00     0.065 A 
HETATM   19  C   UNK N   1      27.849  20.103   6.904  0.00  0.00     0.021 A 
HETATM   20  C   UNK N   1      27.622  20.775   5.704  0.00  0.00     0.001 A 
HETATM   21  C   UNK N   1      27.519  20.055   4.515  0.00  0.00     0.002 A 
HETATM   22  C   UNK N   1      27.639  18.664   4.526  0.00  0.00     0.032 A 
BRANCH  18  23
HETATM   23  C   UNK N   1      28.133  18.050   8.269  0.00  0.00     0.178 C 
HETATM   24  O   UNK N   1      28.998  17.203   8.433  0.00  0.00    -0.646 OA
BRANCH  23  25
HETATM   25  O   UNK N   1      27.343  18.380   9.305  0.00  0.00    -0.773 OA
HETATM   26  H   UNK N   1      26.996  19.168   9.677  0.00  0.00     0.167 HD
ENDBRANCH  23  25
ENDBRANCH  18  23
ENDBRANCH   1  17
TORSDOF 6
ENDMDL
MODEL 3
REMARK VINA RESULT:      -6.6     26.699     29.849
REMARK  6 active torsions:
REMARK  status: ('A' for Active; 'I' for Inactive)
REMARK    1  A    between atoms: C_1  and  N_18 
REMARK    2  A    between atoms: C_2  and  C_13 
REMARK    3  A    between atoms: C_7  and  N_20 
REMARK    4  A    between atoms: C_9  and  C_14 
REMARK    5  A    between atoms: C_10  and  O_24 
REMARK    6  A    between atoms: C_13  and  O_23 
ROOT
HETATM    1  N   UNK N   1      25.068  26.511  -5.732  0.00  0.00    -0.299 N 
ATOM      2  HN  UNK N   1      24.189  27.020  -5.833  1.00  0.00     0.187 HD
HETATM    3  N   UNK N   1      24.977  25.300  -5.398  0.00  0.00    -0.300 N 
ATOM      4  HN  UNK N   1      24.080  25.012  -5.007  1.00  0.00     0.187 HD
ENDROOT
BRANCH   3   5
HETATM    5  C   UNK N   1      25.965  24.287  -5.499  0.00  0.00     0.048 A 
HETATM    6  C   UNK N   1      26.892  24.153  -4.453  0.00  0.00     0.041 A 
HETATM    7  C   UNK N   1      28.161  23.568  -4.662  0.00  0.00    -0.015 A 
HETATM    8  C   UNK N   1      28.494  23.117  -5.961  0.00  0.00     0.072 A 
HETATM    9  C   UNK N   1      27.564  23.229  -6.998  0.00  0.00     0.039 A 
HETATM   10  C   UNK N   1      26.330  23.845  -6.776  0.00  0.00     0.034 A 
BRANCH   7  11
HETATM   11  C   UNK N   1      29.186  23.524  -3.530  0.00  0.00    -0.021 C 
HETATM   12  C   UNK N   1      28.456  23.482  -2.197  0.00  0.00     0.019 C 
HETATM   13  C   UNK N   1      30.088  24.747  -3.552  0.00  0.00     0.019 C 
HETATM   14  C   UNK N   1      30.084  22.297  -3.599  0.00  0.00     0.019 C 
ENDBRANCH   7  11
BRANCH   8  15
HETATM   15  O   UNK N   1      29.708  22.599  -6.225  0.00  0.00    -0.360 OA
HETATM   16  H   UNK N   1      30.066  21.812  -5.864  0.00  0.00     0.217 HD
ENDBRANCH   8  15
ENDBRANCH   3   5
BRANCH   1  17
HETATM   17  C   UNK N   1      26.254  27.244  -5.984  0.00  0.00     0.065 A 
HETATM   18  C   UNK N   1      26.687  28.270  -5.095  0.00  0.00     0.065 A 
HETATM   19  C   UNK N   1      27.730  29.121  -5.497  0.00  0.00     0.021 A 
HETATM   20  C   UNK N   1      28.330  28.983  -6.748  0.00  0.00     0.001 A 
HETATM   21  C   UNK N   1      27.890  27.991  -7.623  0.00  0.00     0.002 A 
HETATM   22  C   UNK N   1      26.849  27.139  -7.249  0.00  0.00     0.032 A 
BRANCH  18  23
HETATM   23  C   UNK N   1      26.035  28.536  -3.782  0.00  0.00     0.178 C 
HETATM   24  O   UNK N   1      25.553  27.611  -3.146  0.00  0.00    -0.646 OA
BRANCH  23  25
HETATM   25  O   UNK N   1      25.975  29.777  -3.268  0.00  0.00    -0.773 OA
HETATM   26  H   UNK N   1      25.306  30.363  -2.974  0.00  0.00     0.167 HD
ENDBRANCH  23  25
ENDBRANCH  18  23
ENDBRANCH   1  17
TORSDOF 6
ENDMDL
MODEL 4
REMARK VINA RESULT:      -6.4     17.951     20.772
REMARK  6 active torsions:
REMARK  status: ('A' for Active; 'I' for Inactive)
REMARK    1  A    between atoms: C_1  and  N_18 
REMARK    2  A    between atoms: C_2  and  C_13 
REMARK    3  A    between atoms: C_7  and  N_20 
REMARK    4  A    between atoms: C_9  and  C_14 
REMARK    5  A    between atoms: C_10  and  O_24 
REMARK    6  A    between atoms: C_13  and  O_23 
ROOT
HETATM    1  N   UNK N   1      21.558  17.588   4.481  0.00  0.00    -0.299 N 
ATOM      2  HN  UNK N   1      20.881  17.361   5.210  1.00  0.00     0.187 HD
HETATM    3  N   UNK N   1      22.496  18.361   4.812  0.00  0.00    -0.300 N 
ATOM      4  HN  UNK N   1      22.355  18.890   5.672  1.00  0.00     0.187 HD
ENDROOT
BRANCH   3   5
HETATM    5  C   UNK N   1      23.724  18.585   4.138  0.00  0.00     0.048 A 
HETATM    6  C   UNK N   1      24.867  17.908   4.590  0.00  0.00     0.041 A 
HETATM    7  C   UNK N   1      26.166  18.411   4.352  0.00  0.00    -0.015 A 
HETATM    8  C   UNK N   1      26.301  19.630   3.646  0.00  0.00     0.072 A 
HETATM    9  C   UNK N   1      25.166  20.293   3.175  0.00  0.00     0.039 A 
HETATM   10  C   UNK N   1      23.891  19.796   3.454  0.00  0.00     0.034 A 
BRANCH   7  11
HETATM   11  C   UNK N   1      27.386  17.706   4.941  0.00  0.00    -0.021 C 
HETATM   12  C   UNK N   1      26.933  16.454   5.676  0.00  0.00     0.019 C 
HETATM   13  C   UNK N   1      28.127  18.603   5.919  0.00  0.00     0.019 C 
HETATM   14  C   UNK N   1      28.384  17.273   3.876  0.00  0.00     0.019 C 
ENDBRANCH   7  11
BRANCH   8  15
HETATM   15  O   UNK N   1      27.512  20.178   3.438  0.00  0.00    -0.360 OA
HETATM   16  H   UNK N   1      27.773  21.051   3.659  0.00  0.00     0.217 HD
ENDBRANCH   8  15
ENDBRANCH   3   5
BRANCH   1  17
HETATM   17  C   UNK N   1      21.339  16.999   3.211  0.00  0.00     0.065 A 
HETATM   18  C   UNK N   1      20.327  17.491   2.337  0.00  0.00     0.065 A 
HETATM   19  C   UNK N   1      19.991  16.742   1.198  0.00  0.00     0.021 A 
HETATM   20  C   UNK N   1      20.620  15.528   0.923  0.00  0.00     0.001 A 
HETATM   21  C   UNK N   1      21.595  15.040   1.791  0.00  0.00     0.002 A 
HETATM   22  C   UNK N   1      21.939  15.763   2.935  0.00  0.00     0.032 A 
BRANCH  18  23
HETATM   23  C   UNK N   1      19.550  18.733   2.612  0.00  0.00     0.178 C 
HETATM   24  O   UNK N   1      20.115  19.712   3.074  0.00  0.00    -0.646 OA
BRANCH  23  25
HETATM   25  O   UNK N   1      18.233  18.806   2.350  0.00  0.00    -0.773 OA
HETATM   26  H   UNK N   1      17.536  19.410   2.517  0.00  0.00     0.167 HD
ENDBRANCH  23  25
ENDBRANCH  18  23
ENDBRANCH   1  17
TORSDOF 6
ENDMDL
MODEL 5
REMARK VINA RESULT:      -6.4      5.786      8.306
REMARK  6 active torsions:
REMARK  status: ('A' for Active; 'I' for Inactive)
REMARK    1  A    between atoms: C_1  and  N_18 
REMARK    2  A    between atoms: C_2  and  C_13 
REMARK    3  A    between atoms: C_7  and  N_20 
REMARK    4  A    between atoms: C_9  and  C_14 
REMARK    5  A    between atoms: C_10  and  O_24 
REMARK    6  A    between atoms: C_13  and  O_23 
ROOT
HETATM    1  N   UNK N   1      37.015  12.684  12.810  0.00  0.00    -0.299 N 
ATOM      2  HN  UNK N   1      37.868  12.156  12.997  1.00  0.00     0.187 HD
HETATM    3  N   UNK N   1      37.135  13.692  12.065  0.00  0.00    -0.300 N 
ATOM      4  HN  UNK N   1      38.085  14.039  11.934  1.00  0.00     0.187 HD
ENDROOT
BRANCH   3   5
HETATM    5  C   UNK N   1      36.114  14.403  11.383  0.00  0.00     0.048 A 
HETATM    6  C   UNK N   1      35.685  13.923  10.136  0.00  0.00     0.041 A 
HETATM    7  C   UNK N   1      35.087  14.777   9.182  0.00  0.00    -0.015 A 
HETATM    8  C   UNK N   1      34.928  16.146   9.503  0.00  0.00     0.072 A 
HETATM    9  C   UNK N   1      35.333  16.620  10.753  0.00  0.00     0.039 A 
HETATM   10  C   UNK N   1      35.956  15.765  11.665  0.00  0.00     0.034 A 
BRANCH   7  11
HETATM   11  C   UNK N   1      34.721  14.249   7.796  0.00  0.00    -0.021 C 
HETATM   12  C   UNK N   1      35.063  12.770   7.719  0.00  0.00     0.019 C 
HETATM   13  C   UNK N   1      35.483  14.982   6.704  0.00  0.00     0.019 C 
HETATM   14  C   UNK N   1      33.237  14.391   7.487  0.00  0.00     0.019 C 
ENDBRANCH   7  11
BRANCH   8  15
HETATM   15  O   UNK N   1      34.411  17.011   8.612  0.00  0.00    -0.360 OA
HETATM   16  H   UNK N   1      33.526  17.031   8.305  0.00  0.00     0.217 HD
ENDBRANCH   8  15
ENDBRANCH   3   5
BRANCH   1  17
HETATM   17  C   UNK N   1      35.829  12.202  13.417  0.00  0.00     0.065 A 
HETATM   18  C   UNK N   1      35.522  12.507  14.774  0.00  0.00     0.065 A 
HETATM   19  C   UNK N   1      34.464  11.826  15.400  0.00  0.00     0.021 A 
HETATM   20  C   UNK N   1      33.730  10.856  14.720  0.00  0.00     0.001 A 
HETATM   21  C   UNK N   1      34.047  10.546  13.398  0.00  0.00     0.002 A 
HETATM   22  C   UNK N   1      35.100  11.203  12.758  0.00  0.00     0.032 A 
BRANCH  18  23
HETATM   23  C   UNK N   1      36.317  13.465  15.592  0.00  0.00     0.178 C 
HETATM   24  O   UNK N   1      35.862  13.890  16.643  0.00  0.00    -0.646 OA
BRANCH  23  25
HETATM   25  O   UNK N   1      37.540  13.868  15.205  0.00  0.00    -0.773 OA
HETATM   26  H   UNK N   1      37.916  14.289  14.456  0.00  0.00     0.167 HD
ENDBRANCH  23  25
ENDBRANCH  18  23
ENDBRANCH   1  17
TORSDOF 6
ENDMDL
MODEL 6
REMARK VINA RESULT:      -6.4      3.009      7.069
REMARK  6 active torsions:
REMARK  status: ('A' for Active; 'I' for Inactive)
REMARK    1  A    between atoms: C_1  and  N_18 
REMARK    2  A    between atoms: C_2  and  C_13 
REMARK    3  A    between atoms: C_7  and  N_20 
REMARK    4  A    between atoms: C_9  and  C_14 
REMARK    5  A    between atoms: C_10  and  O_24 
REMARK    6  A    between atoms: C_13  and  O_23 
ROOT
HETATM    1  N   UNK N   1      34.237  11.323  14.017  0.00  0.00    -0.299 N 
ATOM      2  HN  UNK N   1      33.460  11.022  13.427  1.00  0.00     0.187 HD
HETATM    3  N   UNK N   1      33.929  11.885  15.101  0.00  0.00    -0.300 N 
ATOM      4  HN  UNK N   1      32.969  12.223  15.171  1.00  0.00     0.187 HD
ENDROOT
BRANCH   3   5
HETATM    5  C   UNK N   1      34.749  12.106  16.237  0.00  0.00     0.048 A 
HETATM    6  C   UNK N   1      35.025  11.019  17.082  0.00  0.00     0.041 A 
HETATM    7  C   UNK N   1      35.373  11.208  18.438  0.00  0.00    -0.015 A 
HETATM    8  C   UNK N   1      35.435  12.529  18.944  0.00  0.00     0.072 A 
HETATM    9  C   UNK N   1      35.184  13.612  18.098  0.00  0.00     0.039 A 
HETATM   10  C   UNK N   1      34.806  13.399  16.771  0.00  0.00     0.034 A 
BRANCH   7  11
HETATM   11  C   UNK N   1      35.570  10.006  19.359  0.00  0.00    -0.021 C 
HETATM   12  C   UNK N   1      35.374   8.727  18.560  0.00  0.00     0.019 C 
HETATM   13  C   UNK N   1      34.576  10.019  20.508  0.00  0.00     0.019 C 
HETATM   14  C   UNK N   1      36.965   9.955  19.967  0.00  0.00     0.019 C 
ENDBRANCH   7  11
BRANCH   8  15
HETATM   15  O   UNK N   1      35.712  12.762  20.240  0.00  0.00    -0.360 OA
HETATM   16  H   UNK N   1      35.115  12.686  20.958  0.00  0.00     0.217 HD
ENDBRANCH   8  15
ENDBRANCH   3   5
BRANCH   1  17
HETATM   17  C   UNK N   1      35.540  11.063  13.526  0.00  0.00     0.065 A 
HETATM   18  C   UNK N   1      36.335  12.103  12.962  0.00  0.00     0.065 A 
HETATM   19  C   UNK N   1      37.517  11.762  12.284  0.00  0.00     0.021 A 
HETATM   20  C   UNK N   1      37.908  10.431  12.144  0.00  0.00     0.001 A 
HETATM   21  C   UNK N   1      37.117   9.415  12.679  0.00  0.00     0.002 A 
HETATM   22  C   UNK N   1      35.934   9.730  13.350  0.00  0.00     0.032 A 
BRANCH  18  23
HETATM   23  C   UNK N   1      35.936  13.538  12.993  0.00  0.00     0.178 C 
HETATM   24  O   UNK N   1      34.792  13.856  12.706  0.00  0.00    -0.646 OA
BRANCH  23  25
HETATM   25  O   UNK N   1      36.808  14.499  13.345  0.00  0.00    -0.773 OA
HETATM   26  H   UNK N   1      37.310  14.721  14.105  0.00  0.00     0.167 HD
ENDBRANCH  23  25
ENDBRANCH  18  23
ENDBRANCH   1  17
TORSDOF 6
ENDMDL
MODEL 7
REMARK VINA RESULT:      -6.3     10.658     12.786
REMARK  6 active torsions:
REMARK  status: ('A' for Active; 'I' for Inactive)
REMARK    1  A    between atoms: C_1  and  N_18 
REMARK    2  A    between atoms: C_2  and  C_13 
REMARK    3  A    between atoms: C_7  and  N_20 
REMARK    4  A    between atoms: C_9  and  C_14 
REMARK    5  A    between atoms: C_10  and  O_24 
REMARK    6  A    between atoms: C_13  and  O_23 
ROOT
HETATM    1  N   UNK N   1      32.871  14.942  10.234  0.00  0.00    -0.299 N 
ATOM      2  HN  UNK N   1      32.786  14.709  11.224  1.00  0.00     0.187 HD
HETATM    3  N   UNK N   1      32.021  15.751   9.777  0.00  0.00    -0.300 N 
ATOM      4  HN  UNK N   1      31.187  15.891  10.347  1.00  0.00     0.187 HD
ENDROOT
BRANCH   3   5
HETATM    5  C   UNK N   1      32.081  16.493   8.569  0.00  0.00     0.048 A 
HETATM    6  C   UNK N   1      31.706  15.856   7.376  0.00  0.00     0.041 A 
HETATM    7  C   UNK N   1      32.188  16.293   6.122  0.00  0.00    -0.015 A 
HETATM    8  C   UNK N   1      33.074  17.397   6.084  0.00  0.00     0.072 A 
HETATM    9  C   UNK N   1      33.429  18.047   7.268  0.00  0.00     0.039 A 
HETATM   10  C   UNK N   1      32.969  17.573   8.499  0.00  0.00     0.034 A 
BRANCH   7  11
HETATM   11  C   UNK N   1      31.844  15.521   4.850  0.00  0.00    -0.021 C 
HETATM   12  C   UNK N   1      30.816  14.449   5.179  0.00  0.00     0.019 C 
HETATM   13  C   UNK N   1      33.073  14.850   4.258  0.00  0.00     0.019 C 
HETATM   14  C   UNK N   1      31.246  16.409   3.768  0.00  0.00     0.019 C 
ENDBRANCH   7  11
BRANCH   8  15
HETATM   15  O   UNK N   1      33.602  17.822   4.922  0.00  0.00    -0.360 OA
HETATM   16  H   UNK N   1      33.675  18.711   4.636  0.00  0.00     0.217 HD
ENDBRANCH   8  15
ENDBRANCH   3   5
BRANCH   1  17
HETATM   17  C   UNK N   1      33.931  14.321   9.529  0.00  0.00     0.065 A 
HETATM   18  C   UNK N   1      35.253  14.849   9.573  0.00  0.00     0.065 A 
HETATM   19  C   UNK N   1      36.217  14.343   8.684  0.00  0.00     0.021 A 
HETATM   20  C   UNK N   1      35.892  13.351   7.759  0.00  0.00     0.001 A 
HETATM   21  C   UNK N   1      34.592  12.852   7.705  0.00  0.00     0.002 A 
HETATM   22  C   UNK N   1      33.615  13.346   8.573  0.00  0.00     0.032 A 
BRANCH  18  23
HETATM   23  C   UNK N   1      35.651  15.969  10.471  0.00  0.00     0.178 C 
HETATM   24  O   UNK N   1      36.824  16.113  10.778  0.00  0.00    -0.646 OA
BRANCH  23  25
HETATM   25  O   UNK N   1      34.744  16.841  10.946  0.00  0.00    -0.773 OA
HETATM   26  H   UNK N   1      34.620  17.770  10.938  0.00  0.00     0.167 HD
ENDBRANCH  23  25
ENDBRANCH  18  23
ENDBRANCH   1  17
TORSDOF 6
ENDMDL
MODEL 8
REMARK VINA RESULT:      -6.3     13.974     16.052
REMARK  6 active torsions:
REMARK  status: ('A' for Active; 'I' for Inactive)
REMARK    1  A    between atoms: C_1  and  N_18 
REMARK    2  A    between atoms: C_2  and  C_13 
REMARK    3  A    between atoms: C_7  and  N_20 
REMARK    4  A    between atoms: C_9  and  C_14 
REMARK    5  A    between atoms: C_10  and  O_24 
REMARK    6  A    between atoms: C_13  and  O_23 
ROOT
HETATM    1  N   UNK N   1      28.109  17.413   7.652  0.00  0.00    -0.299 N 
ATOM      2  HN  UNK N   1      27.359  16.810   7.992  1.00  0.00     0.187 HD
HETATM    3  N   UNK N   1      29.266  17.158   8.078  0.00  0.00    -0.300 N 
ATOM      4  HN  UNK N   1      29.315  16.563   8.905  1.00  0.00     0.187 HD
ENDROOT
BRANCH   3   5
HETATM    5  C   UNK N   1      30.509  17.593   7.551  0.00  0.00     0.048 A 
HETATM    6  C   UNK N   1      30.952  17.037   6.340  0.00  0.00     0.041 A 
HETATM    7  C   UNK N   1      32.323  17.002   6.001  0.00  0.00    -0.015 A 
HETATM    8  C   UNK N   1      33.261  17.538   6.915  0.00  0.00     0.072 A 
HETATM    9  C   UNK N   1      32.820  18.113   8.110  0.00  0.00     0.039 A 
HETATM   10  C   UNK N   1      31.463  18.102   8.440  0.00  0.00     0.034 A 
BRANCH   7  11
HETATM   11  C   UNK N   1      32.784  16.303   4.724  0.00  0.00    -0.021 C 
HETATM   12  C   UNK N   1      33.033  17.347   3.646  0.00  0.00     0.019 C 
HETATM   13  C   UNK N   1      31.739  15.322   4.220  0.00  0.00     0.019 C 
HETATM   14  C   UNK N   1      34.080  15.527   4.915  0.00  0.00     0.019 C 
ENDBRANCH   7  11
BRANCH   8  15
HETATM   15  O   UNK N   1      34.581  17.484   6.664  0.00  0.00    -0.360 OA
HETATM   16  H   UNK N   1      34.988  17.122   5.901  0.00  0.00     0.217 HD
ENDBRANCH   8  15
ENDBRANCH   3   5
BRANCH   1  17
HETATM   17  C   UNK N   1      27.733  18.444   6.756  0.00  0.00     0.065 A 
HETATM   18  C   UNK N   1      27.609  18.194   5.358  0.00  0.00     0.065 A 
HETATM   19  C   UNK N   1      27.462  19.284   4.484  0.00  0.00     0.021 A 
HETATM   20  C   UNK N   1      27.451  20.594   4.963  0.00  0.00     0.001 A 
HETATM   21  C   UNK N   1      27.593  20.835   6.328  0.00  0.00     0.002 A 
HETATM   22  C   UNK N   1      27.749  19.768   7.215  0.00  0.00     0.032 A 
BRANCH  18  23
HETATM   23  C   UNK N   1      27.702  16.830   4.765  0.00  0.00     0.178 C 
HETATM   24  O   UNK N   1      28.331  16.660   3.733  0.00  0.00    -0.646 OA
BRANCH  23  25
HETATM   25  O   UNK N   1      27.116  15.771   5.351  0.00  0.00    -0.773 OA
HETATM   26  H   UNK N   1      26.780  15.560   6.200  0.00  0.00     0.167 HD
ENDBRANCH  23  25
ENDBRANCH  18  23
ENDBRANCH   1  17
TORSDOF 6
ENDMDL
MODEL 9
REMARK VINA RESULT:      -6.3     25.899     29.204
REMARK  6 active torsions:
REMARK  status: ('A' for Active; 'I' for Inactive)
REMARK    1  A    between atoms: C_1  and  N_18 
REMARK    2  A    between atoms: C_2  and  C_13 
REMARK    3  A    between atoms: C_7  and  N_20 
REMARK    4  A    between atoms: C_9  and  C_14 
REMARK    5  A    between atoms: C_10  and  O_24 
REMARK    6  A    between atoms: C_13  and  O_23 
ROOT
HETATM    1  N   UNK N   1      25.701  24.908  -5.838  0.00  0.00    -0.299 N 
ATOM      2  HN  UNK N   1      25.028  24.619  -6.549  1.00  0.00     0.187 HD
HETATM    3  N   UNK N   1      26.226  23.986  -5.160  0.00  0.00    -0.300 N 
ATOM      4  HN  UNK N   1      25.753  23.084  -5.192  1.00  0.00     0.187 HD
ENDROOT
BRANCH   3   5
HETATM    5  C   UNK N   1      27.395  24.047  -4.358  0.00  0.00     0.048 A 
HETATM    6  C   UNK N   1      28.576  23.473  -4.855  0.00  0.00     0.041 A 
HETATM    7  C   UNK N   1      29.604  23.035  -3.991  0.00  0.00    -0.015 A 
HETATM    8  C   UNK N   1      29.423  23.179  -2.595  0.00  0.00     0.072 A 
HETATM    9  C   UNK N   1      28.259  23.771  -2.099  0.00  0.00     0.039 A 
HETATM   10  C   UNK N   1      27.240  24.163  -2.971  0.00  0.00     0.034 A 
BRANCH   7  11
HETATM   11  C   UNK N   1      30.834  22.324  -4.553  0.00  0.00    -0.021 C 
HETATM   12  C   UNK N   1      30.742  22.292  -6.070  0.00  0.00     0.019 C 
HETATM   13  C   UNK N   1      30.931  20.896  -4.041  0.00  0.00     0.019 C 
HETATM   14  C   UNK N   1      32.135  23.026  -4.190  0.00  0.00     0.019 C 
ENDBRANCH   7  11
BRANCH   8  15
HETATM   15  O   UNK N   1      30.349  22.731  -1.726  0.00  0.00    -0.360 OA
HETATM   16  H   UNK N   1      31.241  22.523  -1.923  0.00  0.00     0.217 HD
ENDBRANCH   8  15
ENDBRANCH   3   5
BRANCH   1  17
HETATM   17  C   UNK N   1      25.939  26.300  -5.724  0.00  0.00     0.065 A 
HETATM   18  C   UNK N   1      26.842  26.966  -6.602  0.00  0.00     0.065 A 
HETATM   19  C   UNK N   1      27.221  28.287  -6.311  0.00  0.00     0.021 A 
HETATM   20  C   UNK N   1      26.740  28.941  -5.177  0.00  0.00     0.001 A 
HETATM   21  C   UNK N   1      25.873  28.279  -4.310  0.00  0.00     0.002 A 
HETATM   22  C   UNK N   1      25.489  26.963  -4.574  0.00  0.00     0.032 A 
BRANCH  18  23
HETATM   23  C   UNK N   1      27.466  26.303  -7.781  0.00  0.00     0.178 C 
HETATM   24  O   UNK N   1      27.775  25.123  -7.721  0.00  0.00    -0.646 OA
BRANCH  23  25
HETATM   25  O   UNK N   1      27.689  26.974  -8.925  0.00  0.00    -0.773 OA
HETATM   26  H   UNK N   1      28.425  27.163  -9.474  0.00  0.00     0.167 HD
ENDBRANCH  23  25
ENDBRANCH  18  23
ENDBRANCH   1  17
TORSDOF 6
ENDMDL
