REMARK  6 active torsions:
REMARK  status: ('A' for Active; 'I' for Inactive)
REMARK    1  A    between atoms: C_1  and  N_18 
REMARK    2  A    between atoms: C_2  and  C_13 
REMARK    3  A    between atoms: C_7  and  N_20 
REMARK    4  A    between atoms: C_9  and  C_14 
REMARK    5  A    between atoms: C_10  and  O_24 
REMARK    6  A    between atoms: C_13  and  O_23 
ROOT
HETATM    1  N   UNK N   1       0.917  -1.787  -1.736  0.00  0.00    -0.299 N 
ATOM      2  HN  UNK N   1       0.864  -2.240  -2.649  1.00  0.00     0.187 HD
HETATM    3  N   UNK N   1       1.068  -0.537  -1.741  0.00  0.00    -0.300 N 
ATOM      4  HN  UNK N   1       1.384  -0.130  -2.621  1.00  0.00     0.187 HD
ENDROOT
BRANCH   3   5
HETATM    5  C   UNK N   1       0.852   0.375  -0.676  0.00  0.00     0.048 A 
HETATM    6  C   UNK N   1      -0.453   0.839  -0.449  0.00  0.00     0.041 A 
HETATM    7  C   UNK N   1      -0.697   2.069   0.202  0.00  0.00    -0.015 A 
HETATM    8  C   UNK N   1       0.410   2.843   0.624  0.00  0.00     0.072 A 
HETATM    9  C   UNK N   1       1.709   2.372   0.420  0.00  0.00     0.039 A 
HETATM   10  C   UNK N   1       1.926   1.171  -0.259  0.00  0.00     0.034 A 
BRANCH   7  11
HETATM   11  C   UNK N   1      -2.123   2.596   0.347  0.00  0.00    -0.021 C 
HETATM   12  C   UNK N   1      -2.301   3.809  -0.553  0.00  0.00     0.019 C 
HETATM   13  C   UNK N   1      -2.420   3.006   1.780  0.00  0.00     0.019 C 
HETATM   14  C   UNK N   1      -3.172   1.570  -0.058  0.00  0.00     0.019 C 
ENDBRANCH   7  11
BRANCH   8  15
HETATM   15  O   UNK N   1       0.234   4.045   1.203  0.00  0.00    -0.360 OA
HETATM   16  H   UNK N   1       0.897   4.570   1.607  0.00  0.00     0.217 HD
ENDBRANCH   8  15
ENDBRANCH   3   5
BRANCH   1  17
HETATM   17  C   UNK N   1       0.813  -2.634  -0.605  0.00  0.00     0.065 A 
HETATM   18  C   UNK N   1       1.973  -3.062   0.103  0.00  0.00     0.065 A 
HETATM   19  C   UNK N   1       1.845  -4.076   1.067  0.00  0.00     0.021 A 
HETATM   20  C   UNK N   1       0.611  -4.672   1.325  0.00  0.00     0.001 A 
HETATM   21  C   UNK N   1      -0.518  -4.265   0.616  0.00  0.00     0.002 A 
HETATM   22  C   UNK N   1      -0.413  -3.265  -0.353  0.00  0.00     0.032 A 
BRANCH  18  23
HETATM   23  C   UNK N   1       3.338  -2.536  -0.181  0.00  0.00     0.178 C 
HETATM   24  O   UNK N   1       4.301  -2.997   0.412  0.00  0.00    -0.646 OA
BRANCH  23  25
HETATM   25  O   UNK N   1       3.539  -1.567  -1.091  0.00  0.00    -0.773 OA
HETATM   26  H   UNK N   1       4.194  -1.351  -1.726  0.00  0.00     0.167 HD
ENDBRANCH  23  25
ENDBRANCH  18  23
ENDBRANCH   1  17
TORSDOF 6
