REMARK  5 active torsions:
REMARK  status: ('A' for Active; 'I' for Inactive)
REMARK    1  A    between atoms: C_3  and  C_22 
REMARK    2  A    between atoms: C_17  and  C_20 
REMARK    3  A    between atoms: C_25  and  C_20 
REMARK    4  A    between atoms: C_22  and  O_24 
REMARK    5  A    between atoms: O_31  and  C_28 
ROOT
HETATM    1  C   UNK N   1       3.117  -0.492   0.702  0.00  0.00     0.019 C 
HETATM    2  C   UNK N   1       4.639  -0.540   0.508  0.00  0.00     0.046 C 
HETATM    3  C   UNK N   1       5.132  -1.810  -0.163  0.00  0.00     0.016 C 
HETATM    4  C   UNK N   1       4.268  -2.739  -0.649  0.00  0.00     0.021 C 
HETATM    5  C   UNK N   1       2.809  -2.468  -0.652  0.00  0.00    -0.052 C 
HETATM    6  C   UNK N   1       1.922  -3.484  -0.692  0.00  0.00    -0.018 C 
HETATM    7  C   UNK N   1       0.421  -3.272  -0.666  0.00  0.00     0.033 C 
HETATM    8  C   UNK N   1       0.012  -1.991   0.074  0.00  0.00    -0.001 C 
HETATM    9  C   UNK N   1       0.863  -0.821  -0.498  0.00  0.00     0.003 C 
HETATM   10  C   UNK N   1       2.393  -1.022  -0.541  0.00  0.00    -0.013 C 
HETATM   11  C   UNK N   1       0.536   0.484   0.224  0.00  0.00     0.007 C 
HETATM   12  C   UNK N   1      -0.901   0.834  -0.010  0.00  0.00     0.011 C 
HETATM   13  C   UNK N   1      -1.871  -0.271   0.365  0.00  0.00    -0.029 C 
HETATM   14  C   UNK N   1      -1.470  -1.609  -0.251  0.00  0.00    -0.001 C 
HETATM   15  C   UNK N   1      -2.681  -2.483   0.083  0.00  0.00     0.006 C 
HETATM   16  C   UNK N   1      -3.885  -1.485   0.036  0.00  0.00     0.013 C 
HETATM   17  C   UNK N   1      -3.263  -0.104  -0.267  0.00  0.00     0.069 C 
HETATM   18  C   UNK N   1      -1.943  -0.347   1.905  0.00  0.00     0.016 C 
HETATM   19  C   UNK N   1       2.906  -0.247  -1.769  0.00  0.00     0.021 C 
ENDROOT
BRANCH  17  20
HETATM   20  C   UNK N   1      -3.977   1.164   0.188  0.00  0.00     0.164 C 
HETATM   21  O   UNK N   1      -4.974   1.086   0.890  0.00  0.00    -0.292 OA
BRANCH  20  22
HETATM   22  C   UNK N   1      -3.382   2.502  -0.132  0.00  0.00     0.010 A 
HETATM   23  C   UNK N   1      -3.576   3.586   0.735  0.00  0.00     0.018 A 
HETATM   24  C   UNK N   1      -2.834   4.765   0.563  0.00  0.00     0.037 A 
HETATM   25  C   UNK N   1      -1.902   4.868  -0.476  0.00  0.00     0.065 A 
HETATM   26  C   UNK N   1      -1.757   3.823  -1.385  0.00  0.00     0.037 A 
HETATM   27  C   UNK N   1      -2.498   2.653  -1.218  0.00  0.00     0.018 A 
BRANCH  25  28
HETATM   28  O   UNK N   1      -1.143   5.970  -0.597  0.00  0.00    -0.361 OA
HETATM   29  H   UNK N   1      -0.213   5.896  -0.681  0.00  0.00     0.217 HD
ENDBRANCH  25  28
ENDBRANCH  20  22
ENDBRANCH  17  20
BRANCH   3  30
HETATM   30  C   UNK N   1       6.591  -2.000  -0.294  0.00  0.00     0.172 C 
HETATM   31  O   UNK N   1       7.043  -2.980  -0.858  0.00  0.00    -0.646 OA
BRANCH  30  32
HETATM   32  O   UNK N   1       7.433  -1.060   0.185  0.00  0.00    -0.773 OA
HETATM   33  H   UNK N   1       8.291  -1.241   0.517  0.00  0.00     0.167 HD
ENDBRANCH  30  32
ENDBRANCH   3  30
TORSDOF 5
