MODEL 1
REMARK VINA RESULT:      -9.0      0.000      0.000
REMARK  5 active torsions:
REMARK  status: ('A' for Active; 'I' for Inactive)
REMARK    1  A    between atoms: C_3  and  C_22 
REMARK    2  A    between atoms: C_17  and  C_20 
REMARK    3  A    between atoms: C_25  and  C_20 
REMARK    4  A    between atoms: C_22  and  O_24 
REMARK    5  A    between atoms: O_31  and  C_28 
ROOT
HETATM    1  C   UNK N   1      23.139  17.593   4.230  0.00  0.00     0.019 C 
HETATM    2  C   UNK N   1      23.195  19.078   3.843  0.00  0.00     0.046 C 
HETATM    3  C   UNK N   1      21.913  19.597   3.217  0.00  0.00     0.016 C 
HETATM    4  C   UNK N   1      20.797  18.826   3.139  0.00  0.00     0.021 C 
HETATM    5  C   UNK N   1      20.767  17.492   3.789  0.00  0.00    -0.052 C 
HETATM    6  C   UNK N   1      19.900  16.545   3.374  0.00  0.00    -0.018 C 
HETATM    7  C   UNK N   1      19.844  15.155   3.976  0.00  0.00     0.033 C 
HETATM    8  C   UNK N   1      21.195  14.694   4.540  0.00  0.00    -0.001 C 
HETATM    9  C   UNK N   1      21.733  15.824   5.464  0.00  0.00     0.003 C 
HETATM   10  C   UNK N   1      21.790  17.248   4.871  0.00  0.00    -0.013 C 
HETATM   11  C   UNK N   1      23.100  15.448   6.030  0.00  0.00     0.007 C 
HETATM   12  C   UNK N   1      22.967  14.219   6.876  0.00  0.00     0.011 C 
HETATM   13  C   UNK N   1      22.317  13.050   6.160  0.00  0.00    -0.029 C 
HETATM   14  C   UNK N   1      21.013  13.456   5.480  0.00  0.00    -0.001 C 
HETATM   15  C   UNK N   1      20.459  12.103   5.029  0.00  0.00     0.006 C 
HETATM   16  C   UNK N   1      20.943  11.114   6.141  0.00  0.00     0.013 C 
HETATM   17  C   UNK N   1      21.783  11.968   7.114  0.00  0.00     0.069 C 
HETATM   18  C   UNK N   1      23.335  12.476   5.152  0.00  0.00     0.016 C 
HETATM   19  C   UNK N   1      21.543  18.223   6.037  0.00  0.00     0.021 C 
ENDROOT
BRANCH  17  20
HETATM   20  C   UNK N   1      22.880  11.311   7.945  0.00  0.00     0.164 C 
HETATM   21  O   UNK N   1      23.624  10.488   7.434  0.00  0.00    -0.292 OA
BRANCH  20  22
HETATM   22  C   UNK N   1      23.112  11.767   9.354  0.00  0.00     0.010 A 
HETATM   23  C   UNK N   1      22.030  11.941  10.227  0.00  0.00     0.018 A 
HETATM   24  C   UNK N   1      22.257  12.137  11.598  0.00  0.00     0.037 A 
HETATM   25  C   UNK N   1      23.563  12.166  12.101  0.00  0.00     0.065 A 
HETATM   26  C   UNK N   1      24.645  12.067  11.229  0.00  0.00     0.037 A 
HETATM   27  C   UNK N   1      24.420  11.878   9.866  0.00  0.00     0.018 A 
BRANCH  25  28
HETATM   28  O   UNK N   1      23.777  12.283  13.422  0.00  0.00    -0.361 OA
HETATM   29  H   UNK N   1      23.098  12.072  14.031  0.00  0.00     0.217 HD
ENDBRANCH  25  28
ENDBRANCH  20  22
ENDBRANCH  17  20
BRANCH   3  30
HETATM   30  C   UNK N   1      21.905  20.984   2.710  0.00  0.00     0.172 C 
HETATM   31  O   UNK N   1      22.859  21.719   2.891  0.00  0.00    -0.646 OA
BRANCH  30  32
HETATM   32  O   UNK N   1      20.843  21.432   2.006  0.00  0.00    -0.773 OA
HETATM   33  H   UNK N   1      20.315  20.894   1.450  0.00  0.00     0.167 HD
ENDBRANCH  30  32
ENDBRANCH   3  30
TORSDOF 5
ENDMDL
MODEL 2
REMARK VINA RESULT:      -8.6     15.142     18.304
REMARK  5 active torsions:
REMARK  status: ('A' for Active; 'I' for Inactive)
REMARK    1  A    between atoms: C_3  and  C_22 
REMARK    2  A    between atoms: C_17  and  C_20 
REMARK    3  A    between atoms: C_25  and  C_20 
REMARK    4  A    between atoms: C_22  and  O_24 
REMARK    5  A    between atoms: O_31  and  C_28 
ROOT
HETATM    1  C   UNK N   1      30.641  21.645  -3.893  0.00  0.00     0.019 C 
HETATM    2  C   UNK N   1      31.926  20.965  -3.398  0.00  0.00     0.046 C 
HETATM    3  C   UNK N   1      32.579  20.063  -4.430  0.00  0.00     0.016 C 
HETATM    4  C   UNK N   1      32.114  19.988  -5.705  0.00  0.00     0.021 C 
HETATM    5  C   UNK N   1      31.029  20.893  -6.155  0.00  0.00    -0.052 C 
HETATM    6  C   UNK N   1      30.255  20.566  -7.211  0.00  0.00    -0.018 C 
HETATM    7  C   UNK N   1      29.112  21.434  -7.698  0.00  0.00     0.033 C 
HETATM    8  C   UNK N   1      28.481  22.274  -6.579  0.00  0.00    -0.001 C 
HETATM    9  C   UNK N   1      29.631  23.006  -5.830  0.00  0.00     0.003 C 
HETATM   10  C   UNK N   1      30.808  22.140  -5.334  0.00  0.00    -0.013 C 
HETATM   11  C   UNK N   1      29.077  23.833  -4.672  0.00  0.00     0.007 C 
HETATM   12  C   UNK N   1      28.163  24.890  -5.209  0.00  0.00     0.011 C 
HETATM   13  C   UNK N   1      27.053  24.351  -6.093  0.00  0.00    -0.029 C 
HETATM   14  C   UNK N   1      27.593  23.418  -7.173  0.00  0.00    -0.001 C 
HETATM   15  C   UNK N   1      26.352  23.188  -8.038  0.00  0.00     0.006 C 
HETATM   16  C   UNK N   1      25.574  24.542  -7.941  0.00  0.00     0.013 C 
HETATM   17  C   UNK N   1      26.404  25.425  -6.983  0.00  0.00     0.069 C 
HETATM   18  C   UNK N   1      26.018  23.647  -5.191  0.00  0.00     0.016 C 
HETATM   19  C   UNK N   1      32.067  23.025  -5.401  0.00  0.00     0.021 C 
ENDROOT
BRANCH  17  20
HETATM   20  C   UNK N   1      25.717  26.527  -6.184  0.00  0.00     0.164 C 
HETATM   21  O   UNK N   1      24.635  26.317  -5.657  0.00  0.00    -0.292 OA
BRANCH  20  22
HETATM   22  C   UNK N   1      26.431  27.824  -5.951  0.00  0.00     0.010 A 
HETATM   23  C   UNK N   1      26.175  28.572  -4.793  0.00  0.00     0.018 A 
HETATM   24  C   UNK N   1      27.002  29.656  -4.460  0.00  0.00     0.037 A 
HETATM   25  C   UNK N   1      28.082  30.000  -5.281  0.00  0.00     0.065 A 
HETATM   26  C   UNK N   1      28.298  29.307  -6.470  0.00  0.00     0.037 A 
HETATM   27  C   UNK N   1      27.473  28.234  -6.805  0.00  0.00     0.018 A 
BRANCH  25  28
HETATM   28  O   UNK N   1      28.914  30.992  -4.925  0.00  0.00    -0.361 OA
HETATM   29  H   UNK N   1      29.827  30.937  -5.123  0.00  0.00     0.217 HD
ENDBRANCH  25  28
ENDBRANCH  20  22
ENDBRANCH  17  20
BRANCH   3  30
HETATM   30  C   UNK N   1      33.759  19.278  -4.013  0.00  0.00     0.172 C 
HETATM   31  O   UNK N   1      34.873  19.767  -4.040  0.00  0.00    -0.646 OA
BRANCH  30  32
HETATM   32  O   UNK N   1      33.596  18.015  -3.564  0.00  0.00    -0.773 OA
HETATM   33  H   UNK N   1      32.831  17.709  -3.116  0.00  0.00     0.167 HD
ENDBRANCH  30  32
ENDBRANCH   3  30
TORSDOF 5
ENDMDL
MODEL 3
REMARK VINA RESULT:      -8.2      8.286     12.020
REMARK  5 active torsions:
REMARK  status: ('A' for Active; 'I' for Inactive)
REMARK    1  A    between atoms: C_3  and  C_22 
REMARK    2  A    between atoms: C_17  and  C_20 
REMARK    3  A    between atoms: C_25  and  C_20 
REMARK    4  A    between atoms: C_22  and  O_24 
REMARK    5  A    between atoms: O_31  and  C_28 
ROOT
HETATM    1  C   UNK N   1      32.782  15.857   9.072  0.00  0.00     0.019 C 
HETATM    2  C   UNK N   1      34.013  15.564   9.941  0.00  0.00     0.046 C 
HETATM    3  C   UNK N   1      35.247  15.175   9.146  0.00  0.00     0.016 C 
HETATM    4  C   UNK N   1      35.260  15.218   7.788  0.00  0.00     0.021 C 
HETATM    5  C   UNK N   1      34.100  15.776   7.050  0.00  0.00    -0.052 C 
HETATM    6  C   UNK N   1      33.876  15.437   5.763  0.00  0.00    -0.018 C 
HETATM    7  C   UNK N   1      32.692  15.949   4.967  0.00  0.00     0.033 C 
HETATM    8  C   UNK N   1      31.476  16.270   5.847  0.00  0.00    -0.001 C 
HETATM    9  C   UNK N   1      31.961  17.172   7.017  0.00  0.00     0.003 C 
HETATM   10  C   UNK N   1      33.172  16.671   7.833  0.00  0.00    -0.013 C 
HETATM   11  C   UNK N   1      30.805  17.499   7.959  0.00  0.00     0.007 C 
HETATM   12  C   UNK N   1      29.762  18.273   7.215  0.00  0.00     0.011 C 
HETATM   13  C   UNK N   1      29.276  17.589   5.949  0.00  0.00    -0.029 C 
HETATM   14  C   UNK N   1      30.439  17.144   5.066  0.00  0.00    -0.001 C 
HETATM   15  C   UNK N   1      29.713  16.695   3.796  0.00  0.00     0.006 C 
HETATM   16  C   UNK N   1      28.479  17.653   3.714  0.00  0.00     0.013 C 
HETATM   17  C   UNK N   1      28.563  18.541   4.975  0.00  0.00     0.069 C 
HETATM   18  C   UNK N   1      28.377  16.403   6.357  0.00  0.00     0.016 C 
HETATM   19  C   UNK N   1      33.940  17.923   8.297  0.00  0.00     0.021 C 
ENDROOT
BRANCH  17  20
HETATM   20  C   UNK N   1      27.293  19.151   5.558  0.00  0.00     0.164 C 
HETATM   21  O   UNK N   1      27.305  19.629   6.682  0.00  0.00    -0.292 OA
BRANCH  20  22
HETATM   22  C   UNK N   1      26.068  19.266   4.701  0.00  0.00     0.010 A 
HETATM   23  C   UNK N   1      24.962  18.438   4.938  0.00  0.00     0.018 A 
HETATM   24  C   UNK N   1      23.740  18.699   4.299  0.00  0.00     0.037 A 
HETATM   25  C   UNK N   1      23.619  19.781   3.419  0.00  0.00     0.065 A 
HETATM   26  C   UNK N   1      24.733  20.562   3.123  0.00  0.00     0.037 A 
HETATM   27  C   UNK N   1      25.950  20.300   3.753  0.00  0.00     0.018 A 
BRANCH  25  28
HETATM   28  O   UNK N   1      22.431  20.071   2.863  0.00  0.00    -0.361 OA
HETATM   29  H   UNK N   1      21.904  19.391   2.493  0.00  0.00     0.217 HD
ENDBRANCH  25  28
ENDBRANCH  20  22
ENDBRANCH  17  20
BRANCH   3  30
HETATM   30  C   UNK N   1      36.452  14.766   9.896  0.00  0.00     0.172 C 
HETATM   31  O   UNK N   1      36.823  13.606   9.894  0.00  0.00    -0.646 OA
BRANCH  30  32
HETATM   32  O   UNK N   1      37.171  15.694  10.562  0.00  0.00    -0.773 OA
HETATM   33  H   UNK N   1      37.886  15.495  11.135  0.00  0.00     0.167 HD
ENDBRANCH  30  32
ENDBRANCH   3  30
TORSDOF 5
ENDMDL
MODEL 4
REMARK VINA RESULT:      -8.1      6.240      7.917
REMARK  5 active torsions:
REMARK  status: ('A' for Active; 'I' for Inactive)
REMARK    1  A    between atoms: C_3  and  C_22 
REMARK    2  A    between atoms: C_17  and  C_20 
REMARK    3  A    between atoms: C_25  and  C_20 
REMARK    4  A    between atoms: C_22  and  O_24 
REMARK    5  A    between atoms: O_31  and  C_28 
ROOT
HETATM    1  C   UNK N   1      23.169  15.792   6.417  0.00  0.00     0.019 C 
HETATM    2  C   UNK N   1      21.673  15.453   6.369  0.00  0.00     0.046 C 
HETATM    3  C   UNK N   1      20.880  16.310   5.398  0.00  0.00     0.016 C 
HETATM    4  C   UNK N   1      21.492  17.198   4.571  0.00  0.00     0.021 C 
HETATM    5  C   UNK N   1      22.973  17.255   4.506  0.00  0.00    -0.052 C 
HETATM    6  C   UNK N   1      23.599  18.369   4.073  0.00  0.00    -0.018 C 
HETATM    7  C   UNK N   1      25.108  18.499   4.013  0.00  0.00     0.033 C 
HETATM    8  C   UNK N   1      25.823  17.635   5.061  0.00  0.00    -0.001 C 
HETATM    9  C   UNK N   1      25.251  16.192   4.956  0.00  0.00     0.003 C 
HETATM   10  C   UNK N   1      23.716  16.041   5.006  0.00  0.00    -0.013 C 
HETATM   11  C   UNK N   1      25.892  15.284   6.003  0.00  0.00     0.007 C 
HETATM   12  C   UNK N   1      27.364  15.190   5.744  0.00  0.00     0.011 C 
HETATM   13  C   UNK N   1      28.061  16.535   5.670  0.00  0.00    -0.029 C 
HETATM   14  C   UNK N   1      27.344  17.493   4.722  0.00  0.00    -0.001 C 
HETATM   15  C   UNK N   1      28.328  18.663   4.654  0.00  0.00     0.006 C 
HETATM   16  C   UNK N   1      29.729  17.979   4.792  0.00  0.00     0.013 C 
HETATM   17  C   UNK N   1      29.436  16.475   4.984  0.00  0.00     0.069 C 
HETATM   18  C   UNK N   1      28.156  17.109   7.100  0.00  0.00     0.016 C 
HETATM   19  C   UNK N   1      23.363  14.827   4.127  0.00  0.00     0.021 C 
ENDROOT
BRANCH  17  20
HETATM   20  C   UNK N   1      30.437  15.598   5.727  0.00  0.00     0.164 C 
HETATM   21  O   UNK N   1      30.282  14.386   5.759  0.00  0.00    -0.292 OA
BRANCH  20  22
HETATM   22  C   UNK N   1      31.668  16.217   6.315  0.00  0.00     0.010 A 
HETATM   23  C   UNK N   1      32.789  16.461   5.509  0.00  0.00     0.018 A 
HETATM   24  C   UNK N   1      33.846  17.247   5.994  0.00  0.00     0.037 A 
HETATM   25  C   UNK N   1      33.791  17.787   7.284  0.00  0.00     0.065 A 
HETATM   26  C   UNK N   1      32.715  17.488   8.117  0.00  0.00     0.037 A 
HETATM   27  C   UNK N   1      31.667  16.703   7.637  0.00  0.00     0.018 A 
BRANCH  25  28
HETATM   28  O   UNK N   1      34.770  18.596   7.722  0.00  0.00    -0.361 OA
HETATM   29  H   UNK N   1      35.424  18.909   7.128  0.00  0.00     0.217 HD
ENDBRANCH  25  28
ENDBRANCH  20  22
ENDBRANCH  17  20
BRANCH   3  30
HETATM   30  C   UNK N   1      19.414  16.136   5.361  0.00  0.00     0.172 C 
HETATM   31  O   UNK N   1      18.808  15.749   6.344  0.00  0.00    -0.646 OA
BRANCH  30  32
HETATM   32  O   UNK N   1      18.733  16.443   4.237  0.00  0.00    -0.773 OA
HETATM   33  H   UNK N   1      19.043  16.271   3.369  0.00  0.00     0.167 HD
ENDBRANCH  30  32
ENDBRANCH   3  30
TORSDOF 5
ENDMDL
MODEL 5
REMARK VINA RESULT:      -7.9      8.990     12.592
REMARK  5 active torsions:
REMARK  status: ('A' for Active; 'I' for Inactive)
REMARK    1  A    between atoms: C_3  and  C_22 
REMARK    2  A    between atoms: C_17  and  C_20 
REMARK    3  A    between atoms: C_25  and  C_20 
REMARK    4  A    between atoms: C_22  and  O_24 
REMARK    5  A    between atoms: O_31  and  C_28 
ROOT
HETATM    1  C   UNK N   1      33.128  14.875   9.368  0.00  0.00     0.019 C 
HETATM    2  C   UNK N   1      34.045  14.728  10.591  0.00  0.00     0.046 C 
HETATM    3  C   UNK N   1      35.521  14.649  10.244  0.00  0.00     0.016 C 
HETATM    4  C   UNK N   1      35.963  14.824   8.972  0.00  0.00     0.021 C 
HETATM    5  C   UNK N   1      35.016  15.230   7.904  0.00  0.00    -0.052 C 
HETATM    6  C   UNK N   1      35.294  14.981   6.608  0.00  0.00    -0.018 C 
HETATM    7  C   UNK N   1      34.353  15.344   5.476  0.00  0.00     0.033 C 
HETATM    8  C   UNK N   1      32.879  15.351   5.905  0.00  0.00    -0.001 C 
HETATM    9  C   UNK N   1      32.766  16.210   7.197  0.00  0.00     0.003 C 
HETATM   10  C   UNK N   1      33.723  15.862   8.357  0.00  0.00    -0.013 C 
HETATM   11  C   UNK N   1      31.326  16.228   7.706  0.00  0.00     0.007 C 
HETATM   12  C   UNK N   1      30.445  16.867   6.678  0.00  0.00     0.011 C 
HETATM   13  C   UNK N   1      30.544  16.232   5.303  0.00  0.00    -0.029 C 
HETATM   14  C   UNK N   1      31.995  16.093   4.848  0.00  0.00    -0.001 C 
HETATM   15  C   UNK N   1      31.826  15.643   3.395  0.00  0.00     0.006 C 
HETATM   16  C   UNK N   1      30.517  16.365   2.932  0.00  0.00     0.013 C 
HETATM   17  C   UNK N   1      30.006  17.128   4.175  0.00  0.00     0.069 C 
HETATM   18  C   UNK N   1      29.824  14.868   5.349  0.00  0.00     0.016 C 
HETATM   19  C   UNK N   1      34.028  17.182   9.090  0.00  0.00     0.021 C 
ENDROOT
BRANCH  17  20
HETATM   20  C   UNK N   1      28.520  17.437   4.315  0.00  0.00     0.164 C 
HETATM   21  O   UNK N   1      27.689  16.593   4.016  0.00  0.00    -0.292 OA
BRANCH  20  22
HETATM   22  C   UNK N   1      28.091  18.734   4.932  0.00  0.00     0.010 A 
HETATM   23  C   UNK N   1      27.534  19.744   4.135  0.00  0.00     0.018 A 
HETATM   24  C   UNK N   1      26.921  20.855   4.734  0.00  0.00     0.037 A 
HETATM   25  C   UNK N   1      26.866  20.964   6.129  0.00  0.00     0.065 A 
HETATM   26  C   UNK N   1      27.480  20.002   6.926  0.00  0.00     0.037 A 
HETATM   27  C   UNK N   1      28.095  18.900   6.330  0.00  0.00     0.018 A 
BRANCH  25  28
HETATM   28  O   UNK N   1      26.217  21.992   6.701  0.00  0.00    -0.361 OA
HETATM   29  H   UNK N   1      26.574  22.857   6.660  0.00  0.00     0.217 HD
ENDBRANCH  25  28
ENDBRANCH  20  22
ENDBRANCH  17  20
BRANCH   3  30
HETATM   30  C   UNK N   1      36.476  14.397  11.343  0.00  0.00     0.172 C 
HETATM   31  O   UNK N   1      36.154  14.585  12.502  0.00  0.00    -0.646 OA
BRANCH  30  32
HETATM   32  O   UNK N   1      37.706  13.917  11.063  0.00  0.00    -0.773 OA
HETATM   33  H   UNK N   1      38.430  14.449  10.794  0.00  0.00     0.167 HD
ENDBRANCH  30  32
ENDBRANCH   3  30
TORSDOF 5
ENDMDL
MODEL 6
REMARK VINA RESULT:      -7.9     15.066     17.973
REMARK  5 active torsions:
REMARK  status: ('A' for Active; 'I' for Inactive)
REMARK    1  A    between atoms: C_3  and  C_22 
REMARK    2  A    between atoms: C_17  and  C_20 
REMARK    3  A    between atoms: C_25  and  C_20 
REMARK    4  A    between atoms: C_22  and  O_24 
REMARK    5  A    between atoms: O_31  and  C_28 
ROOT
HETATM    1  C   UNK N   1      32.665  22.320  -5.822  0.00  0.00     0.019 C 
HETATM    2  C   UNK N   1      33.991  21.547  -5.853  0.00  0.00     0.046 C 
HETATM    3  C   UNK N   1      34.391  20.962  -4.510  0.00  0.00     0.016 C 
HETATM    4  C   UNK N   1      33.566  21.026  -3.432  0.00  0.00     0.021 C 
HETATM    5  C   UNK N   1      32.188  21.558  -3.580  0.00  0.00    -0.052 C 
HETATM    6  C   UNK N   1      31.523  22.048  -2.513  0.00  0.00    -0.018 C 
HETATM    7  C   UNK N   1      30.128  22.633  -2.607  0.00  0.00     0.033 C 
HETATM    8  C   UNK N   1      29.828  23.245  -3.983  0.00  0.00    -0.001 C 
HETATM    9  C   UNK N   1      30.208  22.192  -5.063  0.00  0.00     0.003 C 
HETATM   10  C   UNK N   1      31.622  21.578  -4.978  0.00  0.00    -0.013 C 
HETATM   11  C   UNK N   1      29.973  22.751  -6.464  0.00  0.00     0.007 C 
HETATM   12  C   UNK N   1      28.517  23.053  -6.641  0.00  0.00     0.011 C 
HETATM   13  C   UNK N   1      27.945  23.965  -5.571  0.00  0.00    -0.029 C 
HETATM   14  C   UNK N   1      28.292  23.477  -4.167  0.00  0.00    -0.001 C 
HETATM   15  C   UNK N   1      27.448  24.409  -3.294  0.00  0.00     0.006 C 
HETATM   16  C   UNK N   1      26.173  24.676  -4.160  0.00  0.00     0.013 C 
HETATM   17  C   UNK N   1      26.410  23.921  -5.486  0.00  0.00     0.069 C 
HETATM   18  C   UNK N   1      28.467  25.394  -5.827  0.00  0.00     0.016 C 
HETATM   19  C   UNK N   1      31.509  20.135  -5.505  0.00  0.00     0.021 C 
ENDROOT
BRANCH  17  20
HETATM   20  C   UNK N   1      25.728  24.400  -6.763  0.00  0.00     0.164 C 
HETATM   21  O   UNK N   1      25.325  25.550  -6.846  0.00  0.00    -0.292 OA
BRANCH  20  22
HETATM   22  C   UNK N   1      25.661  23.489  -7.951  0.00  0.00     0.010 A 
HETATM   23  C   UNK N   1      26.105  23.931  -9.205  0.00  0.00     0.018 A 
HETATM   24  C   UNK N   1      26.263  23.016 -10.258  0.00  0.00     0.037 A 
HETATM   25  C   UNK N   1      25.974  21.661 -10.065  0.00  0.00     0.065 A 
HETATM   26  C   UNK N   1      25.463  21.226  -8.844  0.00  0.00     0.037 A 
HETATM   27  C   UNK N   1      25.301  22.136  -7.799  0.00  0.00     0.018 A 
BRANCH  25  28
HETATM   28  O   UNK N   1      26.192  20.775 -11.052  0.00  0.00    -0.361 OA
HETATM   29  H   UNK N   1      25.797  19.927 -11.021  0.00  0.00     0.217 HD
ENDBRANCH  25  28
ENDBRANCH  20  22
ENDBRANCH  17  20
BRANCH   3  30
HETATM   30  C   UNK N   1      35.705  20.295  -4.411  0.00  0.00     0.172 C 
HETATM   31  O   UNK N   1      36.683  20.903  -4.015  0.00  0.00    -0.646 OA
BRANCH  30  32
HETATM   32  O   UNK N   1      35.817  18.988  -4.729  0.00  0.00    -0.773 OA
HETATM   33  H   UNK N   1      36.602  18.486  -4.627  0.00  0.00     0.167 HD
ENDBRANCH  30  32
ENDBRANCH   3  30
TORSDOF 5
ENDMDL
MODEL 7
REMARK VINA RESULT:      -7.8     14.917     16.707
REMARK  5 active torsions:
REMARK  status: ('A' for Active; 'I' for Inactive)
REMARK    1  A    between atoms: C_3  and  C_22 
REMARK    2  A    between atoms: C_17  and  C_20 
REMARK    3  A    between atoms: C_25  and  C_20 
REMARK    4  A    between atoms: C_22  and  O_24 
REMARK    5  A    between atoms: O_31  and  C_28 
ROOT
HETATM    1  C   UNK N   1      28.557  25.895  -4.374  0.00  0.00     0.019 C 
HETATM    2  C   UNK N   1      27.429  26.915  -4.162  0.00  0.00     0.046 C 
HETATM    3  C   UNK N   1      26.167  26.605  -4.947  0.00  0.00     0.016 C 
HETATM    4  C   UNK N   1      26.036  25.456  -5.659  0.00  0.00     0.021 C 
HETATM    5  C   UNK N   1      27.084  24.408  -5.579  0.00  0.00    -0.052 C 
HETATM    6  C   UNK N   1      27.224  23.500  -6.567  0.00  0.00    -0.018 C 
HETATM    7  C   UNK N   1      28.294  22.426  -6.556  0.00  0.00     0.033 C 
HETATM    8  C   UNK N   1      29.552  22.845  -5.783  0.00  0.00    -0.001 C 
HETATM    9  C   UNK N   1      29.099  23.378  -4.394  0.00  0.00     0.003 C 
HETATM   10  C   UNK N   1      28.003  24.466  -4.384  0.00  0.00    -0.013 C 
HETATM   11  C   UNK N   1      30.302  23.853  -3.582  0.00  0.00     0.007 C 
HETATM   12  C   UNK N   1      31.217  22.695  -3.327  0.00  0.00     0.011 C 
HETATM   13  C   UNK N   1      31.645  21.963  -4.586  0.00  0.00    -0.029 C 
HETATM   14  C   UNK N   1      30.450  21.603  -5.465  0.00  0.00    -0.001 C 
HETATM   15  C   UNK N   1      31.099  20.712  -6.526  0.00  0.00     0.006 C 
HETATM   16  C   UNK N   1      32.245  19.982  -5.749  0.00  0.00     0.013 C 
HETATM   17  C   UNK N   1      32.198  20.554  -4.315  0.00  0.00     0.069 C 
HETATM   18  C   UNK N   1      32.663  22.848  -5.335  0.00  0.00     0.016 C 
HETATM   19  C   UNK N   1      27.183  24.254  -3.098  0.00  0.00     0.021 C 
ENDROOT
BRANCH  17  20
HETATM   20  C   UNK N   1      33.462  20.563  -3.463  0.00  0.00     0.164 C 
HETATM   21  O   UNK N   1      33.400  20.861  -2.279  0.00  0.00    -0.292 OA
BRANCH  20  22
HETATM   22  C   UNK N   1      34.756  20.090  -4.055  0.00  0.00     0.010 A 
HETATM   23  C   UNK N   1      34.891  18.764  -4.488  0.00  0.00     0.018 A 
HETATM   24  C   UNK N   1      36.007  18.384  -5.250  0.00  0.00     0.037 A 
HETATM   25  C   UNK N   1      36.993  19.322  -5.576  0.00  0.00     0.065 A 
HETATM   26  C   UNK N   1      36.902  20.623  -5.086  0.00  0.00     0.037 A 
HETATM   27  C   UNK N   1      35.796  21.000  -4.325  0.00  0.00     0.018 A 
BRANCH  25  28
HETATM   28  O   UNK N   1      38.024  18.974  -6.363  0.00  0.00    -0.361 OA
HETATM   29  H   UNK N   1      38.041  19.236  -7.262  0.00  0.00     0.217 HD
ENDBRANCH  25  28
ENDBRANCH  20  22
ENDBRANCH  17  20
BRANCH   3  30
HETATM   30  C   UNK N   1      25.064  27.587  -4.897  0.00  0.00     0.172 C 
HETATM   31  O   UNK N   1      24.103  27.482  -5.638  0.00  0.00    -0.646 OA
BRANCH  30  32
HETATM   32  O   UNK N   1      25.103  28.590  -3.995  0.00  0.00    -0.773 OA
HETATM   33  H   UNK N   1      25.731  28.651  -3.301  0.00  0.00     0.167 HD
ENDBRANCH  30  32
ENDBRANCH   3  30
TORSDOF 5
ENDMDL
MODEL 8
REMARK VINA RESULT:      -7.6     11.183     15.872
REMARK  5 active torsions:
REMARK  status: ('A' for Active; 'I' for Inactive)
REMARK    1  A    between atoms: C_3  and  C_22 
REMARK    2  A    between atoms: C_17  and  C_20 
REMARK    3  A    between atoms: C_25  and  C_20 
REMARK    4  A    between atoms: C_22  and  O_24 
REMARK    5  A    between atoms: O_31  and  C_28 
ROOT
HETATM    1  C   UNK N   1      34.801  12.574  12.839  0.00  0.00     0.019 C 
HETATM    2  C   UNK N   1      35.117  12.011  14.231  0.00  0.00     0.046 C 
HETATM    3  C   UNK N   1      36.514  11.427  14.354  0.00  0.00     0.016 C 
HETATM    4  C   UNK N   1      37.417  11.526  13.344  0.00  0.00     0.021 C 
HETATM    5  C   UNK N   1      37.099  12.329  12.138  0.00  0.00    -0.052 C 
HETATM    6  C   UNK N   1      37.734  12.096  10.970  0.00  0.00    -0.018 C 
HETATM    7  C   UNK N   1      37.431  12.862   9.697  0.00  0.00     0.033 C 
HETATM    8  C   UNK N   1      35.985  13.372   9.638  0.00  0.00    -0.001 C 
HETATM    9  C   UNK N   1      35.688  14.112  10.974  0.00  0.00     0.003 C 
HETATM   10  C   UNK N   1      35.999  13.352  12.281  0.00  0.00    -0.013 C 
HETATM   11  C   UNK N   1      34.246  14.614  11.001  0.00  0.00     0.007 C 
HETATM   12  C   UNK N   1      34.045  15.606   9.898  0.00  0.00     0.011 C 
HETATM   13  C   UNK N   1      34.430  15.086   8.526  0.00  0.00    -0.029 C 
HETATM   14  C   UNK N   1      35.824  14.463   8.528  0.00  0.00    -0.001 C 
HETATM   15  C   UNK N   1      36.060  14.219   7.036  0.00  0.00     0.006 C 
HETATM   16  C   UNK N   1      35.305  15.400   6.341  0.00  0.00     0.013 C 
HETATM   17  C   UNK N   1      34.648  16.199   7.488  0.00  0.00     0.069 C 
HETATM   18  C   UNK N   1      33.353  14.078   8.073  0.00  0.00     0.016 C 
HETATM   19  C   UNK N   1      36.416  14.410  13.319  0.00  0.00     0.021 C 
ENDROOT
BRANCH  17  20
HETATM   20  C   UNK N   1      33.389  17.017   7.217  0.00  0.00     0.164 C 
HETATM   21  O   UNK N   1      33.057  17.903   7.990  0.00  0.00    -0.292 OA
BRANCH  20  22
HETATM   22  C   UNK N   1      32.632  16.805   5.941  0.00  0.00     0.010 A 
HETATM   23  C   UNK N   1      31.427  16.089   5.946  0.00  0.00     0.018 A 
HETATM   24  C   UNK N   1      30.605  16.090   4.808  0.00  0.00     0.037 A 
HETATM   25  C   UNK N   1      30.983  16.800   3.663  0.00  0.00     0.065 A 
HETATM   26  C   UNK N   1      32.212  17.453   3.625  0.00  0.00     0.037 A 
HETATM   27  C   UNK N   1      33.033  17.448   4.753  0.00  0.00     0.018 A 
BRANCH  25  28
HETATM   28  O   UNK N   1      30.162  16.857   2.601  0.00  0.00    -0.361 OA
HETATM   29  H   UNK N   1      30.290  17.508   1.940  0.00  0.00     0.217 HD
ENDBRANCH  25  28
ENDBRANCH  20  22
ENDBRANCH  17  20
BRANCH   3  30
HETATM   30  C   UNK N   1      36.874  10.761  15.622  0.00  0.00     0.172 C 
HETATM   31  O   UNK N   1      37.713   9.878  15.645  0.00  0.00    -0.646 OA
BRANCH  30  32
HETATM   32  O   UNK N   1      36.295  11.159  16.774  0.00  0.00    -0.773 OA
HETATM   33  H   UNK N   1      35.407  11.453  16.844  0.00  0.00     0.167 HD
ENDBRANCH  30  32
ENDBRANCH   3  30
TORSDOF 5
ENDMDL
MODEL 9
REMARK VINA RESULT:      -7.6     12.480     18.399
REMARK  5 active torsions:
REMARK  status: ('A' for Active; 'I' for Inactive)
REMARK    1  A    between atoms: C_3  and  C_22 
REMARK    2  A    between atoms: C_17  and  C_20 
REMARK    3  A    between atoms: C_25  and  C_20 
REMARK    4  A    between atoms: C_22  and  O_24 
REMARK    5  A    between atoms: O_31  and  C_28 
ROOT
HETATM    1  C   UNK N   1      36.684   9.493  18.311  0.00  0.00     0.019 C 
HETATM    2  C   UNK N   1      36.620   8.871  19.712  0.00  0.00     0.046 C 
HETATM    3  C   UNK N   1      36.031   9.792  20.766  0.00  0.00     0.016 C 
HETATM    4  C   UNK N   1      35.503  11.000  20.439  0.00  0.00     0.021 C 
HETATM    5  C   UNK N   1      35.370  11.393  19.014  0.00  0.00    -0.052 C 
HETATM    6  C   UNK N   1      35.286  12.693  18.665  0.00  0.00    -0.018 C 
HETATM    7  C   UNK N   1      35.180  13.157  17.226  0.00  0.00     0.033 C 
HETATM    8  C   UNK N   1      35.844  12.190  16.236  0.00  0.00    -0.001 C 
HETATM    9  C   UNK N   1      35.310  10.760  16.540  0.00  0.00     0.003 C 
HETATM   10  C   UNK N   1      35.401  10.274  18.003  0.00  0.00    -0.013 C 
HETATM   11  C   UNK N   1      35.962   9.735  15.616  0.00  0.00     0.007 C 
HETATM   12  C   UNK N   1      35.598  10.045  14.197  0.00  0.00     0.011 C 
HETATM   13  C   UNK N   1      35.924  11.466  13.775  0.00  0.00    -0.029 C 
HETATM   14  C   UNK N   1      35.384  12.489  14.771  0.00  0.00    -0.001 C 
HETATM   15  C   UNK N   1      35.642  13.807  14.036  0.00  0.00     0.006 C 
HETATM   16  C   UNK N   1      35.464  13.433  12.528  0.00  0.00     0.013 C 
HETATM   17  C   UNK N   1      35.173  11.916  12.511  0.00  0.00     0.069 C 
HETATM   18  C   UNK N   1      37.454  11.580  13.607  0.00  0.00     0.016 C 
HETATM   19  C   UNK N   1      34.198   9.341  18.234  0.00  0.00     0.021 C 
ENDROOT
BRANCH  17  20
HETATM   20  C   UNK N   1      35.527  11.091  11.279  0.00  0.00     0.164 C 
HETATM   21  O   UNK N   1      36.699  10.900  10.988  0.00  0.00    -0.292 OA
BRANCH  20  22
HETATM   22  C   UNK N   1      34.437  10.420  10.500  0.00  0.00     0.010 A 
HETATM   23  C   UNK N   1      33.602   9.480  11.121  0.00  0.00     0.018 A 
HETATM   24  C   UNK N   1      32.444   9.030  10.468  0.00  0.00     0.037 A 
HETATM   25  C   UNK N   1      32.119   9.510   9.194  0.00  0.00     0.065 A 
HETATM   26  C   UNK N   1      32.982  10.387   8.541  0.00  0.00     0.037 A 
HETATM   27  C   UNK N   1      34.135  10.831   9.187  0.00  0.00     0.018 A 
BRANCH  25  28
HETATM   28  O   UNK N   1      30.975   9.131   8.600  0.00  0.00    -0.361 OA
HETATM   29  H   UNK N   1      30.980   8.838   7.710  0.00  0.00     0.217 HD
ENDBRANCH  25  28
ENDBRANCH  20  22
ENDBRANCH  17  20
BRANCH   3  30
HETATM   30  C   UNK N   1      36.029   9.326  22.168  0.00  0.00     0.172 C 
HETATM   31  O   UNK N   1      35.747   8.173  22.440  0.00  0.00    -0.646 OA
BRANCH  30  32
HETATM   32  O   UNK N   1      36.378  10.177  23.156  0.00  0.00    -0.773 OA
HETATM   33  H   UNK N   1      36.237  11.103  23.127  0.00  0.00     0.167 HD
ENDBRANCH  30  32
ENDBRANCH   3  30
TORSDOF 5
ENDMDL
