MODEL 1
REMARK VINA RESULT:      -9.0      0.000      0.000
REMARK  6 active torsions:
REMARK  status: ('A' for Active; 'I' for Inactive)
REMARK    1  A    between atoms: C_1  and  N_8 
REMARK    2  A    between atoms: C_3  and  N_20 
REMARK       I    between atoms: N_8  and  C_9 
REMARK    3  A    between atoms: C_9  and  C_11 
REMARK    4  A    between atoms: C_13  and  C_16 
REMARK    5  A    between atoms: N_20  and  C_27 
REMARK    6  A    between atoms: C_21  and  C_35 
ROOT
HETATM    1  C   UNK N   1      34.687  15.946   9.724  0.00  0.00     0.037 C 
HETATM    2  C   UNK N   1      35.403  15.495  10.816  0.00  0.00     0.059 C 
HETATM    3  C   UNK N   1      36.190  14.357  10.771  0.00  0.00     0.041 C 
HETATM    4  C   UNK N   1      36.252  13.632   9.537  0.00  0.00    -0.035 C 
HETATM    5  C   UNK N   1      35.384  13.984   8.503  0.00  0.00     0.011 C 
HETATM    6  C   UNK N   1      34.606  15.126   8.598  0.00  0.00     0.030 C 
HETATM    7  C   UNK N   1      37.196  12.540   9.220  0.00  0.00     0.050 C 
ENDROOT
BRANCH   3   8
HETATM    8  N   UNK N   1      36.938  14.115  11.964  0.00  0.00    -0.341 N 
HETATM    9  H   UNK N   1      37.908  14.203  11.820  0.00  0.00     0.167 HD
BRANCH   8  10
HETATM   10  C   UNK N   1      36.623  13.782  13.294  0.00  0.00     0.118 A 
HETATM   11  C   UNK N   1      36.016  12.531  13.596  0.00  0.00     0.035 A 
HETATM   12  C   UNK N   1      35.733  12.236  14.932  0.00  0.00     0.019 A 
HETATM   13  C   UNK N   1      36.030  13.147  15.943  0.00  0.00     0.018 A 
HETATM   14  C   UNK N   1      36.613  14.362  15.606  0.00  0.00     0.090 A 
HETATM   15  N   UNK N   1      36.888  14.644  14.317  0.00  0.00    -0.352 N 
ATOM     16  HN  UNK N   1      37.311  15.545  14.096  1.00  0.00     0.166 HD
BRANCH  11  17
HETATM   17  C   UNK N   1      35.679  11.497  12.561  0.00  0.00     0.048 A 
HETATM   18  C   UNK N   1      36.565  10.478  12.197  0.00  0.00     0.047 A 
HETATM   19  C   UNK N   1      36.169   9.546  11.238  0.00  0.00     0.091 A 
HETATM   20  N   UNK N   1      34.937   9.634  10.674  0.00  0.00    -0.362 N 
HETATM   21  C   UNK N   1      34.084  10.627  11.031  0.00  0.00     0.180 A 
ATOM     22  HN  UNK N   1      34.649   8.948   9.977  1.00  0.00     0.165 HD
HETATM   23  N   UNK N   1      34.453  11.547  11.961  0.00  0.00    -0.352 N 
ATOM     24  HN  UNK N   1      33.803  12.290  12.217  1.00  0.00     0.166 HD
ENDBRANCH  11  17
ENDBRANCH   8  10
ENDBRANCH   3   8
BRANCH   1  25
HETATM   25  N   UNK N   1      34.952  17.285   9.413  0.00  0.00    -0.323 N 
HETATM   26  C   UNK N   1      34.353  18.129   8.570  0.00  0.00     0.256 C 
HETATM   27  O   UNK N   1      34.950  19.151   8.276  0.00  0.00    -0.267 OA
HETATM   28  H   UNK N   1      35.714  17.673   9.902  0.00  0.00     0.169 HD
BRANCH  26  29
HETATM   29  C   UNK N   1      33.072  17.857   7.934  0.00  0.00     0.033 A 
HETATM   30  C   UNK N   1      32.949  17.388   6.617  0.00  0.00     0.017 A 
HETATM   31  C   UNK N   1      31.676  17.081   6.115  0.00  0.00     0.002 A 
HETATM   32  C   UNK N   1      30.538  17.305   6.906  0.00  0.00     0.016 A 
HETATM   33  C   UNK N   1      30.682  17.816   8.205  0.00  0.00     0.048 A 
HETATM   34  C   UNK N   1      31.944  18.049   8.710  0.00  0.00     0.033 A 
BRANCH  33  35
HETATM   35  C   UNK N   1      29.521  18.207   9.057  0.00  0.00     0.417 C 
HETATM   36  F   UNK N   1      28.598  18.945   8.342  0.00  0.00    -0.166 F 
HETATM   37  F   UNK N   1      28.914  17.076   9.571  0.00  0.00    -0.166 F 
HETATM   38  F   UNK N   1      29.997  18.976  10.107  0.00  0.00    -0.166 F 
ENDBRANCH  33  35
ENDBRANCH  26  29
ENDBRANCH   1  25
TORSDOF 6
ENDMDL
MODEL 2
REMARK VINA RESULT:      -8.8      2.039      2.476
REMARK  6 active torsions:
REMARK  status: ('A' for Active; 'I' for Inactive)
REMARK    1  A    between atoms: C_1  and  N_8 
REMARK    2  A    between atoms: C_3  and  N_20 
REMARK       I    between atoms: N_8  and  C_9 
REMARK    3  A    between atoms: C_9  and  C_11 
REMARK    4  A    between atoms: C_13  and  C_16 
REMARK    5  A    between atoms: N_20  and  C_27 
REMARK    6  A    between atoms: C_21  and  C_35 
ROOT
HETATM    1  C   UNK N   1      34.657  15.929   9.880  0.00  0.00     0.037 C 
HETATM    2  C   UNK N   1      35.391  15.486  10.963  0.00  0.00     0.059 C 
HETATM    3  C   UNK N   1      36.152  14.330  10.921  0.00  0.00     0.041 C 
HETATM    4  C   UNK N   1      36.166  13.578   9.703  0.00  0.00    -0.035 C 
HETATM    5  C   UNK N   1      35.280  13.928   8.683  0.00  0.00     0.011 C 
HETATM    6  C   UNK N   1      34.528  15.088   8.774  0.00  0.00     0.030 C 
HETATM    7  C   UNK N   1      37.078  12.460   9.384  0.00  0.00     0.050 C 
ENDROOT
BRANCH   3   8
HETATM    8  N   UNK N   1      36.925  14.096  12.100  0.00  0.00    -0.341 N 
HETATM    9  H   UNK N   1      37.893  14.147  11.927  0.00  0.00     0.167 HD
BRANCH   8  10
HETATM   10  C   UNK N   1      36.637  13.812  13.447  0.00  0.00     0.118 A 
HETATM   11  C   UNK N   1      36.045  12.569  13.808  0.00  0.00     0.035 A 
HETATM   12  C   UNK N   1      35.788  12.324  15.159  0.00  0.00     0.019 A 
HETATM   13  C   UNK N   1      36.097  13.274  16.129  0.00  0.00     0.018 A 
HETATM   14  C   UNK N   1      36.665  14.479  15.736  0.00  0.00     0.090 A 
HETATM   15  N   UNK N   1      36.914  14.714  14.432  0.00  0.00    -0.352 N 
ATOM     16  HN  UNK N   1      37.327  15.609  14.169  1.00  0.00     0.166 HD
BRANCH  11  17
HETATM   17  C   UNK N   1      35.696  11.495  12.820  0.00  0.00     0.048 A 
HETATM   18  C   UNK N   1      36.585  10.472  12.473  0.00  0.00     0.047 A 
HETATM   19  C   UNK N   1      36.179   9.501  11.558  0.00  0.00     0.091 A 
HETATM   20  N   UNK N   1      34.933   9.556  11.019  0.00  0.00    -0.362 N 
HETATM   21  C   UNK N   1      34.077  10.553  11.358  0.00  0.00     0.180 A 
ATOM     22  HN  UNK N   1      34.638   8.842  10.354  1.00  0.00     0.165 HD
HETATM   23  N   UNK N   1      34.457  11.510  12.246  0.00  0.00    -0.352 N 
ATOM     24  HN  UNK N   1      33.804  12.255  12.488  1.00  0.00     0.166 HD
ENDBRANCH  11  17
ENDBRANCH   8  10
ENDBRANCH   3   8
BRANCH   1  25
HETATM   25  N   UNK N   1      34.942  17.256   9.534  0.00  0.00    -0.323 N 
HETATM   26  C   UNK N   1      34.419  18.055   8.601  0.00  0.00     0.256 C 
HETATM   27  O   UNK N   1      35.035  19.069   8.317  0.00  0.00    -0.267 OA
HETATM   28  H   UNK N   1      35.654  17.672  10.073  0.00  0.00     0.169 HD
BRANCH  26  29
HETATM   29  C   UNK N   1      33.204  17.743   7.863  0.00  0.00     0.033 A 
HETATM   30  C   UNK N   1      31.930  17.721   8.450  0.00  0.00     0.017 A 
HETATM   31  C   UNK N   1      30.807  17.484   7.642  0.00  0.00     0.002 A 
HETATM   32  C   UNK N   1      30.972  17.210   6.275  0.00  0.00     0.016 A 
HETATM   33  C   UNK N   1      32.261  17.195   5.719  0.00  0.00     0.048 A 
HETATM   34  C   UNK N   1      33.350  17.496   6.510  0.00  0.00     0.033 A 
BRANCH  33  35
HETATM   35  C   UNK N   1      32.532  16.781   4.311  0.00  0.00     0.417 C 
HETATM   36  F   UNK N   1      33.821  16.306   4.165  0.00  0.00    -0.166 F 
HETATM   37  F   UNK N   1      31.631  15.805   3.926  0.00  0.00    -0.166 F 
HETATM   38  F   UNK N   1      32.366  17.890   3.496  0.00  0.00    -0.166 F 
ENDBRANCH  33  35
ENDBRANCH  26  29
ENDBRANCH   1  25
TORSDOF 6
ENDMDL
MODEL 3
REMARK VINA RESULT:      -8.8      4.013      8.743
REMARK  6 active torsions:
REMARK  status: ('A' for Active; 'I' for Inactive)
REMARK    1  A    between atoms: C_1  and  N_8 
REMARK    2  A    between atoms: C_3  and  N_20 
REMARK       I    between atoms: N_8  and  C_9 
REMARK    3  A    between atoms: C_9  and  C_11 
REMARK    4  A    between atoms: C_13  and  C_16 
REMARK    5  A    between atoms: N_20  and  C_27 
REMARK    6  A    between atoms: C_21  and  C_35 
ROOT
HETATM    1  C   UNK N   1      34.872  14.388  10.806  0.00  0.00     0.037 C 
HETATM    2  C   UNK N   1      33.867  14.477   9.863  0.00  0.00     0.059 C 
HETATM    3  C   UNK N   1      33.615  15.638   9.152  0.00  0.00     0.041 C 
HETATM    4  C   UNK N   1      34.438  16.779   9.418  0.00  0.00    -0.035 C 
HETATM    5  C   UNK N   1      35.321  16.739  10.497  0.00  0.00     0.011 C 
HETATM    6  C   UNK N   1      35.531  15.557  11.188  0.00  0.00     0.030 C 
HETATM    7  C   UNK N   1      34.481  18.022   8.619  0.00  0.00     0.050 C 
ENDROOT
BRANCH   3   8
HETATM    8  N   UNK N   1      32.610  15.501   8.146  0.00  0.00    -0.341 N 
HETATM    9  H   UNK N   1      31.880  14.903   8.427  0.00  0.00     0.167 HD
BRANCH   8  10
HETATM   10  C   UNK N   1      32.412  16.014   6.851  0.00  0.00     0.118 A 
HETATM   11  C   UNK N   1      31.350  16.926   6.594  0.00  0.00     0.035 A 
HETATM   12  C   UNK N   1      31.199  17.420   5.297  0.00  0.00     0.019 A 
HETATM   13  C   UNK N   1      32.061  17.024   4.277  0.00  0.00     0.018 A 
HETATM   14  C   UNK N   1      33.079  16.124   4.565  0.00  0.00     0.090 A 
HETATM   15  N   UNK N   1      33.225  15.650   5.819  0.00  0.00    -0.352 N 
ATOM     16  HN  UNK N   1      33.977  14.986   6.003  1.00  0.00     0.166 HD
BRANCH  11  17
HETATM   17  C   UNK N   1      30.391  17.405   7.645  0.00  0.00     0.048 A 
HETATM   18  C   UNK N   1      30.784  18.228   8.705  0.00  0.00     0.047 A 
HETATM   19  C   UNK N   1      29.828  18.644   9.632  0.00  0.00     0.091 A 
HETATM   20  N   UNK N   1      28.535  18.250   9.495  0.00  0.00    -0.362 N 
HETATM   21  C   UNK N   1      28.162  17.449   8.466  0.00  0.00     0.180 A 
ATOM     22  HN  UNK N   1      27.838  18.560  10.172  1.00  0.00     0.165 HD
HETATM   23  N   UNK N   1      29.081  17.031   7.555  0.00  0.00    -0.352 N 
ATOM     24  HN  UNK N   1      28.786  16.427   6.788  1.00  0.00     0.166 HD
ENDBRANCH  11  17
ENDBRANCH   8  10
ENDBRANCH   3   8
BRANCH   1  25
HETATM   25  N   UNK N   1      35.742  13.314  10.576  0.00  0.00    -0.323 N 
HETATM   26  C   UNK N   1      36.031  12.241  11.317  0.00  0.00     0.256 C 
HETATM   27  O   UNK N   1      37.028  11.604  11.020  0.00  0.00    -0.267 OA
HETATM   28  H   UNK N   1      36.224  13.358   9.719  0.00  0.00     0.169 HD
BRANCH  26  29
HETATM   29  C   UNK N   1      35.268  11.844  12.491  0.00  0.00     0.033 A 
HETATM   30  C   UNK N   1      34.276  10.852  12.466  0.00  0.00     0.017 A 
HETATM   31  C   UNK N   1      33.646  10.482  13.664  0.00  0.00     0.002 A 
HETATM   32  C   UNK N   1      33.966  11.147  14.858  0.00  0.00     0.016 A 
HETATM   33  C   UNK N   1      34.931  12.166  14.852  0.00  0.00     0.048 A 
HETATM   34  C   UNK N   1      35.591  12.474  13.679  0.00  0.00     0.033 A 
BRANCH  33  35
HETATM   35  C   UNK N   1      35.229  13.010  16.045  0.00  0.00     0.417 C 
HETATM   36  F   UNK N   1      36.101  14.034  15.732  0.00  0.00    -0.166 F 
HETATM   37  F   UNK N   1      34.056  13.539  16.552  0.00  0.00    -0.166 F 
HETATM   38  F   UNK N   1      35.810  12.203  17.010  0.00  0.00    -0.166 F 
ENDBRANCH  33  35
ENDBRANCH  26  29
ENDBRANCH   1  25
TORSDOF 6
ENDMDL
MODEL 4
REMARK VINA RESULT:      -8.7      7.218      9.796
REMARK  6 active torsions:
REMARK  status: ('A' for Active; 'I' for Inactive)
REMARK    1  A    between atoms: C_1  and  N_8 
REMARK    2  A    between atoms: C_3  and  N_20 
REMARK       I    between atoms: N_8  and  C_9 
REMARK    3  A    between atoms: C_9  and  C_11 
REMARK    4  A    between atoms: C_13  and  C_16 
REMARK    5  A    between atoms: N_20  and  C_27 
REMARK    6  A    between atoms: C_21  and  C_35 
ROOT
HETATM    1  C   UNK N   1      24.441  15.916   4.695  0.00  0.00     0.037 C 
HETATM    2  C   UNK N   1      25.501  15.718   5.558  0.00  0.00     0.059 C 
HETATM    3  C   UNK N   1      26.814  15.954   5.189  0.00  0.00     0.041 C 
HETATM    4  C   UNK N   1      27.065  16.420   3.858  0.00  0.00    -0.035 C 
HETATM    5  C   UNK N   1      26.014  16.437   2.940  0.00  0.00     0.011 C 
HETATM    6  C   UNK N   1      24.717  16.181   3.353  0.00  0.00     0.030 C 
HETATM    7  C   UNK N   1      28.351  16.940   3.350  0.00  0.00     0.050 C 
ENDROOT
BRANCH   3   8
HETATM    8  N   UNK N   1      27.757  15.798   6.252  0.00  0.00    -0.341 N 
HETATM    9  H   UNK N   1      28.116  14.883   6.300  0.00  0.00     0.167 HD
BRANCH   8  10
HETATM   10  C   UNK N   1      28.296  16.637   7.244  0.00  0.00     0.118 A 
HETATM   11  C   UNK N   1      29.675  16.987   7.219  0.00  0.00     0.035 A 
HETATM   12  C   UNK N   1      30.163  17.833   8.217  0.00  0.00     0.019 A 
HETATM   13  C   UNK N   1      29.324  18.316   9.218  0.00  0.00     0.018 A 
HETATM   14  C   UNK N   1      27.986  17.944   9.215  0.00  0.00     0.090 A 
HETATM   15  N   UNK N   1      27.515  17.128   8.249  0.00  0.00    -0.352 N 
ATOM     16  HN  UNK N   1      26.530  16.866   8.272  1.00  0.00     0.166 HD
BRANCH  11  17
HETATM   17  C   UNK N   1      30.634  16.514   6.166  0.00  0.00     0.048 A 
HETATM   18  C   UNK N   1      30.949  15.164   5.985  0.00  0.00     0.047 A 
HETATM   19  C   UNK N   1      31.838  14.804   4.972  0.00  0.00     0.091 A 
HETATM   20  N   UNK N   1      32.383  15.761   4.177  0.00  0.00    -0.362 N 
HETATM   21  C   UNK N   1      32.075  17.070   4.360  0.00  0.00     0.180 A 
ATOM     22  HN  UNK N   1      33.029  15.494   3.434  1.00  0.00     0.165 HD
HETATM   23  N   UNK N   1      31.212  17.439   5.345  0.00  0.00    -0.352 N 
ATOM     24  HN  UNK N   1      30.993  18.427   5.473  1.00  0.00     0.166 HD
ENDBRANCH  11  17
ENDBRANCH   8  10
ENDBRANCH   3   8
BRANCH   1  25
HETATM   25  N   UNK N   1      23.450  16.749   5.229  0.00  0.00    -0.323 N 
HETATM   26  C   UNK N   1      23.362  18.080   5.299  0.00  0.00     0.256 C 
HETATM   27  O   UNK N   1      22.536  18.551   6.063  0.00  0.00    -0.267 OA
HETATM   28  H   UNK N   1      22.685  16.270   5.623  0.00  0.00     0.169 HD
BRANCH  26  29
HETATM   29  C   UNK N   1      24.242  18.984   4.573  0.00  0.00     0.033 A 
HETATM   30  C   UNK N   1      23.943  19.495   3.301  0.00  0.00     0.017 A 
HETATM   31  C   UNK N   1      24.817  20.422   2.711  0.00  0.00     0.002 A 
HETATM   32  C   UNK N   1      26.006  20.778   3.366  0.00  0.00     0.016 A 
HETATM   33  C   UNK N   1      26.306  20.220   4.619  0.00  0.00     0.048 A 
HETATM   34  C   UNK N   1      25.406  19.362   5.217  0.00  0.00     0.033 A 
BRANCH  33  35
HETATM   35  C   UNK N   1      27.607  20.441   5.316  0.00  0.00     0.417 C 
HETATM   36  F   UNK N   1      27.719  21.739   5.773  0.00  0.00    -0.166 F 
HETATM   37  F   UNK N   1      27.725  19.563   6.378  0.00  0.00    -0.166 F 
HETATM   38  F   UNK N   1      28.628  20.191   4.413  0.00  0.00    -0.166 F 
ENDBRANCH  33  35
ENDBRANCH  26  29
ENDBRANCH   1  25
TORSDOF 6
ENDMDL
MODEL 5
REMARK VINA RESULT:      -8.6     17.439     20.585
REMARK  6 active torsions:
REMARK  status: ('A' for Active; 'I' for Inactive)
REMARK    1  A    between atoms: C_1  and  N_8 
REMARK    2  A    between atoms: C_3  and  N_20 
REMARK       I    between atoms: N_8  and  C_9 
REMARK    3  A    between atoms: C_9  and  C_11 
REMARK    4  A    between atoms: C_13  and  C_16 
REMARK    5  A    between atoms: N_20  and  C_27 
REMARK    6  A    between atoms: C_21  and  C_35 
ROOT
HETATM    1  C   UNK N   1      27.587  25.010  -9.307  0.00  0.00     0.037 C 
HETATM    2  C   UNK N   1      28.556  24.402  -8.533  0.00  0.00     0.059 C 
HETATM    3  C   UNK N   1      29.283  25.089  -7.576  0.00  0.00     0.041 C 
HETATM    4  C   UNK N   1      29.008  26.483  -7.397  0.00  0.00    -0.035 C 
HETATM    5  C   UNK N   1      28.167  27.128  -8.305  0.00  0.00     0.011 C 
HETATM    6  C   UNK N   1      27.470  26.400  -9.254  0.00  0.00     0.030 C 
HETATM    7  C   UNK N   1      29.503  27.329  -6.291  0.00  0.00     0.050 C 
ENDROOT
BRANCH   3   8
HETATM    8  N   UNK N   1      30.159  24.265  -6.804  0.00  0.00    -0.341 N 
HETATM    9  H   UNK N   1      30.972  24.019  -7.300  0.00  0.00     0.167 HD
BRANCH   8  10
HETATM   10  C   UNK N   1      30.138  23.722  -5.506  0.00  0.00     0.118 A 
HETATM   11  C   UNK N   1      30.090  22.312  -5.318  0.00  0.00     0.035 A 
HETATM   12  C   UNK N   1      30.084  21.817  -4.013  0.00  0.00     0.019 A 
HETATM   13  C   UNK N   1      30.117  22.681  -2.920  0.00  0.00     0.018 A 
HETATM   14  C   UNK N   1      30.153  24.051  -3.145  0.00  0.00     0.090 A 
HETATM   15  N   UNK N   1      30.160  24.528  -4.406  0.00  0.00    -0.352 N 
ATOM     16  HN  UNK N   1      30.182  25.538  -4.544  1.00  0.00     0.166 HD
BRANCH  11  17
HETATM   17  C   UNK N   1      30.065  21.323  -6.446  0.00  0.00     0.048 A 
HETATM   18  C   UNK N   1      28.891  20.986  -7.129  0.00  0.00     0.047 A 
HETATM   19  C   UNK N   1      28.955  20.069  -8.178  0.00  0.00     0.091 A 
HETATM   20  N   UNK N   1      30.147  19.519  -8.525  0.00  0.00    -0.362 N 
HETATM   21  C   UNK N   1      31.281  19.848  -7.857  0.00  0.00     0.180 A 
ATOM     22  HN  UNK N   1      30.190  18.852  -9.296  1.00  0.00     0.165 HD
HETATM   23  N   UNK N   1      31.237  20.737  -6.829  0.00  0.00    -0.352 N 
ATOM     24  HN  UNK N   1      32.097  20.972  -6.334  1.00  0.00     0.166 HD
ENDBRANCH  11  17
ENDBRANCH   8  10
ENDBRANCH   3   8
BRANCH   1  25
HETATM   25  N   UNK N   1      26.353  24.350  -9.255  0.00  0.00    -0.323 N 
HETATM   26  C   UNK N   1      25.611  23.952  -8.219  0.00  0.00     0.256 C 
HETATM   27  O   UNK N   1      24.718  23.150  -8.441  0.00  0.00    -0.267 OA
HETATM   28  H   UNK N   1      25.965  24.142 -10.136  0.00  0.00     0.169 HD
BRANCH  26  29
HETATM   29  C   UNK N   1      25.858  24.364  -6.846  0.00  0.00     0.033 A 
HETATM   30  C   UNK N   1      26.394  23.511  -5.869  0.00  0.00     0.017 A 
HETATM   31  C   UNK N   1      26.670  24.020  -4.591  0.00  0.00     0.002 A 
HETATM   32  C   UNK N   1      26.348  25.351  -4.282  0.00  0.00     0.016 A 
HETATM   33  C   UNK N   1      25.772  26.174  -5.262  0.00  0.00     0.048 A 
HETATM   34  C   UNK N   1      25.569  25.680  -6.535  0.00  0.00     0.033 A 
BRANCH  33  35
HETATM   35  C   UNK N   1      25.279  27.553  -4.977  0.00  0.00     0.417 C 
HETATM   36  F   UNK N   1      25.183  27.783  -3.619  0.00  0.00    -0.166 F 
HETATM   37  F   UNK N   1      26.130  28.483  -5.546  0.00  0.00    -0.166 F 
HETATM   38  F   UNK N   1      24.023  27.688  -5.547  0.00  0.00    -0.166 F 
ENDBRANCH  33  35
ENDBRANCH  26  29
ENDBRANCH   1  25
TORSDOF 6
ENDMDL
MODEL 6
REMARK VINA RESULT:      -8.5      7.894     12.899
REMARK  6 active torsions:
REMARK  status: ('A' for Active; 'I' for Inactive)
REMARK    1  A    between atoms: C_1  and  N_8 
REMARK    2  A    between atoms: C_3  and  N_20 
REMARK       I    between atoms: N_8  and  C_9 
REMARK    3  A    between atoms: C_9  and  C_11 
REMARK    4  A    between atoms: C_13  and  C_16 
REMARK    5  A    between atoms: N_20  and  C_27 
REMARK    6  A    between atoms: C_21  and  C_35 
ROOT
HETATM    1  C   UNK N   1      27.698  18.382   4.558  0.00  0.00     0.037 C 
HETATM    2  C   UNK N   1      26.461  17.769   4.515  0.00  0.00     0.059 C 
HETATM    3  C   UNK N   1      25.331  18.408   4.035  0.00  0.00     0.041 C 
HETATM    4  C   UNK N   1      25.468  19.756   3.570  0.00  0.00    -0.035 C 
HETATM    5  C   UNK N   1      26.671  20.427   3.789  0.00  0.00     0.011 C 
HETATM    6  C   UNK N   1      27.773  19.749   4.285  0.00  0.00     0.030 C 
HETATM    7  C   UNK N   1      24.450  20.522   2.820  0.00  0.00     0.050 C 
ENDROOT
BRANCH   3   8
HETATM    8  N   UNK N   1      24.172  17.575   3.968  0.00  0.00    -0.341 N 
HETATM    9  H   UNK N   1      23.919  17.362   3.041  0.00  0.00     0.167 HD
BRANCH   8  10
HETATM   10  C   UNK N   1      23.306  16.987   4.907  0.00  0.00     0.118 A 
HETATM   11  C   UNK N   1      21.905  17.227   4.842  0.00  0.00     0.035 A 
HETATM   12  C   UNK N   1      21.081  16.611   5.787  0.00  0.00     0.019 A 
HETATM   13  C   UNK N   1      21.618  15.789   6.775  0.00  0.00     0.018 A 
HETATM   14  C   UNK N   1      22.991  15.587   6.812  0.00  0.00     0.090 A 
HETATM   15  N   UNK N   1      23.785  16.180   5.897  0.00  0.00    -0.352 N 
ATOM     16  HN  UNK N   1      24.791  16.020   5.950  1.00  0.00     0.166 HD
BRANCH  11  17
HETATM   17  C   UNK N   1      21.256  18.091   3.800  0.00  0.00     0.048 A 
HETATM   18  C   UNK N   1      21.078  19.468   3.966  0.00  0.00     0.047 A 
HETATM   19  C   UNK N   1      20.481  20.204   2.943  0.00  0.00     0.091 A 
HETATM   20  N   UNK N   1      20.084  19.581   1.803  0.00  0.00    -0.362 N 
HETATM   21  C   UNK N   1      20.257  18.244   1.650  0.00  0.00     0.180 A 
ATOM     22  HN  UNK N   1      19.652  20.123   1.055  1.00  0.00     0.165 HD
HETATM   23  N   UNK N   1      20.834  17.510   2.638  0.00  0.00    -0.352 N 
ATOM     24  HN  UNK N   1      20.955  16.506   2.510  1.00  0.00     0.166 HD
ENDBRANCH  11  17
ENDBRANCH   8  10
ENDBRANCH   3   8
BRANCH   1  25
HETATM   25  N   UNK N   1      28.699  17.637   3.922  0.00  0.00    -0.323 N 
HETATM   26  C   UNK N   1      29.888  17.210   4.354  0.00  0.00     0.256 C 
HETATM   27  O   UNK N   1      30.687  16.825   3.516  0.00  0.00    -0.267 OA
HETATM   28  H   UNK N   1      28.489  17.383   2.994  0.00  0.00     0.169 HD
BRANCH  26  29
HETATM   29  C   UNK N   1      30.300  17.252   5.749  0.00  0.00     0.033 A 
HETATM   30  C   UNK N   1      29.398  17.189   6.821  0.00  0.00     0.017 A 
HETATM   31  C   UNK N   1      29.894  17.158   8.134  0.00  0.00     0.002 A 
HETATM   32  C   UNK N   1      31.276  17.256   8.363  0.00  0.00     0.016 A 
HETATM   33  C   UNK N   1      32.157  17.363   7.276  0.00  0.00     0.048 A 
HETATM   34  C   UNK N   1      31.660  17.323   5.989  0.00  0.00     0.033 A 
BRANCH  33  35
HETATM   35  C   UNK N   1      33.620  17.606   7.437  0.00  0.00     0.417 C 
HETATM   36  F   UNK N   1      33.865  18.836   8.013  0.00  0.00    -0.166 F 
HETATM   37  F   UNK N   1      34.178  16.609   8.216  0.00  0.00    -0.166 F 
HETATM   38  F   UNK N   1      34.203  17.572   6.181  0.00  0.00    -0.166 F 
ENDBRANCH  33  35
ENDBRANCH  26  29
ENDBRANCH   1  25
TORSDOF 6
ENDMDL
MODEL 7
REMARK VINA RESULT:      -8.5      7.763     12.775
REMARK  6 active torsions:
REMARK  status: ('A' for Active; 'I' for Inactive)
REMARK    1  A    between atoms: C_1  and  N_8 
REMARK    2  A    between atoms: C_3  and  N_20 
REMARK       I    between atoms: N_8  and  C_9 
REMARK    3  A    between atoms: C_9  and  C_11 
REMARK    4  A    between atoms: C_13  and  C_16 
REMARK    5  A    between atoms: N_20  and  C_27 
REMARK    6  A    between atoms: C_21  and  C_35 
ROOT
HETATM    1  C   UNK N   1      27.678  18.365   4.526  0.00  0.00     0.037 C 
HETATM    2  C   UNK N   1      26.440  17.753   4.492  0.00  0.00     0.059 C 
HETATM    3  C   UNK N   1      25.311  18.389   4.005  0.00  0.00     0.041 C 
HETATM    4  C   UNK N   1      25.449  19.731   3.525  0.00  0.00    -0.035 C 
HETATM    5  C   UNK N   1      26.654  20.403   3.736  0.00  0.00     0.011 C 
HETATM    6  C   UNK N   1      27.755  19.728   4.238  0.00  0.00     0.030 C 
HETATM    7  C   UNK N   1      24.432  20.490   2.768  0.00  0.00     0.050 C 
ENDROOT
BRANCH   3   8
HETATM    8  N   UNK N   1      24.150  17.557   3.949  0.00  0.00    -0.341 N 
HETATM    9  H   UNK N   1      23.898  17.331   3.024  0.00  0.00     0.167 HD
BRANCH   8  10
HETATM   10  C   UNK N   1      23.282  16.983   4.895  0.00  0.00     0.118 A 
HETATM   11  C   UNK N   1      21.884  17.242   4.838  0.00  0.00     0.035 A 
HETATM   12  C   UNK N   1      21.058  16.641   5.790  0.00  0.00     0.019 A 
HETATM   13  C   UNK N   1      21.589  15.813   6.776  0.00  0.00     0.018 A 
HETATM   14  C   UNK N   1      22.960  15.592   6.805  0.00  0.00     0.090 A 
HETATM   15  N   UNK N   1      23.756  16.172   5.884  0.00  0.00    -0.352 N 
ATOM     16  HN  UNK N   1      24.760  15.998   5.930  1.00  0.00     0.166 HD
BRANCH  11  17
HETATM   17  C   UNK N   1      21.241  18.113   3.798  0.00  0.00     0.048 A 
HETATM   18  C   UNK N   1      21.068  19.491   3.969  0.00  0.00     0.047 A 
HETATM   19  C   UNK N   1      20.476  20.232   2.948  0.00  0.00     0.091 A 
HETATM   20  N   UNK N   1      20.079  19.616   1.805  0.00  0.00    -0.362 N 
HETATM   21  C   UNK N   1      20.248  18.279   1.646  0.00  0.00     0.180 A 
ATOM     22  HN  UNK N   1      19.651  20.163   1.058  1.00  0.00     0.165 HD
HETATM   23  N   UNK N   1      20.820  17.538   2.633  0.00  0.00    -0.352 N 
ATOM     24  HN  UNK N   1      20.937  16.534   2.501  1.00  0.00     0.166 HD
ENDBRANCH  11  17
ENDBRANCH   8  10
ENDBRANCH   3   8
BRANCH   1  25
HETATM   25  N   UNK N   1      28.677  17.611   3.898  0.00  0.00    -0.323 N 
HETATM   26  C   UNK N   1      29.876  17.207   4.325  0.00  0.00     0.256 C 
HETATM   27  O   UNK N   1      30.667  16.806   3.488  0.00  0.00    -0.267 OA
HETATM   28  H   UNK N   1      28.458  17.330   2.980  0.00  0.00     0.169 HD
BRANCH  26  29
HETATM   29  C   UNK N   1      30.306  17.291   5.713  0.00  0.00     0.033 A 
HETATM   30  C   UNK N   1      31.633  17.092   6.123  0.00  0.00     0.017 A 
HETATM   31  C   UNK N   1      31.968  17.269   7.474  0.00  0.00     0.002 A 
HETATM   32  C   UNK N   1      30.968  17.579   8.409  0.00  0.00     0.016 A 
HETATM   33  C   UNK N   1      29.639  17.731   7.983  0.00  0.00     0.048 A 
HETATM   34  C   UNK N   1      29.335  17.621   6.641  0.00  0.00     0.033 A 
BRANCH  33  35
HETATM   35  C   UNK N   1      28.500  17.926   8.928  0.00  0.00     0.417 C 
HETATM   36  F   UNK N   1      27.824  19.101   8.665  0.00  0.00    -0.166 F 
HETATM   37  F   UNK N   1      27.627  16.858   8.837  0.00  0.00    -0.166 F 
HETATM   38  F   UNK N   1      29.012  17.979  10.214  0.00  0.00    -0.166 F 
ENDBRANCH  33  35
ENDBRANCH  26  29
ENDBRANCH   1  25
TORSDOF 6
ENDMDL
MODEL 8
REMARK VINA RESULT:      -8.3      9.340     13.593
REMARK  6 active torsions:
REMARK  status: ('A' for Active; 'I' for Inactive)
REMARK    1  A    between atoms: C_1  and  N_8 
REMARK    2  A    between atoms: C_3  and  N_20 
REMARK       I    between atoms: N_8  and  C_9 
REMARK    3  A    between atoms: C_9  and  C_11 
REMARK    4  A    between atoms: C_13  and  C_16 
REMARK    5  A    between atoms: N_20  and  C_27 
REMARK    6  A    between atoms: C_21  and  C_35 
ROOT
HETATM    1  C   UNK N   1      22.481  14.903   6.292  0.00  0.00     0.037 C 
HETATM    2  C   UNK N   1      22.949  16.202   6.251  0.00  0.00     0.059 C 
HETATM    3  C   UNK N   1      23.783  16.660   5.245  0.00  0.00     0.041 C 
HETATM    4  C   UNK N   1      24.165  15.738   4.218  0.00  0.00    -0.035 C 
HETATM    5  C   UNK N   1      23.843  14.389   4.368  0.00  0.00     0.011 C 
HETATM    6  C   UNK N   1      23.015  13.975   5.398  0.00  0.00     0.030 C 
HETATM    7  C   UNK N   1      24.850  16.083   2.955  0.00  0.00     0.050 C 
ENDROOT
BRANCH   3   8
HETATM    8  N   UNK N   1      24.070  18.058   5.315  0.00  0.00    -0.341 N 
HETATM    9  H   UNK N   1      23.744  18.464   6.150  0.00  0.00     0.167 HD
BRANCH   8  10
HETATM   10  C   UNK N   1      24.706  18.993   4.478  0.00  0.00     0.118 A 
HETATM   11  C   UNK N   1      26.097  19.256   4.621  0.00  0.00     0.035 A 
HETATM   12  C   UNK N   1      26.690  20.182   3.760  0.00  0.00     0.019 A 
HETATM   13  C   UNK N   1      25.937  20.839   2.790  0.00  0.00     0.018 A 
HETATM   14  C   UNK N   1      24.580  20.563   2.687  0.00  0.00     0.090 A 
HETATM   15  N   UNK N   1      24.009  19.666   3.518  0.00  0.00    -0.352 N 
ATOM     16  HN  UNK N   1      23.010  19.485   3.426  1.00  0.00     0.166 HD
BRANCH  11  17
HETATM   17  C   UNK N   1      26.972  18.579   5.635  0.00  0.00     0.048 A 
HETATM   18  C   UNK N   1      27.503  17.300   5.439  0.00  0.00     0.047 A 
HETATM   19  C   UNK N   1      28.322  16.746   6.424  0.00  0.00     0.091 A 
HETATM   20  N   UNK N   1      28.596  17.451   7.552  0.00  0.00    -0.362 N 
HETATM   21  C   UNK N   1      28.075  18.690   7.737  0.00  0.00     0.180 A 
ATOM     22  HN  UNK N   1      29.199  17.045   8.268  1.00  0.00     0.165 HD
HETATM   23  N   UNK N   1      27.272  19.244   6.790  0.00  0.00    -0.352 N 
ATOM     24  HN  UNK N   1      26.885  20.175   6.944  1.00  0.00     0.166 HD
ENDBRANCH  11  17
ENDBRANCH   8  10
ENDBRANCH   3   8
BRANCH   1  25
HETATM   25  N   UNK N   1      21.086  14.830   6.397  0.00  0.00    -0.323 N 
HETATM   26  C   UNK N   1      20.118  15.312   5.614  0.00  0.00     0.256 C 
HETATM   27  O   UNK N   1      18.989  15.354   6.075  0.00  0.00    -0.267 OA
HETATM   28  H   UNK N   1      20.763  14.337   7.186  0.00  0.00     0.169 HD
BRANCH  26  29
HETATM   29  C   UNK N   1      20.353  15.852   4.283  0.00  0.00     0.033 A 
HETATM   30  C   UNK N   1      20.645  15.053   3.167  0.00  0.00     0.017 A 
HETATM   31  C   UNK N   1      20.780  15.656   1.908  0.00  0.00     0.002 A 
HETATM   32  C   UNK N   1      20.688  17.052   1.786  0.00  0.00     0.016 A 
HETATM   33  C   UNK N   1      20.439  17.835   2.923  0.00  0.00     0.048 A 
HETATM   34  C   UNK N   1      20.240  17.223   4.144  0.00  0.00     0.033 A 
BRANCH  33  35
HETATM   35  C   UNK N   1      20.460  19.327   2.903  0.00  0.00     0.417 C 
HETATM   36  F   UNK N   1      21.295  19.805   1.912  0.00  0.00    -0.166 F 
HETATM   37  F   UNK N   1      19.180  19.812   2.705  0.00  0.00    -0.166 F 
HETATM   38  F   UNK N   1      20.921  19.769   4.132  0.00  0.00    -0.166 F 
ENDBRANCH  33  35
ENDBRANCH  26  29
ENDBRANCH   1  25
TORSDOF 6
ENDMDL
MODEL 9
REMARK VINA RESULT:      -8.3     16.263     19.863
REMARK  6 active torsions:
REMARK  status: ('A' for Active; 'I' for Inactive)
REMARK    1  A    between atoms: C_1  and  N_8 
REMARK    2  A    between atoms: C_3  and  N_20 
REMARK       I    between atoms: N_8  and  C_9 
REMARK    3  A    between atoms: C_9  and  C_11 
REMARK    4  A    between atoms: C_13  and  C_16 
REMARK    5  A    between atoms: N_20  and  C_27 
REMARK    6  A    between atoms: C_21  and  C_35 
ROOT
HETATM    1  C   UNK N   1      31.128  25.155  -4.168  0.00  0.00     0.037 C 
HETATM    2  C   UNK N   1      30.003  25.150  -4.970  0.00  0.00     0.059 C 
HETATM    3  C   UNK N   1      30.026  24.699  -6.279  0.00  0.00     0.041 C 
HETATM    4  C   UNK N   1      31.271  24.224  -6.804  0.00  0.00    -0.035 C 
HETATM    5  C   UNK N   1      32.434  24.408  -6.055  0.00  0.00     0.011 C 
HETATM    6  C   UNK N   1      32.363  24.875  -4.753  0.00  0.00     0.030 C 
HETATM    7  C   UNK N   1      31.454  23.501  -8.079  0.00  0.00     0.050 C 
ENDROOT
BRANCH   3   8
HETATM    8  N   UNK N   1      28.744  24.668  -6.909  0.00  0.00    -0.341 N 
HETATM    9  H   UNK N   1      28.537  25.511  -7.374  0.00  0.00     0.167 HD
BRANCH   8  10
HETATM   10  C   UNK N   1      27.707  23.725  -7.024  0.00  0.00     0.118 A 
HETATM   11  C   UNK N   1      26.466  23.936  -6.360  0.00  0.00     0.035 A 
HETATM   12  C   UNK N   1      25.460  22.980  -6.514  0.00  0.00     0.019 A 
HETATM   13  C   UNK N   1      25.667  21.843  -7.291  0.00  0.00     0.018 A 
HETATM   14  C   UNK N   1      26.895  21.667  -7.915  0.00  0.00     0.090 A 
HETATM   15  N   UNK N   1      27.866  22.592  -7.768  0.00  0.00    -0.352 N 
ATOM     16  HN  UNK N   1      28.760  22.437  -8.232  1.00  0.00     0.166 HD
BRANCH  11  17
HETATM   17  C   UNK N   1      26.168  25.142  -5.517  0.00  0.00     0.048 A 
HETATM   18  C   UNK N   1      26.578  25.250  -4.184  0.00  0.00     0.047 A 
HETATM   19  C   UNK N   1      26.276  26.411  -3.474  0.00  0.00     0.091 A 
HETATM   20  N   UNK N   1      25.594  27.418  -4.079  0.00  0.00    -0.362 N 
HETATM   21  C   UNK N   1      25.197  27.305  -5.371  0.00  0.00     0.180 A 
ATOM     22  HN  UNK N   1      25.379  28.268  -3.557  1.00  0.00     0.165 HD
HETATM   23  N   UNK N   1      25.480  26.179  -6.079  0.00  0.00    -0.352 N 
ATOM     24  HN  UNK N   1      25.172  26.107  -7.048  1.00  0.00     0.166 HD
ENDBRANCH  11  17
ENDBRANCH   8  10
ENDBRANCH   3   8
BRANCH   1  25
HETATM   25  N   UNK N   1      30.932  24.495  -2.949  0.00  0.00    -0.323 N 
HETATM   26  C   UNK N   1      30.800  23.197  -2.662  0.00  0.00     0.256 C 
HETATM   27  O   UNK N   1      30.358  22.905  -1.563  0.00  0.00    -0.267 OA
HETATM   28  H   UNK N   1      30.881  25.091  -2.167  0.00  0.00     0.169 HD
BRANCH  26  29
HETATM   29  C   UNK N   1      31.085  22.130  -3.609  0.00  0.00     0.033 A 
HETATM   30  C   UNK N   1      30.149  21.654  -4.539  0.00  0.00     0.017 A 
HETATM   31  C   UNK N   1      30.538  20.674  -5.465  0.00  0.00     0.002 A 
HETATM   32  C   UNK N   1      31.834  20.136  -5.412  0.00  0.00     0.016 A 
HETATM   33  C   UNK N   1      32.741  20.597  -4.445  0.00  0.00     0.048 A 
HETATM   34  C   UNK N   1      32.366  21.608  -3.585  0.00  0.00     0.033 A 
BRANCH  33  35
HETATM   35  C   UNK N   1      34.085  19.984  -4.236  0.00  0.00     0.417 C 
HETATM   36  F   UNK N   1      34.738  19.780  -5.435  0.00  0.00    -0.166 F 
HETATM   37  F   UNK N   1      34.851  20.801  -3.424  0.00  0.00    -0.166 F 
HETATM   38  F   UNK N   1      33.909  18.763  -3.605  0.00  0.00    -0.166 F 
ENDBRANCH  33  35
ENDBRANCH  26  29
ENDBRANCH   1  25
TORSDOF 6
ENDMDL
