MODEL 1
REMARK VINA RESULT:      -4.7      0.000      0.000
REMARK  12 active torsions:
REMARK  status: ('A' for Active; 'I' for Inactive)
REMARK    1  A    between atoms: C_1  and  C_2 
REMARK    2  A    between atoms: C_1  and  P_16 
REMARK    3  A    between atoms: C_2  and  C_3 
REMARK    4  A    between atoms: C_3  and  C_4 
REMARK    5  A    between atoms: C_4  and  C_5 
REMARK    6  A    between atoms: C_5  and  C_6 
REMARK    7  A    between atoms: C_6  and  C_7 
REMARK    8  A    between atoms: C_7  and  C_8 
REMARK    9  A    between atoms: C_8  and  C_9 
REMARK   10  A    between atoms: C_9  and  C_10 
REMARK   11  A    between atoms: P_16  and  O_14 
REMARK   12  A    between atoms: P_16  and  O_15 
ROOT
HETATM    1  C   UNK N   1      30.968  16.791   6.627  0.00  0.00     0.001 C 
ENDROOT
BRANCH   1   2
HETATM    2  C   UNK N   1      31.526  16.773   8.041  0.00  0.00     0.012 C 
BRANCH   2   3
HETATM    3  C   UNK N   1      32.343  18.017   8.359  0.00  0.00     0.125 C 
BRANCH   3   4
HETATM    4  P   UNK N   1      34.134  17.818   7.861  0.00  0.00     0.237 P 
HETATM    5  O   UNK N   1      34.288  17.922   6.317  0.00  0.00    -0.653 OA
BRANCH   4   6
HETATM    6  O   UNK N   1      34.900  16.312   8.274  0.00  0.00    -0.324 OA
HETATM    7  C   UNK N   1      34.924  15.567   7.093  0.00  0.00     0.212 C 
ENDBRANCH   4   6
BRANCH   4   8
HETATM    8  O   UNK N   1      35.168  19.077   8.461  0.00  0.00    -0.329 OA
HETATM    9  H   UNK N   1      35.897  19.712   8.528  0.00  0.00     0.220 HD
ENDBRANCH   4   8
ENDBRANCH   3   4
ENDBRANCH   2   3
ENDBRANCH   1   2
BRANCH   1  10
HETATM   10  C   UNK N   1      29.655  17.558   6.592  0.00  0.00     0.000 C 
BRANCH  10  11
HETATM   11  C   UNK N   1      28.780  17.058   5.458  0.00  0.00     0.000 C 
BRANCH  11  12
HETATM   12  C   UNK N   1      27.358  17.541   5.645  0.00  0.00     0.000 C 
BRANCH  12  13
HETATM   13  C   UNK N   1      26.910  18.212   4.365  0.00  0.00     0.000 C 
BRANCH  13  14
HETATM   14  C   UNK N   1      27.638  19.526   4.186  0.00  0.00     0.000 C 
BRANCH  14  15
HETATM   15  C   UNK N   1      26.762  20.635   4.729  0.00  0.00    -0.000 C 
BRANCH  15  16
HETATM   16  C   UNK N   1      27.412  21.260   5.944  0.00  0.00    -0.005 C 
HETATM   17  C   UNK N   1      26.434  21.236   7.099  0.00  0.00     0.005 C 
ENDBRANCH  15  16
ENDBRANCH  14  15
ENDBRANCH  13  14
ENDBRANCH  12  13
ENDBRANCH  11  12
ENDBRANCH  10  11
ENDBRANCH   1  10
TORSDOF 12
ENDMDL
MODEL 2
REMARK VINA RESULT:      -4.6     11.119     13.064
REMARK  12 active torsions:
REMARK  status: ('A' for Active; 'I' for Inactive)
REMARK    1  A    between atoms: C_1  and  C_2 
REMARK    2  A    between atoms: C_1  and  P_16 
REMARK    3  A    between atoms: C_2  and  C_3 
REMARK    4  A    between atoms: C_3  and  C_4 
REMARK    5  A    between atoms: C_4  and  C_5 
REMARK    6  A    between atoms: C_5  and  C_6 
REMARK    7  A    between atoms: C_6  and  C_7 
REMARK    8  A    between atoms: C_7  and  C_8 
REMARK    9  A    between atoms: C_8  and  C_9 
REMARK   10  A    between atoms: C_9  and  C_10 
REMARK   11  A    between atoms: P_16  and  O_14 
REMARK   12  A    between atoms: P_16  and  O_15 
ROOT
HETATM    1  C   UNK N   1      29.018  24.937  -4.419  0.00  0.00     0.001 C 
ENDROOT
BRANCH   1   2
HETATM    2  C   UNK N   1      30.192  24.153  -4.985  0.00  0.00     0.012 C 
BRANCH   2   3
HETATM    3  C   UNK N   1      31.318  23.982  -3.975  0.00  0.00     0.125 C 
BRANCH   3   4
HETATM    4  P   UNK N   1      31.005  22.545  -2.820  0.00  0.00     0.237 P 
HETATM    5  O   UNK N   1      30.306  23.030  -1.519  0.00  0.00    -0.653 OA
BRANCH   4   6
HETATM    6  O   UNK N   1      32.402  21.670  -2.263  0.00  0.00    -0.324 OA
HETATM    7  C   UNK N   1      33.027  21.189  -3.415  0.00  0.00     0.212 C 
ENDBRANCH   4   6
BRANCH   4   8
HETATM    8  O   UNK N   1      29.907  21.362  -3.460  0.00  0.00    -0.329 OA
HETATM    9  H   UNK N   1      29.115  20.960  -3.849  0.00  0.00     0.220 HD
ENDBRANCH   4   8
ENDBRANCH   3   4
ENDBRANCH   2   3
ENDBRANCH   1   2
BRANCH   1  10
HETATM   10  C   UNK N   1      27.754  24.092  -4.466  0.00  0.00     0.000 C 
BRANCH  10  11
HETATM   11  C   UNK N   1      26.604  24.825  -3.801  0.00  0.00     0.000 C 
BRANCH  11  12
HETATM   12  C   UNK N   1      26.934  26.295  -3.661  0.00  0.00     0.000 C 
BRANCH  12  13
HETATM   13  C   UNK N   1      25.833  27.096  -4.323  0.00  0.00     0.000 C 
BRANCH  13  14
HETATM   14  C   UNK N   1      26.429  28.098  -5.286  0.00  0.00     0.000 C 
BRANCH  14  15
HETATM   15  C   UNK N   1      26.795  27.373  -6.564  0.00  0.00    -0.000 C 
BRANCH  15  16
HETATM   16  C   UNK N   1      25.626  26.540  -7.041  0.00  0.00    -0.005 C 
HETATM   17  C   UNK N   1      26.143  25.228  -7.592  0.00  0.00     0.005 C 
ENDBRANCH  15  16
ENDBRANCH  14  15
ENDBRANCH  13  14
ENDBRANCH  12  13
ENDBRANCH  11  12
ENDBRANCH  10  11
ENDBRANCH   1  10
TORSDOF 12
ENDMDL
MODEL 3
REMARK VINA RESULT:      -4.6     11.152     12.723
REMARK  12 active torsions:
REMARK  status: ('A' for Active; 'I' for Inactive)
REMARK    1  A    between atoms: C_1  and  C_2 
REMARK    2  A    between atoms: C_1  and  P_16 
REMARK    3  A    between atoms: C_2  and  C_3 
REMARK    4  A    between atoms: C_3  and  C_4 
REMARK    5  A    between atoms: C_4  and  C_5 
REMARK    6  A    between atoms: C_5  and  C_6 
REMARK    7  A    between atoms: C_6  and  C_7 
REMARK    8  A    between atoms: C_7  and  C_8 
REMARK    9  A    between atoms: C_8  and  C_9 
REMARK   10  A    between atoms: C_9  and  C_10 
REMARK   11  A    between atoms: P_16  and  O_14 
REMARK   12  A    between atoms: P_16  and  O_15 
ROOT
HETATM    1  C   UNK N   1      29.386  25.093  -3.947  0.00  0.00     0.001 C 
ENDROOT
BRANCH   1   2
HETATM    2  C   UNK N   1      30.868  25.052  -3.613  0.00  0.00     0.012 C 
BRANCH   2   3
HETATM    3  C   UNK N   1      31.524  23.746  -4.035  0.00  0.00     0.125 C 
BRANCH   3   4
HETATM    4  P   UNK N   1      31.167  22.365  -2.825  0.00  0.00     0.237 P 
HETATM    5  O   UNK N   1      30.447  22.916  -1.562  0.00  0.00    -0.653 OA
BRANCH   4   6
HETATM    6  O   UNK N   1      32.539  21.498  -2.199  0.00  0.00    -0.324 OA
HETATM    7  C   UNK N   1      33.279  21.109  -3.318  0.00  0.00     0.212 C 
ENDBRANCH   4   6
BRANCH   4   8
HETATM    8  O   UNK N   1      30.067  21.170  -3.436  0.00  0.00    -0.329 OA
HETATM    9  H   UNK N   1      29.255  20.746  -3.754  0.00  0.00     0.220 HD
ENDBRANCH   4   8
ENDBRANCH   3   4
ENDBRANCH   2   3
ENDBRANCH   1   2
BRANCH   1  10
HETATM   10  C   UNK N   1      29.192  25.194  -5.452  0.00  0.00     0.000 C 
BRANCH  10  11
HETATM   11  C   UNK N   1      27.838  24.638  -5.850  0.00  0.00     0.000 C 
BRANCH  11  12
HETATM   12  C   UNK N   1      27.064  24.221  -4.619  0.00  0.00     0.000 C 
BRANCH  12  13
HETATM   13  C   UNK N   1      25.785  25.028  -4.563  0.00  0.00     0.000 C 
BRANCH  13  14
HETATM   14  C   UNK N   1      25.455  25.572  -5.935  0.00  0.00     0.000 C 
BRANCH  14  15
HETATM   15  C   UNK N   1      25.005  27.009  -5.783  0.00  0.00    -0.000 C 
BRANCH  15  16
HETATM   16  C   UNK N   1      25.505  27.574  -4.472  0.00  0.00    -0.005 C 
HETATM   17  C   UNK N   1      26.465  28.709  -4.754  0.00  0.00     0.005 C 
ENDBRANCH  15  16
ENDBRANCH  14  15
ENDBRANCH  13  14
ENDBRANCH  12  13
ENDBRANCH  11  12
ENDBRANCH  10  11
ENDBRANCH   1  10
TORSDOF 12
ENDMDL
MODEL 4
REMARK VINA RESULT:      -4.6      8.097      9.687
REMARK  12 active torsions:
REMARK  status: ('A' for Active; 'I' for Inactive)
REMARK    1  A    between atoms: C_1  and  C_2 
REMARK    2  A    between atoms: C_1  and  P_16 
REMARK    3  A    between atoms: C_2  and  C_3 
REMARK    4  A    between atoms: C_3  and  C_4 
REMARK    5  A    between atoms: C_4  and  C_5 
REMARK    6  A    between atoms: C_5  and  C_6 
REMARK    7  A    between atoms: C_6  and  C_7 
REMARK    8  A    between atoms: C_7  and  C_8 
REMARK    9  A    between atoms: C_8  and  C_9 
REMARK   10  A    between atoms: C_9  and  C_10 
REMARK   11  A    between atoms: P_16  and  O_14 
REMARK   12  A    between atoms: P_16  and  O_15 
ROOT
HETATM    1  C   UNK N   1      25.443  20.240   3.407  0.00  0.00     0.001 C 
ENDROOT
BRANCH   1   2
HETATM    2  C   UNK N   1      24.036  20.684   3.040  0.00  0.00     0.012 C 
BRANCH   2   3
HETATM    3  C   UNK N   1      22.985  19.644   3.401  0.00  0.00     0.125 C 
BRANCH   3   4
HETATM    4  P   UNK N   1      21.278  20.153   2.832  0.00  0.00     0.237 P 
HETATM    5  O   UNK N   1      20.351  20.417   4.051  0.00  0.00    -0.653 OA
BRANCH   4   6
HETATM    6  O   UNK N   1      20.403  19.006   1.860  0.00  0.00    -0.324 OA
HETATM    7  C   UNK N   1      19.309  18.617   2.634  0.00  0.00     0.212 C 
ENDBRANCH   4   6
BRANCH   4   8
HETATM    8  O   UNK N   1      21.253  21.655   1.963  0.00  0.00    -0.329 OA
HETATM    9  H   UNK N   1      21.539  22.414   1.431  0.00  0.00     0.220 HD
ENDBRANCH   4   8
ENDBRANCH   3   4
ENDBRANCH   2   3
ENDBRANCH   1   2
BRANCH   1  10
HETATM   10  C   UNK N   1      25.500  18.724   3.519  0.00  0.00     0.000 C 
BRANCH  10  11
HETATM   11  C   UNK N   1      25.949  18.313   4.909  0.00  0.00     0.000 C 
BRANCH  11  12
HETATM   12  C   UNK N   1      27.425  18.596   5.085  0.00  0.00     0.000 C 
BRANCH  12  13
HETATM   13  C   UNK N   1      27.594  19.535   6.260  0.00  0.00     0.000 C 
BRANCH  13  14
HETATM   14  C   UNK N   1      27.883  20.935   5.767  0.00  0.00     0.000 C 
BRANCH  14  15
HETATM   15  C   UNK N   1      26.921  21.888   6.444  0.00  0.00    -0.000 C 
BRANCH  15  16
HETATM   16  C   UNK N   1      26.032  21.131   7.406  0.00  0.00    -0.005 C 
HETATM   17  C   UNK N   1      25.501  22.090   8.450  0.00  0.00     0.005 C 
ENDBRANCH  15  16
ENDBRANCH  14  15
ENDBRANCH  13  14
ENDBRANCH  12  13
ENDBRANCH  11  12
ENDBRANCH  10  11
ENDBRANCH   1  10
TORSDOF 12
ENDMDL
MODEL 5
REMARK VINA RESULT:      -4.5      1.389      2.125
REMARK  12 active torsions:
REMARK  status: ('A' for Active; 'I' for Inactive)
REMARK    1  A    between atoms: C_1  and  C_2 
REMARK    2  A    between atoms: C_1  and  P_16 
REMARK    3  A    between atoms: C_2  and  C_3 
REMARK    4  A    between atoms: C_3  and  C_4 
REMARK    5  A    between atoms: C_4  and  C_5 
REMARK    6  A    between atoms: C_5  and  C_6 
REMARK    7  A    between atoms: C_6  and  C_7 
REMARK    8  A    between atoms: C_7  and  C_8 
REMARK    9  A    between atoms: C_8  and  C_9 
REMARK   10  A    between atoms: C_9  and  C_10 
REMARK   11  A    between atoms: P_16  and  O_14 
REMARK   12  A    between atoms: P_16  and  O_15 
ROOT
HETATM    1  C   UNK N   1      30.502  18.569   8.976  0.00  0.00     0.001 C 
ENDROOT
BRANCH   1   2
HETATM    2  C   UNK N   1      31.154  17.239   8.633  0.00  0.00     0.012 C 
BRANCH   2   3
HETATM    3  C   UNK N   1      31.829  17.257   7.269  0.00  0.00     0.125 C 
BRANCH   3   4
HETATM    4  P   UNK N   1      33.687  17.402   7.414  0.00  0.00     0.237 P 
HETATM    5  O   UNK N   1      34.322  17.713   6.029  0.00  0.00    -0.653 OA
BRANCH   4   6
HETATM    6  O   UNK N   1      34.541  15.994   7.977  0.00  0.00    -0.324 OA
HETATM    7  C   UNK N   1      35.075  15.398   6.834  0.00  0.00     0.212 C 
ENDBRANCH   4   6
BRANCH   4   8
HETATM    8  O   UNK N   1      34.208  18.724   8.411  0.00  0.00    -0.329 OA
HETATM    9  H   UNK N   1      34.268  19.607   8.807  0.00  0.00     0.220 HD
ENDBRANCH   4   8
ENDBRANCH   3   4
ENDBRANCH   2   3
ENDBRANCH   1   2
BRANCH   1  10
HETATM   10  C   UNK N   1      29.042  18.356   9.345  0.00  0.00     0.000 C 
BRANCH  10  11
HETATM   11  C   UNK N   1      28.310  17.646   8.222  0.00  0.00     0.000 C 
BRANCH  11  12
HETATM   12  C   UNK N   1      28.276  18.521   6.987  0.00  0.00     0.000 C 
BRANCH  12  13
HETATM   13  C   UNK N   1      27.624  19.837   7.354  0.00  0.00     0.000 C 
BRANCH  13  14
HETATM   14  C   UNK N   1      27.710  20.799   6.190  0.00  0.00     0.000 C 
BRANCH  14  15
HETATM   15  C   UNK N   1      26.304  21.128   5.737  0.00  0.00    -0.000 C 
BRANCH  15  16
HETATM   16  C   UNK N   1      25.899  20.215   4.600  0.00  0.00    -0.005 C 
HETATM   17  C   UNK N   1      27.070  20.048   3.656  0.00  0.00     0.005 C 
ENDBRANCH  15  16
ENDBRANCH  14  15
ENDBRANCH  13  14
ENDBRANCH  12  13
ENDBRANCH  11  12
ENDBRANCH  10  11
ENDBRANCH   1  10
TORSDOF 12
ENDMDL
MODEL 6
REMARK VINA RESULT:      -4.4     11.179     14.324
REMARK  12 active torsions:
REMARK  status: ('A' for Active; 'I' for Inactive)
REMARK    1  A    between atoms: C_1  and  C_2 
REMARK    2  A    between atoms: C_1  and  P_16 
REMARK    3  A    between atoms: C_2  and  C_3 
REMARK    4  A    between atoms: C_3  and  C_4 
REMARK    5  A    between atoms: C_4  and  C_5 
REMARK    6  A    between atoms: C_5  and  C_6 
REMARK    7  A    between atoms: C_6  and  C_7 
REMARK    8  A    between atoms: C_7  and  C_8 
REMARK    9  A    between atoms: C_8  and  C_9 
REMARK   10  A    between atoms: C_9  and  C_10 
REMARK   11  A    between atoms: P_16  and  O_14 
REMARK   12  A    between atoms: P_16  and  O_15 
ROOT
HETATM    1  C   UNK N   1      35.359  12.264  17.168  0.00  0.00     0.001 C 
ENDROOT
BRANCH   1   2
HETATM    2  C   UNK N   1      34.708  12.906  15.954  0.00  0.00     0.012 C 
BRANCH   2   3
HETATM    3  C   UNK N   1      35.202  12.309  14.644  0.00  0.00     0.125 C 
BRANCH   3   4
HETATM    4  P   UNK N   1      36.024  13.591  13.560  0.00  0.00     0.237 P 
HETATM    5  O   UNK N   1      36.682  14.701  14.427  0.00  0.00    -0.653 OA
BRANCH   4   6
HETATM    6  O   UNK N   1      34.998  14.454  12.452  0.00  0.00    -0.324 OA
HETATM    7  C   UNK N   1      35.828  15.379  11.816  0.00  0.00     0.212 C 
ENDBRANCH   4   6
BRANCH   4   8
HETATM    8  O   UNK N   1      37.345  12.967  12.622  0.00  0.00    -0.329 OA
HETATM    9  H   UNK N   1      37.960  12.347  12.201  0.00  0.00     0.220 HD
ENDBRANCH   4   8
ENDBRANCH   3   4
ENDBRANCH   2   3
ENDBRANCH   1   2
BRANCH   1  10
HETATM   10  C   UNK N   1      35.151  13.138  18.396  0.00  0.00     0.000 C 
BRANCH  10  11
HETATM   11  C   UNK N   1      35.261  12.307  19.660  0.00  0.00     0.000 C 
BRANCH  11  12
HETATM   12  C   UNK N   1      35.653  10.886  19.319  0.00  0.00     0.000 C 
BRANCH  12  13
HETATM   13  C   UNK N   1      35.036   9.961  20.345  0.00  0.00     0.000 C 
BRANCH  13  14
HETATM   14  C   UNK N   1      33.841   9.250  19.750  0.00  0.00     0.000 C 
BRANCH  14  15
HETATM   15  C   UNK N   1      33.037   8.640  20.878  0.00  0.00    -0.000 C 
BRANCH  15  16
HETATM   16  C   UNK N   1      31.580   9.022  20.742  0.00  0.00    -0.005 C 
HETATM   17  C   UNK N   1      30.844   7.922  20.008  0.00  0.00     0.005 C 
ENDBRANCH  15  16
ENDBRANCH  14  15
ENDBRANCH  13  14
ENDBRANCH  12  13
ENDBRANCH  11  12
ENDBRANCH  10  11
ENDBRANCH   1  10
TORSDOF 12
ENDMDL
MODEL 7
REMARK VINA RESULT:      -4.4      7.286      9.508
REMARK  12 active torsions:
REMARK  status: ('A' for Active; 'I' for Inactive)
REMARK    1  A    between atoms: C_1  and  C_2 
REMARK    2  A    between atoms: C_1  and  P_16 
REMARK    3  A    between atoms: C_2  and  C_3 
REMARK    4  A    between atoms: C_3  and  C_4 
REMARK    5  A    between atoms: C_4  and  C_5 
REMARK    6  A    between atoms: C_5  and  C_6 
REMARK    7  A    between atoms: C_6  and  C_7 
REMARK    8  A    between atoms: C_7  and  C_8 
REMARK    9  A    between atoms: C_8  and  C_9 
REMARK   10  A    between atoms: C_9  and  C_10 
REMARK   11  A    between atoms: P_16  and  O_14 
REMARK   12  A    between atoms: P_16  and  O_15 
ROOT
HETATM    1  C   UNK N   1      25.153  18.461   3.789  0.00  0.00     0.001 C 
ENDROOT
BRANCH   1   2
HETATM    2  C   UNK N   1      23.931  18.889   4.586  0.00  0.00     0.012 C 
BRANCH   2   3
HETATM    3  C   UNK N   1      22.633  18.366   3.987  0.00  0.00     0.125 C 
BRANCH   3   4
HETATM    4  P   UNK N   1      21.647  19.727   3.168  0.00  0.00     0.237 P 
HETATM    5  O   UNK N   1      20.526  20.238   4.115  0.00  0.00    -0.653 OA
BRANCH   4   6
HETATM    6  O   UNK N   1      20.817  19.314   1.695  0.00  0.00    -0.324 OA
HETATM    7  C   UNK N   1      20.132  18.129   1.971  0.00  0.00     0.212 C 
ENDBRANCH   4   6
BRANCH   4   8
HETATM    8  O   UNK N   1      22.577  21.152   2.825  0.00  0.00    -0.329 OA
HETATM    9  H   UNK N   1      23.316  21.779   2.784  0.00  0.00     0.220 HD
ENDBRANCH   4   8
ENDBRANCH   3   4
ENDBRANCH   2   3
ENDBRANCH   1   2
BRANCH   1  10
HETATM   10  C   UNK N   1      25.582  19.580   2.851  0.00  0.00     0.000 C 
BRANCH  10  11
HETATM   11  C   UNK N   1      26.377  20.628   3.607  0.00  0.00     0.000 C 
BRANCH  11  12
HETATM   12  C   UNK N   1      27.590  19.995   4.255  0.00  0.00     0.000 C 
BRANCH  12  13
HETATM   13  C   UNK N   1      27.795  20.636   5.610  0.00  0.00     0.000 C 
BRANCH  13  14
HETATM   14  C   UNK N   1      27.499  19.637   6.706  0.00  0.00     0.000 C 
BRANCH  14  15
HETATM   15  C   UNK N   1      28.410  18.442   6.523  0.00  0.00    -0.000 C 
BRANCH  15  16
HETATM   16  C   UNK N   1      27.604  17.163   6.566  0.00  0.00    -0.005 C 
HETATM   17  C   UNK N   1      27.858  16.372   5.301  0.00  0.00     0.005 C 
ENDBRANCH  15  16
ENDBRANCH  14  15
ENDBRANCH  13  14
ENDBRANCH  12  13
ENDBRANCH  11  12
ENDBRANCH  10  11
ENDBRANCH   1  10
TORSDOF 12
ENDMDL
MODEL 8
REMARK VINA RESULT:      -4.4      7.480     11.604
REMARK  12 active torsions:
REMARK  status: ('A' for Active; 'I' for Inactive)
REMARK    1  A    between atoms: C_1  and  C_2 
REMARK    2  A    between atoms: C_1  and  P_16 
REMARK    3  A    between atoms: C_2  and  C_3 
REMARK    4  A    between atoms: C_3  and  C_4 
REMARK    5  A    between atoms: C_4  and  C_5 
REMARK    6  A    between atoms: C_5  and  C_6 
REMARK    7  A    between atoms: C_6  and  C_7 
REMARK    8  A    between atoms: C_7  and  C_8 
REMARK    9  A    between atoms: C_8  and  C_9 
REMARK   10  A    between atoms: C_9  and  C_10 
REMARK   11  A    between atoms: P_16  and  O_14 
REMARK   12  A    between atoms: P_16  and  O_15 
ROOT
HETATM    1  C   UNK N   1      36.824  12.846  14.901  0.00  0.00     0.001 C 
ENDROOT
BRANCH   1   2
HETATM    2  C   UNK N   1      36.266  13.810  13.866  0.00  0.00     0.012 C 
BRANCH   2   3
HETATM    3  C   UNK N   1      36.680  13.445  12.448  0.00  0.00     0.125 C 
BRANCH   3   4
HETATM    4  P   UNK N   1      35.915  14.590  11.183  0.00  0.00     0.237 P 
HETATM    5  O   UNK N   1      34.501  15.046  11.641  0.00  0.00    -0.653 OA
BRANCH   4   6
HETATM    6  O   UNK N   1      35.668  13.941   9.588  0.00  0.00    -0.324 OA
HETATM    7  C   UNK N   1      35.290  15.027   8.796  0.00  0.00     0.212 C 
ENDBRANCH   4   6
BRANCH   4   8
HETATM    8  O   UNK N   1      36.781  16.081  10.979  0.00  0.00    -0.329 OA
HETATM    9  H   UNK N   1      37.365  16.834  11.153  0.00  0.00     0.220 HD
ENDBRANCH   4   8
ENDBRANCH   3   4
ENDBRANCH   2   3
ENDBRANCH   1   2
BRANCH   1  10
HETATM   10  C   UNK N   1      35.880  12.752  16.090  0.00  0.00     0.000 C 
BRANCH  10  11
HETATM   11  C   UNK N   1      34.464  12.472  15.621  0.00  0.00     0.000 C 
BRANCH  11  12
HETATM   12  C   UNK N   1      34.244  10.980  15.492  0.00  0.00     0.000 C 
BRANCH  12  13
HETATM   13  C   UNK N   1      33.821  10.682  14.070  0.00  0.00     0.000 C 
BRANCH  13  14
HETATM   14  C   UNK N   1      34.831   9.771  13.409  0.00  0.00     0.000 C 
BRANCH  14  15
HETATM   15  C   UNK N   1      35.638   9.086  14.491  0.00  0.00    -0.000 C 
BRANCH  15  16
HETATM   16  C   UNK N   1      37.110   9.131  14.147  0.00  0.00    -0.005 C 
HETATM   17  C   UNK N   1      37.283   9.770  12.785  0.00  0.00     0.005 C 
ENDBRANCH  15  16
ENDBRANCH  14  15
ENDBRANCH  13  14
ENDBRANCH  12  13
ENDBRANCH  11  12
ENDBRANCH  10  11
ENDBRANCH   1  10
TORSDOF 12
ENDMDL
MODEL 9
REMARK VINA RESULT:      -4.4      1.938      2.722
REMARK  12 active torsions:
REMARK  status: ('A' for Active; 'I' for Inactive)
REMARK    1  A    between atoms: C_1  and  C_2 
REMARK    2  A    between atoms: C_1  and  P_16 
REMARK    3  A    between atoms: C_2  and  C_3 
REMARK    4  A    between atoms: C_3  and  C_4 
REMARK    5  A    between atoms: C_4  and  C_5 
REMARK    6  A    between atoms: C_5  and  C_6 
REMARK    7  A    between atoms: C_6  and  C_7 
REMARK    8  A    between atoms: C_7  and  C_8 
REMARK    9  A    between atoms: C_8  and  C_9 
REMARK   10  A    between atoms: C_9  and  C_10 
REMARK   11  A    between atoms: P_16  and  O_14 
REMARK   12  A    between atoms: P_16  and  O_15 
ROOT
HETATM    1  C   UNK N   1      32.192  17.229   7.294  0.00  0.00     0.001 C 
ENDROOT
BRANCH   1   2
HETATM    2  C   UNK N   1      32.872  17.827   8.515  0.00  0.00     0.012 C 
BRANCH   2   3
HETATM    3  C   UNK N   1      34.384  17.660   8.480  0.00  0.00     0.125 C 
BRANCH   3   4
HETATM    4  P   UNK N   1      34.961  16.300   9.625  0.00  0.00     0.237 P 
HETATM    5  O   UNK N   1      36.069  16.823  10.582  0.00  0.00    -0.653 OA
BRANCH   4   6
HETATM    6  O   UNK N   1      35.660  14.892   8.879  0.00  0.00    -0.324 OA
HETATM    7  C   UNK N   1      34.605  14.253   8.224  0.00  0.00     0.212 C 
ENDBRANCH   4   6
BRANCH   4   8
HETATM    8  O   UNK N   1      33.727  15.725  10.702  0.00  0.00    -0.329 OA
HETATM    9  H   UNK N   1      33.217  15.559  11.510  0.00  0.00     0.220 HD
ENDBRANCH   4   8
ENDBRANCH   3   4
ENDBRANCH   2   3
ENDBRANCH   1   2
BRANCH   1  10
HETATM   10  C   UNK N   1      30.710  17.026   7.568  0.00  0.00     0.000 C 
BRANCH  10  11
HETATM   11  C   UNK N   1      30.267  17.882   8.740  0.00  0.00     0.000 C 
BRANCH  11  12
HETATM   12  C   UNK N   1      29.028  18.669   8.372  0.00  0.00     0.000 C 
BRANCH  12  13
HETATM   13  C   UNK N   1      28.272  17.899   7.311  0.00  0.00     0.000 C 
BRANCH  13  14
HETATM   14  C   UNK N   1      27.811  18.839   6.219  0.00  0.00     0.000 C 
BRANCH  14  15
HETATM   15  C   UNK N   1      27.607  20.211   6.824  0.00  0.00    -0.000 C 
BRANCH  15  16
HETATM   16  C   UNK N   1      27.131  21.179   5.763  0.00  0.00    -0.005 C 
HETATM   17  C   UNK N   1      26.887  20.424   4.474  0.00  0.00     0.005 C 
ENDBRANCH  15  16
ENDBRANCH  14  15
ENDBRANCH  13  14
ENDBRANCH  12  13
ENDBRANCH  11  12
ENDBRANCH  10  11
ENDBRANCH   1  10
TORSDOF 12
ENDMDL
