REMARK  14 active torsions:
REMARK  status: ('A' for Active; 'I' for Inactive)
REMARK       I    between atoms: C_2  and  N_3 
REMARK    1  A    between atoms: C_2  and  C_5 
REMARK    2  A    between atoms: C_5  and  C_6 
REMARK    3  A    between atoms: C_6  and  C_7 
REMARK       I    between atoms: C_7  and  N_9 
REMARK    4  A    between atoms: C_10  and  N_9 
REMARK    5  A    between atoms: C_10  and  C_11 
REMARK    6  A    between atoms: C_10  and  C_18 
REMARK    7  A    between atoms: C_11  and  C_12 
REMARK    8  A    between atoms: C_18  and  C_20 
REMARK    9  A    between atoms: C_18  and  O_19 
REMARK   10  A    between atoms: C_20  and  N_21 
REMARK   11  A    between atoms: N_21  and  S_26 
REMARK   12  A    between atoms: N_21  and  C_22 
REMARK   13  A    between atoms: C_22  and  C_23 
REMARK   14  A    between atoms: S_26  and  C_29 
ROOT
HETATM    1  C   UNK N   1      -1.123   0.265   0.548  0.00  0.00     0.118 C 
ENDROOT
BRANCH   1   2
HETATM    2  N   UNK N   1      -1.722   0.033  -0.755  0.00  0.00    -0.354 N 
HETATM    3  C   UNK N   1      -2.940  -0.535  -0.965  0.00  0.00     0.218 C 
HETATM    4  O   UNK N   1      -3.327  -0.694  -2.112  0.00  0.00    -0.274 OA
HETATM    5  H   UNK N   1      -1.207   0.309  -1.547  0.00  0.00     0.163 HD
BRANCH   3   6
HETATM    6  C   UNK N   1      -3.835  -0.980   0.161  0.00  0.00     0.112 C 
BRANCH   6   7
HETATM    7  C   UNK N   1      -4.375   0.175   1.007  0.00  0.00     0.112 C 
BRANCH   7   8
HETATM    8  C   UNK N   1      -5.185   1.168   0.215  0.00  0.00     0.217 C 
HETATM    9  O   UNK N   1      -4.790   2.320   0.141  0.00  0.00    -0.274 OA
HETATM   10  N   UNK N   1      -6.345   0.825  -0.396  0.00  0.00    -0.365 N 
HETATM   11  C   UNK N   1      -6.893  -0.506  -0.338  0.00  0.00     0.149 C 
HETATM   12  H   UNK N   1      -6.834   1.515  -0.900  0.00  0.00     0.161 HD
ENDBRANCH   7   8
ENDBRANCH   6   7
ENDBRANCH   3   6
ENDBRANCH   1   2
BRANCH   1  13
HETATM   13  C   UNK N   1      -0.811  -1.033   1.315  0.00  0.00     0.066 C 
BRANCH  13  14
HETATM   14  C   UNK N   1       0.088  -2.052   0.692  0.00  0.00    -0.056 A 
HETATM   15  C   UNK N   1       1.307  -2.352   1.310  0.00  0.00     0.007 A 
HETATM   16  C   UNK N   1       2.113  -3.380   0.815  0.00  0.00     0.001 A 
HETATM   17  C   UNK N   1       1.695  -4.123  -0.293  0.00  0.00     0.000 A 
HETATM   18  C   UNK N   1       0.471  -3.835  -0.906  0.00  0.00     0.001 A 
HETATM   19  C   UNK N   1      -0.336  -2.805  -0.409  0.00  0.00     0.007 A 
ENDBRANCH  13  14
ENDBRANCH   1  13
BRANCH   1  20
HETATM   20  C   UNK N   1       0.055   1.251   0.436  0.00  0.00     0.155 C 
BRANCH  20  21
HETATM   21  C   UNK N   1       1.166   0.839  -0.563  0.00  0.00     0.141 C 
BRANCH  21  22
HETATM   22  N   UNK N   1       2.412   1.644  -0.504  0.00  0.00    -0.202 NA
BRANCH  22  23
HETATM   23  S   UNK N   1       3.596   0.755   0.502  0.00  0.00     0.266 S 
HETATM   24  O   UNK N   1       2.907   0.431   1.835  0.00  0.00    -0.204 OA
HETATM   25  O   UNK N   1       4.675   1.759   0.932  0.00  0.00    -0.204 OA
BRANCH  23  26
HETATM   26  C   UNK N   1       4.391  -0.651  -0.259  0.00  0.00     0.184 A 
HETATM   27  O   UNK N   1       5.626  -1.008  -0.019  0.00  0.00    -0.310 OA
HETATM   28  C   UNK N   1       5.919  -2.061  -0.744  0.00  0.00     0.143 A 
HETATM   29  C   UNK N   1       4.811  -2.405  -1.502  0.00  0.00     0.028 A 
HETATM   30  C   UNK N   1       3.825  -1.488  -1.190  0.00  0.00     0.053 A 
ENDBRANCH  23  26
ENDBRANCH  22  23
BRANCH  22  31
HETATM   31  C   UNK N   1       2.165   3.045  -0.105  0.00  0.00     0.112 C 
BRANCH  31  32
HETATM   32  C   UNK N   1       3.407   3.912   0.067  0.00  0.00    -0.000 A 
HETATM   33  C   UNK N   1       3.149   5.284  -0.515  0.00  0.00     0.006 A 
HETATM   34  C   UNK N   1       4.014   4.289  -1.264  0.00  0.00     0.006 A 
ENDBRANCH  31  32
ENDBRANCH  22  31
ENDBRANCH  21  22
ENDBRANCH  20  21
BRANCH  20  35
HETATM   35  O   UNK N   1      -0.475   2.482   0.033  0.00  0.00    -0.392 OA
HETATM   36  H   UNK N   1       0.080   3.227  -0.246  0.00  0.00     0.210 HD
ENDBRANCH  20  35
ENDBRANCH   1  20
TORSDOF 14
