MODEL 1
REMARK VINA RESULT:      -7.3      0.000      0.000
REMARK  14 active torsions:
REMARK  status: ('A' for Active; 'I' for Inactive)
REMARK       I    between atoms: C_2  and  N_3 
REMARK    1  A    between atoms: C_2  and  C_5 
REMARK    2  A    between atoms: C_5  and  C_6 
REMARK    3  A    between atoms: C_6  and  C_7 
REMARK       I    between atoms: C_7  and  N_9 
REMARK    4  A    between atoms: C_10  and  N_9 
REMARK    5  A    between atoms: C_10  and  C_11 
REMARK    6  A    between atoms: C_10  and  C_18 
REMARK    7  A    between atoms: C_11  and  C_12 
REMARK    8  A    between atoms: C_18  and  C_20 
REMARK    9  A    between atoms: C_18  and  O_19 
REMARK   10  A    between atoms: C_20  and  N_21 
REMARK   11  A    between atoms: N_21  and  S_26 
REMARK   12  A    between atoms: N_21  and  C_22 
REMARK   13  A    between atoms: C_22  and  C_23 
REMARK   14  A    between atoms: S_26  and  C_29 
ROOT
HETATM    1  C   UNK N   1      26.139  24.861  -5.752  0.00  0.00     0.118 C 
ENDROOT
BRANCH   1   2
HETATM    2  N   UNK N   1      25.388  23.946  -6.594  0.00  0.00    -0.354 N 
HETATM    3  C   UNK N   1      25.445  23.908  -7.953  0.00  0.00     0.218 C 
HETATM    4  O   UNK N   1      24.748  23.103  -8.550  0.00  0.00    -0.274 OA
HETATM    5  H   UNK N   1      24.792  23.303  -6.147  0.00  0.00     0.163 HD
BRANCH   3   6
HETATM    6  C   UNK N   1      26.332  24.823  -8.755  0.00  0.00     0.112 C 
BRANCH   6   7
HETATM    7  C   UNK N   1      25.611  26.061  -9.291  0.00  0.00     0.112 C 
BRANCH   7   8
HETATM    8  C   UNK N   1      25.183  25.928 -10.729  0.00  0.00     0.217 C 
HETATM    9  O   UNK N   1      24.132  25.360 -10.978  0.00  0.00    -0.274 OA
HETATM   10  N   UNK N   1      25.939  26.399 -11.750  0.00  0.00    -0.365 N 
HETATM   11  C   UNK N   1      27.202  27.061 -11.545  0.00  0.00     0.149 C 
HETATM   12  H   UNK N   1      25.611  26.284 -12.671  0.00  0.00     0.161 HD
ENDBRANCH   7   8
ENDBRANCH   6   7
ENDBRANCH   3   6
ENDBRANCH   1   2
BRANCH   1  13
HETATM   13  C   UNK N   1      25.333  26.102  -5.330  0.00  0.00     0.066 C 
BRANCH  13  14
HETATM   14  C   UNK N   1      26.007  27.436  -5.299  0.00  0.00    -0.056 A 
HETATM   15  C   UNK N   1      25.757  28.300  -4.227  0.00  0.00     0.007 A 
HETATM   16  C   UNK N   1      26.460  29.502  -4.112  0.00  0.00     0.001 A 
HETATM   17  C   UNK N   1      27.427  29.838  -5.064  0.00  0.00     0.000 A 
HETATM   18  C   UNK N   1      27.689  28.972  -6.131  0.00  0.00     0.001 A 
HETATM   19  C   UNK N   1      26.984  27.768  -6.244  0.00  0.00     0.007 A 
ENDBRANCH  13  14
ENDBRANCH   1  13
BRANCH   1  20
HETATM   20  C   UNK N   1      26.815  24.102  -4.594  0.00  0.00     0.155 C 
BRANCH  20  21
HETATM   21  C   UNK N   1      28.250  24.573  -4.248  0.00  0.00     0.141 C 
BRANCH  21  22
HETATM   22  N   UNK N   1      29.333  23.603  -4.549  0.00  0.00    -0.202 NA
BRANCH  22  23
HETATM   23  S   UNK N   1      30.460  23.585  -3.158  0.00  0.00     0.266 S 
HETATM   24  O   UNK N   1      29.614  23.405  -1.890  0.00  0.00    -0.204 OA
HETATM   25  O   UNK N   1      30.998  25.013  -2.987  0.00  0.00    -0.204 OA
BRANCH  23  26
HETATM   26  C   UNK N   1      31.843  22.461  -3.268  0.00  0.00     0.184 A 
HETATM   27  O   UNK N   1      32.204  21.653  -2.305  0.00  0.00    -0.310 OA
HETATM   28  C   UNK N   1      33.261  20.976  -2.683  0.00  0.00     0.143 A 
HETATM   29  C   UNK N   1      33.610  21.370  -3.966  0.00  0.00     0.028 A 
HETATM   30  C   UNK N   1      32.693  22.334  -4.340  0.00  0.00     0.053 A 
ENDBRANCH  23  26
ENDBRANCH  22  23
BRANCH  22  31
HETATM   31  C   UNK N   1      29.956  23.839  -5.868  0.00  0.00     0.112 C 
BRANCH  31  32
HETATM   32  C   UNK N   1      30.048  22.623  -6.782  0.00  0.00    -0.000 A 
HETATM   33  C   UNK N   1      28.657  22.099  -7.065  0.00  0.00     0.006 A 
HETATM   34  C   UNK N   1      29.564  21.368  -6.094  0.00  0.00     0.006 A 
ENDBRANCH  31  32
ENDBRANCH  22  31
ENDBRANCH  21  22
ENDBRANCH  20  21
BRANCH  20  35
HETATM   35  O   UNK N   1      26.005  24.268  -3.465  0.00  0.00    -0.392 OA
HETATM   36  H   UNK N   1      25.284  24.916  -3.426  0.00  0.00     0.210 HD
ENDBRANCH  20  35
ENDBRANCH   1  20
TORSDOF 14
ENDMDL
MODEL 2
REMARK VINA RESULT:      -7.1     13.239     17.503
REMARK  14 active torsions:
REMARK  status: ('A' for Active; 'I' for Inactive)
REMARK       I    between atoms: C_2  and  N_3 
REMARK    1  A    between atoms: C_2  and  C_5 
REMARK    2  A    between atoms: C_5  and  C_6 
REMARK    3  A    between atoms: C_6  and  C_7 
REMARK       I    between atoms: C_7  and  N_9 
REMARK    4  A    between atoms: C_10  and  N_9 
REMARK    5  A    between atoms: C_10  and  C_11 
REMARK    6  A    between atoms: C_10  and  C_18 
REMARK    7  A    between atoms: C_11  and  C_12 
REMARK    8  A    between atoms: C_18  and  C_20 
REMARK    9  A    between atoms: C_18  and  O_19 
REMARK   10  A    between atoms: C_20  and  N_21 
REMARK   11  A    between atoms: N_21  and  S_26 
REMARK   12  A    between atoms: N_21  and  C_22 
REMARK   13  A    between atoms: C_22  and  C_23 
REMARK   14  A    between atoms: S_26  and  C_29 
ROOT
HETATM    1  C   UNK N   1      31.785  16.608   8.311  0.00  0.00     0.118 C 
ENDROOT
BRANCH   1   2
HETATM    2  N   UNK N   1      31.163  17.443   9.324  0.00  0.00    -0.354 N 
HETATM    3  C   UNK N   1      29.919  17.985   9.234  0.00  0.00     0.218 C 
HETATM    4  O   UNK N   1      29.513  18.687  10.147  0.00  0.00    -0.274 OA
HETATM    5  H   UNK N   1      31.682  17.630  10.139  0.00  0.00     0.163 HD
BRANCH   3   6
HETATM    6  C   UNK N   1      29.016  17.757   8.050  0.00  0.00     0.112 C 
BRANCH   6   7
HETATM    7  C   UNK N   1      28.254  19.010   7.611  0.00  0.00     0.112 C 
BRANCH   7   8
HETATM    8  C   UNK N   1      27.892  19.007   6.149  0.00  0.00     0.217 C 
HETATM    9  O   UNK N   1      28.006  17.968   5.519  0.00  0.00    -0.274 OA
HETATM   10  N   UNK N   1      27.467  20.125   5.512  0.00  0.00    -0.365 N 
HETATM   11  C   UNK N   1      27.327  21.396   6.176  0.00  0.00     0.149 C 
HETATM   12  H   UNK N   1      27.244  20.066   4.554  0.00  0.00     0.161 HD
ENDBRANCH   7   8
ENDBRANCH   6   7
ENDBRANCH   3   6
ENDBRANCH   1   2
BRANCH   1  13
HETATM   13  C   UNK N   1      32.445  17.415   7.178  0.00  0.00     0.066 C 
BRANCH  13  14
HETATM   14  C   UNK N   1      32.143  17.062   5.757  0.00  0.00    -0.056 A 
HETATM   15  C   UNK N   1      32.992  17.524   4.746  0.00  0.00     0.007 A 
HETATM   16  C   UNK N   1      32.800  17.115   3.424  0.00  0.00     0.001 A 
HETATM   17  C   UNK N   1      31.766  16.229   3.110  0.00  0.00     0.000 A 
HETATM   18  C   UNK N   1      30.922  15.754   4.120  0.00  0.00     0.001 A 
HETATM   19  C   UNK N   1      31.115  16.164   5.444  0.00  0.00     0.007 A 
ENDBRANCH  13  14
ENDBRANCH   1  13
BRANCH   1  20
HETATM   20  C   UNK N   1      32.690  15.547   8.963  0.00  0.00     0.155 C 
BRANCH  20  21
HETATM   21  C   UNK N   1      34.202  15.888   8.976  0.00  0.00     0.141 C 
BRANCH  21  22
HETATM   22  N   UNK N   1      35.122  14.725   9.050  0.00  0.00    -0.202 NA
BRANCH  22  23
HETATM   23  S   UNK N   1      36.214  14.974  10.447  0.00  0.00     0.266 S 
HETATM   24  O   UNK N   1      36.359  16.489  10.646  0.00  0.00    -0.204 OA
HETATM   25  O   UNK N   1      37.626  14.570  10.000  0.00  0.00    -0.204 OA
BRANCH  23  26
HETATM   26  C   UNK N   1      35.810  14.085  11.942  0.00  0.00     0.184 A 
HETATM   27  O   UNK N   1      35.105  12.984  11.967  0.00  0.00    -0.310 OA
HETATM   28  C   UNK N   1      34.965  12.590  13.210  0.00  0.00     0.143 A 
HETATM   29  C   UNK N   1      35.613  13.490  14.041  0.00  0.00     0.028 A 
HETATM   30  C   UNK N   1      36.155  14.460  13.218  0.00  0.00     0.053 A 
ENDBRANCH  23  26
ENDBRANCH  22  23
BRANCH  22  31
HETATM   31  C   UNK N   1      35.791  14.447   7.763  0.00  0.00     0.112 C 
BRANCH  31  32
HETATM   32  C   UNK N   1      35.173  15.114   6.539  0.00  0.00    -0.000 A 
HETATM   33  C   UNK N   1      34.321  14.110   5.794  0.00  0.00     0.006 A 
HETATM   34  C   UNK N   1      35.682  14.504   5.254  0.00  0.00     0.006 A 
ENDBRANCH  31  32
ENDBRANCH  22  31
ENDBRANCH  21  22
ENDBRANCH  20  21
BRANCH  20  35
HETATM   35  O   UNK N   1      32.256  15.390  10.284  0.00  0.00    -0.392 OA
HETATM   36  H   UNK N   1      31.394  15.710  10.596  0.00  0.00     0.210 HD
ENDBRANCH  20  35
ENDBRANCH   1  20
TORSDOF 14
ENDMDL
MODEL 3
REMARK VINA RESULT:      -7.0     16.058     18.871
REMARK  14 active torsions:
REMARK  status: ('A' for Active; 'I' for Inactive)
REMARK       I    between atoms: C_2  and  N_3 
REMARK    1  A    between atoms: C_2  and  C_5 
REMARK    2  A    between atoms: C_5  and  C_6 
REMARK    3  A    between atoms: C_6  and  C_7 
REMARK       I    between atoms: C_7  and  N_9 
REMARK    4  A    between atoms: C_10  and  N_9 
REMARK    5  A    between atoms: C_10  and  C_11 
REMARK    6  A    between atoms: C_10  and  C_18 
REMARK    7  A    between atoms: C_11  and  C_12 
REMARK    8  A    between atoms: C_18  and  C_20 
REMARK    9  A    between atoms: C_18  and  O_19 
REMARK   10  A    between atoms: C_20  and  N_21 
REMARK   11  A    between atoms: N_21  and  S_26 
REMARK   12  A    between atoms: N_21  and  C_22 
REMARK   13  A    between atoms: C_22  and  C_23 
REMARK   14  A    between atoms: S_26  and  C_29 
ROOT
HETATM    1  C   UNK N   1      21.608  14.843   7.453  0.00  0.00     0.118 C 
ENDROOT
BRANCH   1   2
HETATM    2  N   UNK N   1      20.347  15.300   6.893  0.00  0.00    -0.354 N 
HETATM    3  C   UNK N   1      19.442  16.082   7.541  0.00  0.00     0.218 C 
HETATM    4  O   UNK N   1      18.408  16.385   6.969  0.00  0.00    -0.274 OA
HETATM    5  H   UNK N   1      20.132  15.022   5.974  0.00  0.00     0.163 HD
BRANCH   3   6
HETATM    6  C   UNK N   1      19.662  16.591   8.941  0.00  0.00     0.112 C 
BRANCH   6   7
HETATM    7  C   UNK N   1      18.550  17.519   9.436  0.00  0.00     0.112 C 
BRANCH   7   8
HETATM    8  C   UNK N   1      19.065  18.806  10.027  0.00  0.00     0.217 C 
HETATM    9  O   UNK N   1      20.161  19.213   9.678  0.00  0.00    -0.274 OA
HETATM   10  N   UNK N   1      18.358  19.508  10.945  0.00  0.00    -0.365 N 
HETATM   11  C   UNK N   1      17.068  19.085  11.427  0.00  0.00     0.149 C 
HETATM   12  H   UNK N   1      18.743  20.343  11.297  0.00  0.00     0.161 HD
ENDBRANCH   7   8
ENDBRANCH   6   7
ENDBRANCH   3   6
ENDBRANCH   1   2
BRANCH   1  13
HETATM   13  C   UNK N   1      21.583  13.365   7.884  0.00  0.00     0.066 C 
BRANCH  13  14
HETATM   14  C   UNK N   1      22.091  12.990   9.239  0.00  0.00    -0.056 A 
HETATM   15  C   UNK N   1      21.171  12.702  10.254  0.00  0.00     0.007 A 
HETATM   16  C   UNK N   1      21.615  12.238  11.495  0.00  0.00     0.001 A 
HETATM   17  C   UNK N   1      22.981  12.046  11.720  0.00  0.00     0.000 A 
HETATM   18  C   UNK N   1      23.903  12.321  10.705  0.00  0.00     0.001 A 
HETATM   19  C   UNK N   1      23.457  12.785   9.462  0.00  0.00     0.007 A 
ENDBRANCH  13  14
ENDBRANCH   1  13
BRANCH   1  20
HETATM   20  C   UNK N   1      22.782  15.231   6.535  0.00  0.00     0.155 C 
BRANCH  20  21
HETATM   21  C   UNK N   1      22.750  14.597   5.121  0.00  0.00     0.141 C 
BRANCH  21  22
HETATM   22  N   UNK N   1      21.556  14.920   4.300  0.00  0.00    -0.202 NA
BRANCH  22  23
HETATM   23  S   UNK N   1      20.725  13.384   3.907  0.00  0.00     0.266 S 
HETATM   24  O   UNK N   1      19.804  13.050   5.088  0.00  0.00    -0.204 OA
HETATM   25  O   UNK N   1      21.773  12.264   3.988  0.00  0.00    -0.204 OA
BRANCH  23  26
HETATM   26  C   UNK N   1      19.918  13.300   2.317  0.00  0.00     0.184 A 
HETATM   27  O   UNK N   1      18.809  13.932   2.028  0.00  0.00    -0.310 OA
HETATM   28  C   UNK N   1      18.462  13.652   0.795  0.00  0.00     0.143 A 
HETATM   29  C   UNK N   1      19.397  12.785   0.252  0.00  0.00     0.028 A 
HETATM   30  C   UNK N   1      20.335  12.555   1.241  0.00  0.00     0.053 A 
ENDBRANCH  23  26
ENDBRANCH  22  23
BRANCH  22  31
HETATM   31  C   UNK N   1      21.878  15.782   3.144  0.00  0.00     0.112 C 
BRANCH  31  32
HETATM   32  C   UNK N   1      21.286  17.186   3.182  0.00  0.00    -0.000 A 
HETATM   33  C   UNK N   1      19.869  17.122   3.706  0.00  0.00     0.006 A 
HETATM   34  C   UNK N   1      20.125  17.329   2.226  0.00  0.00     0.006 A 
ENDBRANCH  31  32
ENDBRANCH  22  31
ENDBRANCH  21  22
ENDBRANCH  20  21
BRANCH  20  35
HETATM   35  O   UNK N   1      22.757  16.624   6.401  0.00  0.00    -0.392 OA
HETATM   36  H   UNK N   1      22.281  17.075   5.686  0.00  0.00     0.210 HD
ENDBRANCH  20  35
ENDBRANCH   1  20
TORSDOF 14
ENDMDL
MODEL 4
REMARK VINA RESULT:      -6.9      1.999      3.113
REMARK  14 active torsions:
REMARK  status: ('A' for Active; 'I' for Inactive)
REMARK       I    between atoms: C_2  and  N_3 
REMARK    1  A    between atoms: C_2  and  C_5 
REMARK    2  A    between atoms: C_5  and  C_6 
REMARK    3  A    between atoms: C_6  and  C_7 
REMARK       I    between atoms: C_7  and  N_9 
REMARK    4  A    between atoms: C_10  and  N_9 
REMARK    5  A    between atoms: C_10  and  C_11 
REMARK    6  A    between atoms: C_10  and  C_18 
REMARK    7  A    between atoms: C_11  and  C_12 
REMARK    8  A    between atoms: C_18  and  C_20 
REMARK    9  A    between atoms: C_18  and  O_19 
REMARK   10  A    between atoms: C_20  and  N_21 
REMARK   11  A    between atoms: N_21  and  S_26 
REMARK   12  A    between atoms: N_21  and  C_22 
REMARK   13  A    between atoms: C_22  and  C_23 
REMARK   14  A    between atoms: S_26  and  C_29 
ROOT
HETATM    1  C   UNK N   1      26.127  24.791  -5.947  0.00  0.00     0.118 C 
ENDROOT
BRANCH   1   2
HETATM    2  N   UNK N   1      25.443  23.869  -6.837  0.00  0.00    -0.354 N 
HETATM    3  C   UNK N   1      25.517  23.894  -8.195  0.00  0.00     0.218 C 
HETATM    4  O   UNK N   1      24.879  23.073  -8.835  0.00  0.00    -0.274 OA
HETATM    5  H   UNK N   1      24.884  23.171  -6.425  0.00  0.00     0.163 HD
BRANCH   3   6
HETATM    6  C   UNK N   1      26.354  24.895  -8.946  0.00  0.00     0.112 C 
BRANCH   6   7
HETATM    7  C   UNK N   1      25.559  26.101  -9.452  0.00  0.00     0.112 C 
BRANCH   7   8
HETATM    8  C   UNK N   1      25.123  25.969 -10.888  0.00  0.00     0.217 C 
HETATM    9  O   UNK N   1      24.091  25.367 -11.134  0.00  0.00    -0.274 OA
HETATM   10  N   UNK N   1      25.852  26.478 -11.910  0.00  0.00    -0.365 N 
HETATM   11  C   UNK N   1      27.093  27.181 -11.708  0.00  0.00     0.149 C 
HETATM   12  H   UNK N   1      25.520  26.362 -12.830  0.00  0.00     0.161 HD
ENDBRANCH   7   8
ENDBRANCH   6   7
ENDBRANCH   3   6
ENDBRANCH   1   2
BRANCH   1  13
HETATM   13  C   UNK N   1      25.309  26.058  -5.637  0.00  0.00     0.066 C 
BRANCH  13  14
HETATM   14  C   UNK N   1      26.012  27.373  -5.528  0.00  0.00    -0.056 A 
HETATM   15  C   UNK N   1      25.772  28.182  -4.411  0.00  0.00     0.007 A 
HETATM   16  C   UNK N   1      26.500  29.360  -4.226  0.00  0.00     0.001 A 
HETATM   17  C   UNK N   1      27.482  29.726  -5.150  0.00  0.00     0.000 A 
HETATM   18  C   UNK N   1      27.735  28.914  -6.261  0.00  0.00     0.001 A 
HETATM   19  C   UNK N   1      27.005  27.734  -6.446  0.00  0.00     0.007 A 
ENDBRANCH  13  14
ENDBRANCH   1  13
BRANCH   1  20
HETATM   20  C   UNK N   1      26.669  24.051  -4.709  0.00  0.00     0.155 C 
BRANCH  20  21
HETATM   21  C   UNK N   1      28.125  24.405  -4.315  0.00  0.00     0.141 C 
BRANCH  21  22
HETATM   22  N   UNK N   1      29.092  24.486  -5.439  0.00  0.00    -0.202 NA
BRANCH  22  23
HETATM   23  S   UNK N   1      29.899  22.896  -5.588  0.00  0.00     0.266 S 
HETATM   24  O   UNK N   1      30.083  22.344  -4.167  0.00  0.00    -0.204 OA
HETATM   25  O   UNK N   1      31.348  23.158  -6.023  0.00  0.00    -0.204 OA
BRANCH  23  26
HETATM   26  C   UNK N   1      29.161  21.732  -6.723  0.00  0.00     0.184 A 
HETATM   27  O   UNK N   1      28.044  21.950  -7.366  0.00  0.00    -0.310 OA
HETATM   28  C   UNK N   1      27.758  20.902  -8.102  0.00  0.00     0.143 A 
HETATM   29  C   UNK N   1      28.746  19.947  -7.923  0.00  0.00     0.028 A 
HETATM   30  C   UNK N   1      29.651  20.484  -7.026  0.00  0.00     0.053 A 
ENDBRANCH  23  26
ENDBRANCH  22  23
BRANCH  22  31
HETATM   31  C   UNK N   1      29.996  25.650  -5.327  0.00  0.00     0.112 C 
BRANCH  31  32
HETATM   32  C   UNK N   1      30.386  26.049  -3.908  0.00  0.00    -0.000 A 
HETATM   33  C   UNK N   1      29.983  27.486  -3.660  0.00  0.00     0.006 A 
HETATM   34  C   UNK N   1      31.438  27.134  -3.903  0.00  0.00     0.006 A 
ENDBRANCH  31  32
ENDBRANCH  22  31
ENDBRANCH  21  22
ENDBRANCH  20  21
BRANCH  20  35
HETATM   35  O   UNK N   1      25.825  24.367  -3.638  0.00  0.00    -0.392 OA
HETATM   36  H   UNK N   1      26.159  24.584  -2.754  0.00  0.00     0.210 HD
ENDBRANCH  20  35
ENDBRANCH   1  20
TORSDOF 14
ENDMDL
MODEL 5
REMARK VINA RESULT:      -6.7      2.744      6.819
REMARK  14 active torsions:
REMARK  status: ('A' for Active; 'I' for Inactive)
REMARK       I    between atoms: C_2  and  N_3 
REMARK    1  A    between atoms: C_2  and  C_5 
REMARK    2  A    between atoms: C_5  and  C_6 
REMARK    3  A    between atoms: C_6  and  C_7 
REMARK       I    between atoms: C_7  and  N_9 
REMARK    4  A    between atoms: C_10  and  N_9 
REMARK    5  A    between atoms: C_10  and  C_11 
REMARK    6  A    between atoms: C_10  and  C_18 
REMARK    7  A    between atoms: C_11  and  C_12 
REMARK    8  A    between atoms: C_18  and  C_20 
REMARK    9  A    between atoms: C_18  and  O_19 
REMARK   10  A    between atoms: C_20  and  N_21 
REMARK   11  A    between atoms: N_21  and  S_26 
REMARK   12  A    between atoms: N_21  and  C_22 
REMARK   13  A    between atoms: C_22  and  C_23 
REMARK   14  A    between atoms: S_26  and  C_29 
ROOT
HETATM    1  C   UNK N   1      26.353  25.029  -5.617  0.00  0.00     0.118 C 
ENDROOT
BRANCH   1   2
HETATM    2  N   UNK N   1      26.217  24.657  -4.220  0.00  0.00    -0.354 N 
HETATM    3  C   UNK N   1      27.249  24.340  -3.392  0.00  0.00     0.218 C 
HETATM    4  O   UNK N   1      27.004  24.025  -2.238  0.00  0.00    -0.274 OA
HETATM    5  H   UNK N   1      25.309  24.633  -3.842  0.00  0.00     0.163 HD
BRANCH   3   6
HETATM    6  C   UNK N   1      28.687  24.360  -3.839  0.00  0.00     0.112 C 
BRANCH   6   7
HETATM    7  C   UNK N   1      29.377  22.998  -3.741  0.00  0.00     0.112 C 
BRANCH   7   8
HETATM    8  C   UNK N   1      30.556  22.992  -2.803  0.00  0.00     0.217 C 
HETATM    9  O   UNK N   1      30.352  23.086  -1.604  0.00  0.00    -0.274 OA
HETATM   10  N   UNK N   1      31.832  22.906  -3.253  0.00  0.00    -0.365 N 
HETATM   11  C   UNK N   1      32.161  22.816  -4.653  0.00  0.00     0.149 C 
HETATM   12  H   UNK N   1      32.564  22.907  -2.596  0.00  0.00     0.161 HD
ENDBRANCH   7   8
ENDBRANCH   6   7
ENDBRANCH   3   6
ENDBRANCH   1   2
BRANCH   1  13
HETATM   13  C   UNK N   1      26.396  23.819  -6.568  0.00  0.00     0.066 C 
BRANCH  13  14
HETATM   14  C   UNK N   1      27.713  23.359  -7.107  0.00  0.00    -0.056 A 
HETATM   15  C   UNK N   1      28.621  24.309  -7.585  0.00  0.00     0.007 A 
HETATM   16  C   UNK N   1      29.902  23.920  -7.986  0.00  0.00     0.001 A 
HETATM   17  C   UNK N   1      30.283  22.578  -7.897  0.00  0.00     0.000 A 
HETATM   18  C   UNK N   1      29.382  21.626  -7.408  0.00  0.00     0.001 A 
HETATM   19  C   UNK N   1      28.100  22.017  -7.006  0.00  0.00     0.007 A 
ENDBRANCH  13  14
ENDBRANCH   1  13
BRANCH   1  20
HETATM   20  C   UNK N   1      25.325  26.112  -5.993  0.00  0.00     0.155 C 
BRANCH  20  21
HETATM   21  C   UNK N   1      25.511  27.473  -5.275  0.00  0.00     0.141 C 
BRANCH  21  22
HETATM   22  N   UNK N   1      26.917  27.899  -5.060  0.00  0.00    -0.202 NA
BRANCH  22  23
HETATM   23  S   UNK N   1      27.086  28.403  -3.351  0.00  0.00     0.266 S 
HETATM   24  O   UNK N   1      26.300  27.395  -2.500  0.00  0.00    -0.204 OA
HETATM   25  O   UNK N   1      26.265  29.687  -3.170  0.00  0.00    -0.204 OA
BRANCH  23  26
HETATM   26  C   UNK N   1      28.748  28.696  -2.768  0.00  0.00     0.184 A 
HETATM   27  O   UNK N   1      29.046  29.528  -1.804  0.00  0.00    -0.310 OA
HETATM   28  C   UNK N   1      30.345  29.535  -1.626  0.00  0.00     0.143 A 
HETATM   29  C   UNK N   1      30.925  28.659  -2.530  0.00  0.00     0.028 A 
HETATM   30  C   UNK N   1      29.890  28.121  -3.271  0.00  0.00     0.053 A 
ENDBRANCH  23  26
ENDBRANCH  22  23
BRANCH  22  31
HETATM   31  C   UNK N   1      27.371  28.886  -6.061  0.00  0.00     0.112 C 
BRANCH  31  32
HETATM   32  C   UNK N   1      28.102  28.313  -7.270  0.00  0.00    -0.000 A 
HETATM   33  C   UNK N   1      29.404  27.688  -6.822  0.00  0.00     0.006 A 
HETATM   34  C   UNK N   1      29.406  29.031  -7.526  0.00  0.00     0.006 A 
ENDBRANCH  31  32
ENDBRANCH  22  31
ENDBRANCH  21  22
ENDBRANCH  20  21
BRANCH  20  35
HETATM   35  O   UNK N   1      25.428  26.317  -7.373  0.00  0.00    -0.392 OA
HETATM   36  H   UNK N   1      25.975  25.759  -7.948  0.00  0.00     0.210 HD
ENDBRANCH  20  35
ENDBRANCH   1  20
TORSDOF 14
ENDMDL
MODEL 6
REMARK VINA RESULT:      -6.7     13.208     17.966
REMARK  14 active torsions:
REMARK  status: ('A' for Active; 'I' for Inactive)
REMARK       I    between atoms: C_2  and  N_3 
REMARK    1  A    between atoms: C_2  and  C_5 
REMARK    2  A    between atoms: C_5  and  C_6 
REMARK    3  A    between atoms: C_6  and  C_7 
REMARK       I    between atoms: C_7  and  N_9 
REMARK    4  A    between atoms: C_10  and  N_9 
REMARK    5  A    between atoms: C_10  and  C_11 
REMARK    6  A    between atoms: C_10  and  C_18 
REMARK    7  A    between atoms: C_11  and  C_12 
REMARK    8  A    between atoms: C_18  and  C_20 
REMARK    9  A    between atoms: C_18  and  O_19 
REMARK   10  A    between atoms: C_20  and  N_21 
REMARK   11  A    between atoms: N_21  and  S_26 
REMARK   12  A    between atoms: N_21  and  C_22 
REMARK   13  A    between atoms: C_22  and  C_23 
REMARK   14  A    between atoms: S_26  and  C_29 
ROOT
HETATM    1  C   UNK N   1      33.145  17.176   8.166  0.00  0.00     0.118 C 
ENDROOT
BRANCH   1   2
HETATM    2  N   UNK N   1      32.105  17.977   8.787  0.00  0.00    -0.354 N 
HETATM    3  C   UNK N   1      30.785  17.934   8.459  0.00  0.00     0.218 C 
HETATM    4  O   UNK N   1      30.008  18.673   9.042  0.00  0.00    -0.274 OA
HETATM    5  H   UNK N   1      32.375  18.599   9.501  0.00  0.00     0.163 HD
BRANCH   3   6
HETATM    6  C   UNK N   1      30.240  17.012   7.401  0.00  0.00     0.112 C 
BRANCH   6   7
HETATM    7  C   UNK N   1      29.033  17.583   6.654  0.00  0.00     0.112 C 
BRANCH   7   8
HETATM    8  C   UNK N   1      29.096  17.370   5.164  0.00  0.00     0.217 C 
HETATM    9  O   UNK N   1      29.566  16.326   4.742  0.00  0.00    -0.274 OA
HETATM   10  N   UNK N   1      28.669  18.308   4.285  0.00  0.00    -0.365 N 
HETATM   11  C   UNK N   1      28.124  19.575   4.700  0.00  0.00     0.149 C 
HETATM   12  H   UNK N   1      28.734  18.115   3.322  0.00  0.00     0.161 HD
ENDBRANCH   7   8
ENDBRANCH   6   7
ENDBRANCH   3   6
ENDBRANCH   1   2
BRANCH   1  13
HETATM   13  C   UNK N   1      33.681  17.782   6.856  0.00  0.00     0.066 C 
BRANCH  13  14
HETATM   14  C   UNK N   1      33.462  17.053   5.570  0.00  0.00    -0.056 A 
HETATM   15  C   UNK N   1      32.782  17.697   4.530  0.00  0.00     0.007 A 
HETATM   16  C   UNK N   1      32.664  17.084   3.281  0.00  0.00     0.001 A 
HETATM   17  C   UNK N   1      33.239  15.829   3.061  0.00  0.00     0.000 A 
HETATM   18  C   UNK N   1      33.930  15.187   4.094  0.00  0.00     0.001 A 
HETATM   19  C   UNK N   1      34.049  15.802   5.345  0.00  0.00     0.007 A 
ENDBRANCH  13  14
ENDBRANCH   1  13
BRANCH   1  20
HETATM   20  C   UNK N   1      34.227  16.798   9.196  0.00  0.00     0.155 C 
BRANCH  20  21
HETATM   21  C   UNK N   1      35.090  15.566   8.823  0.00  0.00     0.141 C 
BRANCH  21  22
HETATM   22  N   UNK N   1      35.020  14.424   9.769  0.00  0.00    -0.202 NA
BRANCH  22  23
HETATM   23  S   UNK N   1      36.340  14.616  10.963  0.00  0.00     0.266 S 
HETATM   24  O   UNK N   1      36.787  16.083  10.915  0.00  0.00    -0.204 OA
HETATM   25  O   UNK N   1      37.570  13.886  10.405  0.00  0.00    -0.204 OA
BRANCH  23  26
HETATM   26  C   UNK N   1      36.015  14.014  12.612  0.00  0.00     0.184 A 
HETATM   27  O   UNK N   1      36.606  14.474  13.685  0.00  0.00    -0.310 OA
HETATM   28  C   UNK N   1      36.169  13.816  14.732  0.00  0.00     0.143 A 
HETATM   29  C   UNK N   1      35.245  12.872  14.315  0.00  0.00     0.028 A 
HETATM   30  C   UNK N   1      35.151  12.999  12.942  0.00  0.00     0.053 A 
ENDBRANCH  23  26
ENDBRANCH  22  23
BRANCH  22  31
HETATM   31  C   UNK N   1      34.971  13.118   9.080  0.00  0.00     0.112 C 
BRANCH  31  32
HETATM   32  C   UNK N   1      35.337  13.137   7.600  0.00  0.00    -0.000 A 
HETATM   33  C   UNK N   1      34.865  11.857   6.947  0.00  0.00     0.006 A 
HETATM   34  C   UNK N   1      36.336  12.057   7.257  0.00  0.00     0.006 A 
ENDBRANCH  31  32
ENDBRANCH  22  31
ENDBRANCH  21  22
ENDBRANCH  20  21
BRANCH  20  35
HETATM   35  O   UNK N   1      35.068  17.908   9.336  0.00  0.00    -0.392 OA
HETATM   36  H   UNK N   1      34.898  18.619   9.974  0.00  0.00     0.210 HD
ENDBRANCH  20  35
ENDBRANCH   1  20
TORSDOF 14
ENDMDL
MODEL 7
REMARK VINA RESULT:      -6.5     14.789     17.537
REMARK  14 active torsions:
REMARK  status: ('A' for Active; 'I' for Inactive)
REMARK       I    between atoms: C_2  and  N_3 
REMARK    1  A    between atoms: C_2  and  C_5 
REMARK    2  A    between atoms: C_5  and  C_6 
REMARK    3  A    between atoms: C_6  and  C_7 
REMARK       I    between atoms: C_7  and  N_9 
REMARK    4  A    between atoms: C_10  and  N_9 
REMARK    5  A    between atoms: C_10  and  C_11 
REMARK    6  A    between atoms: C_10  and  C_18 
REMARK    7  A    between atoms: C_11  and  C_12 
REMARK    8  A    between atoms: C_18  and  C_20 
REMARK    9  A    between atoms: C_18  and  O_19 
REMARK   10  A    between atoms: C_20  and  N_21 
REMARK   11  A    between atoms: N_21  and  S_26 
REMARK   12  A    between atoms: N_21  and  C_22 
REMARK   13  A    between atoms: C_22  and  C_23 
REMARK   14  A    between atoms: S_26  and  C_29 
ROOT
HETATM    1  C   UNK N   1      22.209  14.333   6.914  0.00  0.00     0.118 C 
ENDROOT
BRANCH   1   2
HETATM    2  N   UNK N   1      20.876  14.688   6.459  0.00  0.00    -0.354 N 
HETATM    3  C   UNK N   1      20.035  15.546   7.098  0.00  0.00     0.218 C 
HETATM    4  O   UNK N   1      18.929  15.750   6.625  0.00  0.00    -0.274 OA
HETATM    5  H   UNK N   1      20.557  14.278   5.624  0.00  0.00     0.163 HD
BRANCH   3   6
HETATM    6  C   UNK N   1      20.411  16.255   8.372  0.00  0.00     0.112 C 
BRANCH   6   7
HETATM    7  C   UNK N   1      19.264  17.061   8.986  0.00  0.00     0.112 C 
BRANCH   7   8
HETATM    8  C   UNK N   1      19.571  18.529   9.125  0.00  0.00     0.217 C 
HETATM    9  O   UNK N   1      20.375  19.034   8.358  0.00  0.00    -0.274 OA
HETATM   10  N   UNK N   1      19.001  19.295  10.087  0.00  0.00    -0.365 N 
HETATM   11  C   UNK N   1      18.062  18.771  11.046  0.00  0.00     0.149 C 
HETATM   12  H   UNK N   1      19.240  20.249  10.132  0.00  0.00     0.161 HD
ENDBRANCH   7   8
ENDBRANCH   6   7
ENDBRANCH   3   6
ENDBRANCH   1   2
BRANCH   1  13
HETATM   13  C   UNK N   1      22.320  12.875   7.396  0.00  0.00     0.066 C 
BRANCH  13  14
HETATM   14  C   UNK N   1      22.494  12.598   8.854  0.00  0.00    -0.056 A 
HETATM   15  C   UNK N   1      21.385  12.697   9.702  0.00  0.00     0.007 A 
HETATM   16  C   UNK N   1      21.492  12.334  11.047  0.00  0.00     0.001 A 
HETATM   17  C   UNK N   1      22.707  11.854  11.546  0.00  0.00     0.000 A 
HETATM   18  C   UNK N   1      23.814  11.741  10.699  0.00  0.00     0.001 A 
HETATM   19  C   UNK N   1      23.706  12.105   9.351  0.00  0.00     0.007 A 
ENDBRANCH  13  14
ENDBRANCH   1  13
BRANCH   1  20
HETATM   20  C   UNK N   1      23.267  14.755   5.877  0.00  0.00     0.155 C 
BRANCH  20  21
HETATM   21  C   UNK N   1      23.840  16.183   6.065  0.00  0.00     0.141 C 
BRANCH  21  22
HETATM   22  N   UNK N   1      23.939  17.002   4.831  0.00  0.00    -0.202 NA
BRANCH  22  23
HETATM   23  S   UNK N   1      25.674  17.285   4.495  0.00  0.00     0.266 S 
HETATM   24  O   UNK N   1      25.888  17.062   2.991  0.00  0.00    -0.204 OA
HETATM   25  O   UNK N   1      26.456  16.116   5.110  0.00  0.00    -0.204 OA
BRANCH  23  26
HETATM   26  C   UNK N   1      26.363  18.817   5.101  0.00  0.00     0.184 A 
HETATM   27  O   UNK N   1      27.209  18.893   6.095  0.00  0.00    -0.310 OA
HETATM   28  C   UNK N   1      27.509  20.151   6.311  0.00  0.00     0.143 A 
HETATM   29  C   UNK N   1      26.814  20.939   5.407  0.00  0.00     0.028 A 
HETATM   30  C   UNK N   1      26.068  20.073   4.629  0.00  0.00     0.053 A 
ENDBRANCH  23  26
ENDBRANCH  22  23
BRANCH  22  31
HETATM   31  C   UNK N   1      23.096  18.214   4.883  0.00  0.00     0.112 C 
BRANCH  31  32
HETATM   32  C   UNK N   1      22.132  18.400   3.717  0.00  0.00    -0.000 A 
HETATM   33  C   UNK N   1      22.307  19.785   3.135  0.00  0.00     0.006 A 
HETATM   34  C   UNK N   1      21.106  19.471   4.006  0.00  0.00     0.006 A 
ENDBRANCH  31  32
ENDBRANCH  22  31
ENDBRANCH  21  22
ENDBRANCH  20  21
BRANCH  20  35
HETATM   35  O   UNK N   1      24.319  13.836   5.964  0.00  0.00    -0.392 OA
HETATM   36  H   UNK N   1      24.710  13.410   5.185  0.00  0.00     0.210 HD
ENDBRANCH  20  35
ENDBRANCH   1  20
TORSDOF 14
ENDMDL
MODEL 8
REMARK VINA RESULT:      -6.5     17.856     23.120
REMARK  14 active torsions:
REMARK  status: ('A' for Active; 'I' for Inactive)
REMARK       I    between atoms: C_2  and  N_3 
REMARK    1  A    between atoms: C_2  and  C_5 
REMARK    2  A    between atoms: C_5  and  C_6 
REMARK    3  A    between atoms: C_6  and  C_7 
REMARK       I    between atoms: C_7  and  N_9 
REMARK    4  A    between atoms: C_10  and  N_9 
REMARK    5  A    between atoms: C_10  and  C_11 
REMARK    6  A    between atoms: C_10  and  C_18 
REMARK    7  A    between atoms: C_11  and  C_12 
REMARK    8  A    between atoms: C_18  and  C_20 
REMARK    9  A    between atoms: C_18  and  O_19 
REMARK   10  A    between atoms: C_20  and  N_21 
REMARK   11  A    between atoms: N_21  and  S_26 
REMARK   12  A    between atoms: N_21  and  C_22 
REMARK   13  A    between atoms: C_22  and  C_23 
REMARK   14  A    between atoms: S_26  and  C_29 
ROOT
HETATM    1  C   UNK N   1      35.803  14.251  11.733  0.00  0.00     0.118 C 
ENDROOT
BRANCH   1   2
HETATM    2  N   UNK N   1      36.144  15.638  11.471  0.00  0.00    -0.354 N 
HETATM    3  C   UNK N   1      35.506  16.444  10.579  0.00  0.00     0.218 C 
HETATM    4  O   UNK N   1      35.899  17.591  10.434  0.00  0.00    -0.274 OA
HETATM    5  H   UNK N   1      36.893  16.025  11.977  0.00  0.00     0.163 HD
BRANCH   3   6
HETATM    6  C   UNK N   1      34.332  15.981   9.759  0.00  0.00     0.112 C 
BRANCH   6   7
HETATM    7  C   UNK N   1      34.590  16.006   8.251  0.00  0.00     0.112 C 
BRANCH   7   8
HETATM    8  C   UNK N   1      33.979  17.197   7.560  0.00  0.00     0.217 C 
HETATM    9  O   UNK N   1      34.664  18.194   7.394  0.00  0.00    -0.274 OA
HETATM   10  N   UNK N   1      32.691  17.202   7.139  0.00  0.00    -0.365 N 
HETATM   11  C   UNK N   1      31.809  16.077   7.317  0.00  0.00     0.149 C 
HETATM   12  H   UNK N   1      32.344  18.008   6.694  0.00  0.00     0.161 HD
ENDBRANCH   7   8
ENDBRANCH   6   7
ENDBRANCH   3   6
ENDBRANCH   1   2
BRANCH   1  13
HETATM   13  C   UNK N   1      36.621  13.253  10.893  0.00  0.00     0.066 C 
BRANCH  13  14
HETATM   14  C   UNK N   1      35.910  12.335   9.952  0.00  0.00    -0.056 A 
HETATM   15  C   UNK N   1      34.532  12.485   9.766  0.00  0.00     0.007 A 
HETATM   16  C   UNK N   1      33.862  11.719   8.809  0.00  0.00     0.001 A 
HETATM   17  C   UNK N   1      34.573  10.809   8.021  0.00  0.00     0.000 A 
HETATM   18  C   UNK N   1      35.954  10.664   8.195  0.00  0.00     0.001 A 
HETATM   19  C   UNK N   1      36.624  11.433   9.154  0.00  0.00     0.007 A 
ENDBRANCH  13  14
ENDBRANCH   1  13
BRANCH   1  20
HETATM   20  C   UNK N   1      35.796  13.971  13.248  0.00  0.00     0.155 C 
BRANCH  20  21
HETATM   21  C   UNK N   1      36.045  12.493  13.646  0.00  0.00     0.141 C 
BRANCH  21  22
HETATM   22  N   UNK N   1      34.895  11.798  14.277  0.00  0.00    -0.202 NA
BRANCH  22  23
HETATM   23  S   UNK N   1      35.460  11.086  15.819  0.00  0.00     0.266 S 
HETATM   24  O   UNK N   1      36.867  10.524  15.572  0.00  0.00    -0.204 OA
HETATM   25  O   UNK N   1      34.641   9.811  16.062  0.00  0.00    -0.204 OA
BRANCH  23  26
HETATM   26  C   UNK N   1      35.344  12.127  17.266  0.00  0.00     0.184 A 
HETATM   27  O   UNK N   1      35.336  11.672  18.492  0.00  0.00    -0.310 OA
HETATM   28  C   UNK N   1      35.221  12.678  19.324  0.00  0.00     0.143 A 
HETATM   29  C   UNK N   1      35.145  13.855  18.596  0.00  0.00     0.028 A 
HETATM   30  C   UNK N   1      35.221  13.495  17.264  0.00  0.00     0.053 A 
ENDBRANCH  23  26
ENDBRANCH  22  23
BRANCH  22  31
HETATM   31  C   UNK N   1      34.222  10.860  13.354  0.00  0.00     0.112 C 
BRANCH  31  32
HETATM   32  C   UNK N   1      35.141  10.060  12.438  0.00  0.00    -0.000 A 
HETATM   33  C   UNK N   1      34.308   9.196  11.518  0.00  0.00     0.006 A 
HETATM   34  C   UNK N   1      35.033   8.576  12.696  0.00  0.00     0.006 A 
ENDBRANCH  31  32
ENDBRANCH  22  31
ENDBRANCH  21  22
ENDBRANCH  20  21
BRANCH  20  35
HETATM   35  O   UNK N   1      36.800  14.762  13.817  0.00  0.00    -0.392 OA
HETATM   36  H   UNK N   1      37.613  15.001  13.345  0.00  0.00     0.210 HD
ENDBRANCH  20  35
ENDBRANCH   1  20
TORSDOF 14
ENDMDL
MODEL 9
REMARK VINA RESULT:      -6.5     13.089     15.724
REMARK  14 active torsions:
REMARK  status: ('A' for Active; 'I' for Inactive)
REMARK       I    between atoms: C_2  and  N_3 
REMARK    1  A    between atoms: C_2  and  C_5 
REMARK    2  A    between atoms: C_5  and  C_6 
REMARK    3  A    between atoms: C_6  and  C_7 
REMARK       I    between atoms: C_7  and  N_9 
REMARK    4  A    between atoms: C_10  and  N_9 
REMARK    5  A    between atoms: C_10  and  C_11 
REMARK    6  A    between atoms: C_10  and  C_18 
REMARK    7  A    between atoms: C_11  and  C_12 
REMARK    8  A    between atoms: C_18  and  C_20 
REMARK    9  A    between atoms: C_18  and  O_19 
REMARK   10  A    between atoms: C_20  and  N_21 
REMARK   11  A    between atoms: N_21  and  S_26 
REMARK   12  A    between atoms: N_21  and  C_22 
REMARK   13  A    between atoms: C_22  and  C_23 
REMARK   14  A    between atoms: S_26  and  C_29 
ROOT
HETATM    1  C   UNK N   1      30.383  16.946   4.620  0.00  0.00     0.118 C 
ENDROOT
BRANCH   1   2
HETATM    2  N   UNK N   1      29.712  18.229   4.504  0.00  0.00    -0.354 N 
HETATM    3  C   UNK N   1      28.457  18.498   4.953  0.00  0.00     0.218 C 
HETATM    4  O   UNK N   1      27.994  19.614   4.779  0.00  0.00    -0.274 OA
HETATM    5  H   UNK N   1      30.204  18.961   4.066  0.00  0.00     0.163 HD
BRANCH   3   6
HETATM    6  C   UNK N   1      27.609  17.473   5.659  0.00  0.00     0.112 C 
BRANCH   6   7
HETATM    7  C   UNK N   1      26.329  17.112   4.902  0.00  0.00     0.112 C 
BRANCH   7   8
HETATM    8  C   UNK N   1      25.372  16.276   5.711  0.00  0.00     0.217 C 
HETATM    9  O   UNK N   1      25.810  15.323   6.335  0.00  0.00    -0.274 OA
HETATM   10  N   UNK N   1      24.043  16.537   5.748  0.00  0.00    -0.365 N 
HETATM   11  C   UNK N   1      23.442  17.627   5.022  0.00  0.00     0.149 C 
HETATM   12  H   UNK N   1      23.463  15.957   6.293  0.00  0.00     0.161 HD
ENDBRANCH   7   8
ENDBRANCH   6   7
ENDBRANCH   3   6
ENDBRANCH   1   2
BRANCH   1  13
HETATM   13  C   UNK N   1      30.242  16.068   3.363  0.00  0.00     0.066 C 
BRANCH  13  14
HETATM   14  C   UNK N   1      29.132  15.069   3.291  0.00  0.00    -0.056 A 
HETATM   15  C   UNK N   1      28.939  14.189   4.361  0.00  0.00     0.007 A 
HETATM   16  C   UNK N   1      27.841  13.324   4.372  0.00  0.00     0.001 A 
HETATM   17  C   UNK N   1      26.924  13.347   3.317  0.00  0.00     0.000 A 
HETATM   18  C   UNK N   1      27.106  14.235   2.252  0.00  0.00     0.001 A 
HETATM   19  C   UNK N   1      28.206  15.101   2.242  0.00  0.00     0.007 A 
ENDBRANCH  13  14
ENDBRANCH   1  13
BRANCH   1  20
HETATM   20  C   UNK N   1      31.828  17.133   5.121  0.00  0.00     0.155 C 
BRANCH  20  21
HETATM   21  C   UNK N   1      32.075  16.709   6.591  0.00  0.00     0.141 C 
BRANCH  21  22
HETATM   22  N   UNK N   1      32.502  17.796   7.508  0.00  0.00    -0.202 NA
BRANCH  22  23
HETATM   23  S   UNK N   1      34.231  17.541   7.897  0.00  0.00     0.266 S 
HETATM   24  O   UNK N   1      34.929  18.903   7.775  0.00  0.00    -0.204 OA
HETATM   25  O   UNK N   1      34.850  16.756   6.732  0.00  0.00    -0.204 OA
BRANCH  23  26
HETATM   26  C   UNK N   1      34.587  16.682   9.421  0.00  0.00     0.184 A 
HETATM   27  O   UNK N   1      35.436  17.111  10.319  0.00  0.00    -0.310 OA
HETATM   28  C   UNK N   1      35.488  16.252  11.308  0.00  0.00     0.143 A 
HETATM   29  C   UNK N   1      34.627  15.201  11.035  0.00  0.00     0.028 A 
HETATM   30  C   UNK N   1      34.048  15.480   9.811  0.00  0.00     0.053 A 
ENDBRANCH  23  26
ENDBRANCH  22  23
BRANCH  22  31
HETATM   31  C   UNK N   1      31.605  17.943   8.673  0.00  0.00     0.112 C 
BRANCH  31  32
HETATM   32  C   UNK N   1      30.162  17.501   8.455  0.00  0.00    -0.000 A 
HETATM   33  C   UNK N   1      29.231  18.655   8.752  0.00  0.00     0.006 A 
HETATM   34  C   UNK N   1      29.373  17.516   9.743  0.00  0.00     0.006 A 
ENDBRANCH  31  32
ENDBRANCH  22  31
ENDBRANCH  21  22
ENDBRANCH  20  21
BRANCH  20  35
HETATM   35  O   UNK N   1      32.654  16.368   4.290  0.00  0.00    -0.392 OA
HETATM   36  H   UNK N   1      33.509  16.013   4.582  0.00  0.00     0.210 HD
ENDBRANCH  20  35
ENDBRANCH   1  20
TORSDOF 14
ENDMDL
