MODEL 1
REMARK VINA RESULT:      -7.5      0.000      0.000
REMARK  5 active torsions:
REMARK  status: ('A' for Active; 'I' for Inactive)
REMARK    1  A    between atoms: C_8  and  O_1 
REMARK    2  A    between atoms: C_19  and  O_5 
REMARK    3  A    between atoms: C_6  and  C_11 
REMARK    4  A    between atoms: C_11  and  C_12 
REMARK    5  A    between atoms: C_13  and  C_12 
ROOT
HETATM    1  C   UNK N   1      26.308  26.291  -8.464  0.00  0.00     0.014 C 
HETATM    2  C   UNK N   1      26.107  27.365  -6.188  0.00  0.00     0.004 C 
HETATM    3  C   UNK N   1      27.086  26.804  -7.261  0.00  0.00     0.009 C 
HETATM    4  C   UNK N   1      28.091  27.824  -7.740  0.00  0.00    -0.022 C 
HETATM    5  C   UNK N   1      28.329  28.968  -7.084  0.00  0.00     0.004 C 
HETATM    6  C   UNK N   1      27.670  29.260  -5.799  0.00  0.00    -0.055 C 
HETATM    7  C   UNK N   1      26.881  28.159  -5.101  0.00  0.00     0.052 C 
HETATM    8  C   UNK N   1      25.953  28.743  -4.004  0.00  0.00     0.127 C 
HETATM    9  C   UNK N   1      26.745  29.692  -3.120  0.00  0.00     0.036 C 
HETATM   10  C   UNK N   1      27.227  30.886  -3.939  0.00  0.00     0.030 C 
HETATM   11  C   UNK N   1      27.815  30.487  -5.268  0.00  0.00    -0.019 C 
ENDROOT
BRANCH   2  12
HETATM   12  C   UNK N   1      25.256  26.226  -5.604  0.00  0.00     0.009 C 
BRANCH  12  13
HETATM   13  C   UNK N   1      26.117  25.178  -4.896  0.00  0.00     0.033 C 
BRANCH  13  14
HETATM   14  C   UNK N   1      26.104  23.841  -5.613  0.00  0.00     0.134 C 
HETATM   15  O   UNK N   1      25.230  23.861  -6.688  0.00  0.00    -0.316 OA
HETATM   16  C   UNK N   1      25.185  22.810  -7.544  0.00  0.00     0.261 C 
HETATM   17  O   UNK N   1      24.354  22.776  -8.435  0.00  0.00    -0.265 OA
HETATM   18  C   UNK N   1      26.261  21.769  -7.464  0.00  0.00     0.142 C 
HETATM   19  C   UNK N   1      27.579  22.522  -7.268  0.00  0.00     0.130 C 
HETATM   20  C   UNK N   1      27.534  23.445  -6.038  0.00  0.00     0.065 C 
BRANCH  19  21
HETATM   21  O   UNK N   1      28.632  21.619  -7.138  0.00  0.00    -0.395 OA
HETATM   22  H   UNK N   1      29.079  21.469  -6.290  0.00  0.00     0.210 HD
ENDBRANCH  19  21
ENDBRANCH  13  14
ENDBRANCH  12  13
ENDBRANCH   2  12
BRANCH   8  23
HETATM   23  O   UNK N   1      25.415  27.732  -3.207  0.00  0.00    -0.395 OA
HETATM   24  H   UNK N   1      25.982  27.146  -2.681  0.00  0.00     0.210 HD
ENDBRANCH   8  23
TORSDOF 5
ENDMDL
MODEL 2
REMARK VINA RESULT:      -7.2     16.652     18.494
REMARK  5 active torsions:
REMARK  status: ('A' for Active; 'I' for Inactive)
REMARK    1  A    between atoms: C_8  and  O_1 
REMARK    2  A    between atoms: C_19  and  O_5 
REMARK    3  A    between atoms: C_6  and  C_11 
REMARK    4  A    between atoms: C_11  and  C_12 
REMARK    5  A    between atoms: C_13  and  C_12 
ROOT
HETATM    1  C   UNK N   1      31.830  15.821   3.990  0.00  0.00     0.014 C 
HETATM    2  C   UNK N   1      31.386  16.609   6.347  0.00  0.00     0.004 C 
HETATM    3  C   UNK N   1      31.266  16.955   4.834  0.00  0.00     0.009 C 
HETATM    4  C   UNK N   1      29.845  17.217   4.396  0.00  0.00    -0.022 C 
HETATM    5  C   UNK N   1      28.852  17.453   5.264  0.00  0.00     0.004 C 
HETATM    6  C   UNK N   1      29.113  17.550   6.711  0.00  0.00    -0.055 C 
HETATM    7  C   UNK N   1      30.554  17.601   7.204  0.00  0.00     0.052 C 
HETATM    8  C   UNK N   1      30.637  17.303   8.724  0.00  0.00     0.127 C 
HETATM    9  C   UNK N   1      29.623  18.156   9.466  0.00  0.00     0.036 C 
HETATM   10  C   UNK N   1      28.208  17.771   9.042  0.00  0.00     0.030 C 
HETATM   11  C   UNK N   1      28.064  17.622   7.549  0.00  0.00    -0.019 C 
ENDROOT
BRANCH   2  12
HETATM   12  C   UNK N   1      32.866  16.559   6.760  0.00  0.00     0.009 C 
BRANCH  12  13
HETATM   13  C   UNK N   1      33.296  15.150   7.174  0.00  0.00     0.033 C 
BRANCH  13  14
HETATM   14  C   UNK N   1      34.214  15.159   8.381  0.00  0.00     0.134 C 
HETATM   15  O   UNK N   1      34.543  16.453   8.748  0.00  0.00    -0.316 OA
HETATM   16  C   UNK N   1      35.235  16.679   9.892  0.00  0.00     0.261 C 
HETATM   17  O   UNK N   1      35.612  17.803  10.174  0.00  0.00    -0.265 OA
HETATM   18  C   UNK N   1      35.401  15.551  10.867  0.00  0.00     0.142 C 
HETATM   19  C   UNK N   1      34.050  14.835  10.936  0.00  0.00     0.130 C 
HETATM   20  C   UNK N   1      33.577  14.372   9.546  0.00  0.00     0.065 C 
BRANCH  19  21
HETATM   21  O   UNK N   1      34.132  13.739  11.792  0.00  0.00    -0.395 OA
HETATM   22  H   UNK N   1      34.047  12.828  11.471  0.00  0.00     0.210 HD
ENDBRANCH  19  21
ENDBRANCH  13  14
ENDBRANCH  12  13
ENDBRANCH   2  12
BRANCH   8  23
HETATM   23  O   UNK N   1      31.910  17.582   9.225  0.00  0.00    -0.395 OA
HETATM   24  H   UNK N   1      32.619  17.911   8.649  0.00  0.00     0.210 HD
ENDBRANCH   8  23
TORSDOF 5
ENDMDL
MODEL 3
REMARK VINA RESULT:      -7.1      3.045      4.496
REMARK  5 active torsions:
REMARK  status: ('A' for Active; 'I' for Inactive)
REMARK    1  A    between atoms: C_8  and  O_1 
REMARK    2  A    between atoms: C_19  and  O_5 
REMARK    3  A    between atoms: C_6  and  C_11 
REMARK    4  A    between atoms: C_11  and  C_12 
REMARK    5  A    between atoms: C_13  and  C_12 
ROOT
HETATM    1  C   UNK N   1      26.499  23.067  -8.242  0.00  0.00     0.014 C 
HETATM    2  C   UNK N   1      26.776  24.310  -6.062  0.00  0.00     0.004 C 
HETATM    3  C   UNK N   1      26.949  24.375  -7.608  0.00  0.00     0.009 C 
HETATM    4  C   UNK N   1      26.178  25.506  -8.245  0.00  0.00    -0.022 C 
HETATM    5  C   UNK N   1      25.678  26.529  -7.539  0.00  0.00     0.004 C 
HETATM    6  C   UNK N   1      25.925  26.647  -6.091  0.00  0.00    -0.055 C 
HETATM    7  C   UNK N   1      26.939  25.720  -5.432  0.00  0.00     0.052 C 
HETATM    8  C   UNK N   1      26.776  25.715  -3.889  0.00  0.00     0.127 C 
HETATM    9  C   UNK N   1      26.715  27.145  -3.380  0.00  0.00     0.036 C 
HETATM   10  C   UNK N   1      25.472  27.841  -3.930  0.00  0.00     0.030 C 
HETATM   11  C   UNK N   1      25.266  27.596  -5.403  0.00  0.00    -0.019 C 
ENDROOT
BRANCH   2  12
HETATM   12  C   UNK N   1      27.742  23.274  -5.467  0.00  0.00     0.009 C 
BRANCH  12  13
HETATM   13  C   UNK N   1      29.173  23.472  -5.974  0.00  0.00     0.033 C 
BRANCH  13  14
HETATM   14  C   UNK N   1      30.208  22.939  -5.000  0.00  0.00     0.134 C 
HETATM   15  O   UNK N   1      29.877  23.264  -3.695  0.00  0.00    -0.316 OA
HETATM   16  C   UNK N   1      30.598  22.754  -2.666  0.00  0.00     0.261 C 
HETATM   17  O   UNK N   1      30.378  23.109  -1.521  0.00  0.00    -0.265 OA
HETATM   18  C   UNK N   1      31.568  21.644  -2.947  0.00  0.00     0.142 C 
HETATM   19  C   UNK N   1      30.867  20.692  -3.918  0.00  0.00     0.130 C 
HETATM   20  C   UNK N   1      30.390  21.418  -5.188  0.00  0.00     0.065 C 
BRANCH  19  21
HETATM   21  O   UNK N   1      31.722  19.649  -4.268  0.00  0.00    -0.395 OA
HETATM   22  H   UNK N   1      31.796  19.329  -5.180  0.00  0.00     0.210 HD
ENDBRANCH  19  21
ENDBRANCH  13  14
ENDBRANCH  12  13
ENDBRANCH   2  12
BRANCH   8  23
HETATM   23  O   UNK N   1      27.844  25.064  -3.271  0.00  0.00    -0.395 OA
HETATM   24  H   UNK N   1      28.077  25.242  -2.346  0.00  0.00     0.210 HD
ENDBRANCH   8  23
TORSDOF 5
ENDMDL
MODEL 4
REMARK VINA RESULT:      -7.1      1.433      3.052
REMARK  5 active torsions:
REMARK  status: ('A' for Active; 'I' for Inactive)
REMARK    1  A    between atoms: C_8  and  O_1 
REMARK    2  A    between atoms: C_19  and  O_5 
REMARK    3  A    between atoms: C_6  and  C_11 
REMARK    4  A    between atoms: C_11  and  C_12 
REMARK    5  A    between atoms: C_13  and  C_12 
ROOT
HETATM    1  C   UNK N   1      25.896  27.642  -3.161  0.00  0.00     0.014 C 
HETATM    2  C   UNK N   1      26.501  27.048  -5.539  0.00  0.00     0.004 C 
HETATM    3  C   UNK N   1      25.964  28.160  -4.591  0.00  0.00     0.009 C 
HETATM    4  C   UNK N   1      26.806  29.412  -4.607  0.00  0.00    -0.022 C 
HETATM    5  C   UNK N   1      27.709  29.665  -5.564  0.00  0.00     0.004 C 
HETATM    6  C   UNK N   1      27.874  28.758  -6.713  0.00  0.00    -0.055 C 
HETATM    7  C   UNK N   1      26.861  27.640  -6.929  0.00  0.00     0.052 C 
HETATM    8  C   UNK N   1      27.403  26.574  -7.918  0.00  0.00     0.127 C 
HETATM    9  C   UNK N   1      27.948  27.262  -9.158  0.00  0.00     0.036 C 
HETATM   10  C   UNK N   1      29.144  28.135  -8.787  0.00  0.00     0.030 C 
HETATM   11  C   UNK N   1      28.902  28.967  -7.554  0.00  0.00    -0.019 C 
ENDROOT
BRANCH   2  12
HETATM   12  C   UNK N   1      25.489  25.894  -5.625  0.00  0.00     0.009 C 
BRANCH  12  13
HETATM   13  C   UNK N   1      25.948  24.672  -4.827  0.00  0.00     0.033 C 
BRANCH  13  14
HETATM   14  C   UNK N   1      26.052  23.427  -5.688  0.00  0.00     0.134 C 
HETATM   15  O   UNK N   1      25.146  23.468  -6.734  0.00  0.00    -0.316 OA
HETATM   16  C   UNK N   1      25.183  22.517  -7.701  0.00  0.00     0.261 C 
HETATM   17  O   UNK N   1      24.331  22.488  -8.572  0.00  0.00    -0.265 OA
HETATM   18  C   UNK N   1      26.366  21.597  -7.760  0.00  0.00     0.142 C 
HETATM   19  C   UNK N   1      27.602  22.463  -7.511  0.00  0.00     0.130 C 
HETATM   20  C   UNK N   1      27.501  23.238  -6.185  0.00  0.00     0.065 C 
BRANCH  19  21
HETATM   21  O   UNK N   1      28.749  21.672  -7.505  0.00  0.00    -0.395 OA
HETATM   22  H   UNK N   1      29.195  21.405  -8.323  0.00  0.00     0.210 HD
ENDBRANCH  19  21
ENDBRANCH  13  14
ENDBRANCH  12  13
ENDBRANCH   2  12
BRANCH   8  23
HETATM   23  O   UNK N   1      26.399  25.685  -8.302  0.00  0.00    -0.395 OA
HETATM   24  H   UNK N   1      25.463  25.940  -8.284  0.00  0.00     0.210 HD
ENDBRANCH   8  23
TORSDOF 5
ENDMDL
MODEL 5
REMARK VINA RESULT:      -6.9     17.226     19.271
REMARK  5 active torsions:
REMARK  status: ('A' for Active; 'I' for Inactive)
REMARK    1  A    between atoms: C_8  and  O_1 
REMARK    2  A    between atoms: C_19  and  O_5 
REMARK    3  A    between atoms: C_6  and  C_11 
REMARK    4  A    between atoms: C_11  and  C_12 
REMARK    5  A    between atoms: C_13  and  C_12 
ROOT
HETATM    1  C   UNK N   1      30.461  18.307   9.210  0.00  0.00     0.014 C 
HETATM    2  C   UNK N   1      32.121  17.562   7.460  0.00  0.00     0.004 C 
HETATM    3  C   UNK N   1      30.748  17.270   8.133  0.00  0.00     0.009 C 
HETATM    4  C   UNK N   1      29.597  17.264   7.156  0.00  0.00    -0.022 C 
HETATM    5  C   UNK N   1      29.773  17.185   5.830  0.00  0.00     0.004 C 
HETATM    6  C   UNK N   1      31.117  17.017   5.250  0.00  0.00    -0.055 C 
HETATM    7  C   UNK N   1      32.292  16.712   6.172  0.00  0.00     0.052 C 
HETATM    8  C   UNK N   1      33.646  16.963   5.458  0.00  0.00     0.127 C 
HETATM    9  C   UNK N   1      33.638  16.281   4.100  0.00  0.00     0.036 C 
HETATM   10  C   UNK N   1      32.572  16.911   3.207  0.00  0.00     0.030 C 
HETATM   11  C   UNK N   1      31.257  17.110   3.916  0.00  0.00    -0.019 C 
ENDROOT
BRANCH   2  12
HETATM   12  C   UNK N   1      33.259  17.350   8.471  0.00  0.00     0.009 C 
BRANCH  12  13
HETATM   13  C   UNK N   1      33.183  15.973   9.134  0.00  0.00     0.033 C 
BRANCH  13  14
HETATM   14  C   UNK N   1      34.279  15.768  10.164  0.00  0.00     0.134 C 
HETATM   15  O   UNK N   1      33.931  14.782  11.072  0.00  0.00    -0.316 OA
HETATM   16  C   UNK N   1      34.838  14.347  11.982  0.00  0.00     0.261 C 
HETATM   17  O   UNK N   1      34.513  13.551  12.845  0.00  0.00    -0.265 OA
HETATM   18  C   UNK N   1      36.273  14.752  11.818  0.00  0.00     0.142 C 
HETATM   19  C   UNK N   1      36.589  14.631  10.325  0.00  0.00     0.130 C 
HETATM   20  C   UNK N   1      35.621  15.463   9.466  0.00  0.00     0.065 C 
BRANCH  19  21
HETATM   21  O   UNK N   1      37.900  15.035  10.079  0.00  0.00    -0.395 OA
HETATM   22  H   UNK N   1      38.598  14.404   9.846  0.00  0.00     0.210 HD
ENDBRANCH  19  21
ENDBRANCH  13  14
ENDBRANCH  12  13
ENDBRANCH   2  12
BRANCH   8  23
HETATM   23  O   UNK N   1      34.712  16.460   6.205  0.00  0.00    -0.395 OA
HETATM   24  H   UNK N   1      34.731  15.536   6.501  0.00  0.00     0.210 HD
ENDBRANCH   8  23
TORSDOF 5
ENDMDL
MODEL 6
REMARK VINA RESULT:      -6.9      3.070      4.208
REMARK  5 active torsions:
REMARK  status: ('A' for Active; 'I' for Inactive)
REMARK    1  A    between atoms: C_8  and  O_1 
REMARK    2  A    between atoms: C_19  and  O_5 
REMARK    3  A    between atoms: C_6  and  C_11 
REMARK    4  A    between atoms: C_11  and  C_12 
REMARK    5  A    between atoms: C_13  and  C_12 
ROOT
HETATM    1  C   UNK N   1      25.940  23.782  -5.427  0.00  0.00     0.014 C 
HETATM    2  C   UNK N   1      27.333  25.696  -4.551  0.00  0.00     0.004 C 
HETATM    3  C   UNK N   1      26.438  25.190  -5.720  0.00  0.00     0.009 C 
HETATM    4  C   UNK N   1      25.243  26.076  -5.979  0.00  0.00    -0.022 C 
HETATM    5  C   UNK N   1      25.146  27.321  -5.492  0.00  0.00     0.004 C 
HETATM    6  C   UNK N   1      26.251  27.928  -4.730  0.00  0.00    -0.055 C 
HETATM    7  C   UNK N   1      27.600  27.220  -4.684  0.00  0.00     0.052 C 
HETATM    8  C   UNK N   1      28.489  27.780  -3.543  0.00  0.00     0.127 C 
HETATM    9  C   UNK N   1      28.508  29.298  -3.611  0.00  0.00     0.036 C 
HETATM   10  C   UNK N   1      27.107  29.848  -3.358  0.00  0.00     0.030 C 
HETATM   11  C   UNK N   1      26.040  29.110  -4.124  0.00  0.00    -0.019 C 
ENDROOT
BRANCH   2  12
HETATM   12  C   UNK N   1      28.626  24.867  -4.481  0.00  0.00     0.009 C 
BRANCH  12  13
HETATM   13  C   UNK N   1      28.748  24.112  -3.156  0.00  0.00     0.033 C 
BRANCH  13  14
HETATM   14  C   UNK N   1      29.445  22.774  -3.317  0.00  0.00     0.134 C 
HETATM   15  O   UNK N   1      29.626  22.465  -4.655  0.00  0.00    -0.316 OA
HETATM   16  C   UNK N   1      30.361  21.381  -5.007  0.00  0.00     0.261 C 
HETATM   17  O   UNK N   1      30.446  21.045  -6.175  0.00  0.00    -0.265 OA
HETATM   18  C   UNK N   1      31.179  20.693  -3.954  0.00  0.00     0.142 C 
HETATM   19  C   UNK N   1      31.825  21.798  -3.116  0.00  0.00     0.130 C 
HETATM   20  C   UNK N   1      30.776  22.764  -2.536  0.00  0.00     0.065 C 
BRANCH  19  21
HETATM   21  O   UNK N   1      32.571  21.240  -2.080  0.00  0.00    -0.395 OA
HETATM   22  H   UNK N   1      32.153  20.808  -1.320  0.00  0.00     0.210 HD
ENDBRANCH  19  21
ENDBRANCH  13  14
ENDBRANCH  12  13
ENDBRANCH   2  12
BRANCH   8  23
HETATM   23  O   UNK N   1      29.799  27.310  -3.647  0.00  0.00    -0.395 OA
HETATM   24  H   UNK N   1      30.000  26.361  -3.617  0.00  0.00     0.210 HD
ENDBRANCH   8  23
TORSDOF 5
ENDMDL
MODEL 7
REMARK VINA RESULT:      -6.7     17.574     19.398
REMARK  5 active torsions:
REMARK  status: ('A' for Active; 'I' for Inactive)
REMARK    1  A    between atoms: C_8  and  O_1 
REMARK    2  A    between atoms: C_19  and  O_5 
REMARK    3  A    between atoms: C_6  and  C_11 
REMARK    4  A    between atoms: C_11  and  C_12 
REMARK    5  A    between atoms: C_13  and  C_12 
ROOT
HETATM    1  C   UNK N   1      34.759  15.994   6.190  0.00  0.00     0.014 C 
HETATM    2  C   UNK N   1      32.576  16.666   7.265  0.00  0.00     0.004 C 
HETATM    3  C   UNK N   1      33.639  17.024   6.185  0.00  0.00     0.009 C 
HETATM    4  C   UNK N   1      33.065  17.102   4.791  0.00  0.00    -0.022 C 
HETATM    5  C   UNK N   1      31.749  17.185   4.553  0.00  0.00     0.004 C 
HETATM    6  C   UNK N   1      30.781  17.286   5.660  0.00  0.00    -0.055 C 
HETATM    7  C   UNK N   1      31.293  17.519   7.076  0.00  0.00     0.052 C 
HETATM    8  C   UNK N   1      30.197  17.203   8.128  0.00  0.00     0.127 C 
HETATM    9  C   UNK N   1      28.902  17.897   7.738  0.00  0.00     0.036 C 
HETATM   10  C   UNK N   1      28.388  17.334   6.415  0.00  0.00     0.030 C 
HETATM   11  C   UNK N   1      29.470  17.199   5.375  0.00  0.00    -0.019 C 
ENDROOT
BRANCH   2  12
HETATM   12  C   UNK N   1      33.185  16.806   8.670  0.00  0.00     0.009 C 
BRANCH  12  13
HETATM   13  C   UNK N   1      33.215  15.470   9.415  0.00  0.00     0.033 C 
BRANCH  13  14
HETATM   14  C   UNK N   1      34.350  15.395  10.419  0.00  0.00     0.134 C 
HETATM   15  O   UNK N   1      34.103  14.427  11.378  0.00  0.00    -0.316 OA
HETATM   16  C   UNK N   1      35.065  14.104  12.278  0.00  0.00     0.261 C 
HETATM   17  O   UNK N   1      34.825  13.325  13.185  0.00  0.00    -0.265 OA
HETATM   18  C   UNK N   1      36.459  14.608  12.054  0.00  0.00     0.142 C 
HETATM   19  C   UNK N   1      36.744  14.444  10.559  0.00  0.00     0.130 C 
HETATM   20  C   UNK N   1      35.693  15.161   9.694  0.00  0.00     0.065 C 
BRANCH  19  21
HETATM   21  O   UNK N   1      38.013  14.935  10.257  0.00  0.00    -0.395 OA
HETATM   22  H   UNK N   1      38.637  15.207  10.947  0.00  0.00     0.210 HD
ENDBRANCH  19  21
ENDBRANCH  13  14
ENDBRANCH  12  13
ENDBRANCH   2  12
BRANCH   8  23
HETATM   23  O   UNK N   1      30.575  17.640   9.398  0.00  0.00    -0.395 OA
HETATM   24  H   UNK N   1      30.049  17.424  10.184  0.00  0.00     0.210 HD
ENDBRANCH   8  23
TORSDOF 5
ENDMDL
MODEL 8
REMARK VINA RESULT:      -6.7     18.320     20.615
REMARK  5 active torsions:
REMARK  status: ('A' for Active; 'I' for Inactive)
REMARK    1  A    between atoms: C_8  and  O_1 
REMARK    2  A    between atoms: C_19  and  O_5 
REMARK    3  A    between atoms: C_6  and  C_11 
REMARK    4  A    between atoms: C_11  and  C_12 
REMARK    5  A    between atoms: C_13  and  C_12 
ROOT
HETATM    1  C   UNK N   1      23.745  14.584   6.286  0.00  0.00     0.014 C 
HETATM    2  C   UNK N   1      22.149  14.014   8.158  0.00  0.00     0.004 C 
HETATM    3  C   UNK N   1      23.076  13.446   7.044  0.00  0.00     0.009 C 
HETATM    4  C   UNK N   1      24.151  12.529   7.577  0.00  0.00    -0.022 C 
HETATM    5  C   UNK N   1      24.108  12.002   8.808  0.00  0.00     0.004 C 
HETATM    6  C   UNK N   1      22.952  12.230   9.693  0.00  0.00    -0.055 C 
HETATM    7  C   UNK N   1      21.699  12.887   9.126  0.00  0.00     0.052 C 
HETATM    8  C   UNK N   1      20.771  13.397  10.259  0.00  0.00     0.127 C 
HETATM    9  C   UNK N   1      20.569  12.296  11.286  0.00  0.00     0.036 C 
HETATM   10  C   UNK N   1      21.899  11.958  11.956  0.00  0.00     0.030 C 
HETATM   11  C   UNK N   1      23.032  11.821  10.972  0.00  0.00    -0.019 C 
ENDROOT
BRANCH   2  12
HETATM   12  C   UNK N   1      20.966  14.766   7.526  0.00  0.00     0.009 C 
BRANCH  12  13
HETATM   13  C   UNK N   1      21.151  16.283   7.597  0.00  0.00     0.033 C 
BRANCH  13  14
HETATM   14  C   UNK N   1      19.884  16.999   8.026  0.00  0.00     0.134 C 
HETATM   15  O   UNK N   1      18.950  16.104   8.521  0.00  0.00    -0.316 OA
HETATM   16  C   UNK N   1      17.808  16.562   9.092  0.00  0.00     0.261 C 
HETATM   17  O   UNK N   1      16.938  15.784   9.442  0.00  0.00    -0.265 OA
HETATM   18  C   UNK N   1      17.701  18.023   9.415  0.00  0.00     0.142 C 
HETATM   19  C   UNK N   1      19.053  18.438  10.000  0.00  0.00     0.130 C 
HETATM   20  C   UNK N   1      20.214  18.111   9.045  0.00  0.00     0.065 C 
BRANCH  19  21
HETATM   21  O   UNK N   1      19.053  19.801  10.287  0.00  0.00    -0.395 OA
HETATM   22  H   UNK N   1      18.245  20.336  10.241  0.00  0.00     0.210 HD
ENDBRANCH  19  21
ENDBRANCH  13  14
ENDBRANCH  12  13
ENDBRANCH   2  12
BRANCH   8  23
HETATM   23  O   UNK N   1      19.525  13.777   9.759  0.00  0.00    -0.395 OA
HETATM   24  H   UNK N   1      18.701  13.490  10.182  0.00  0.00     0.210 HD
ENDBRANCH   8  23
TORSDOF 5
ENDMDL
MODEL 9
REMARK VINA RESULT:      -6.7      3.609      4.624
REMARK  5 active torsions:
REMARK  status: ('A' for Active; 'I' for Inactive)
REMARK    1  A    between atoms: C_8  and  O_1 
REMARK    2  A    between atoms: C_19  and  O_5 
REMARK    3  A    between atoms: C_6  and  C_11 
REMARK    4  A    between atoms: C_11  and  C_12 
REMARK    5  A    between atoms: C_13  and  C_12 
ROOT
HETATM    1  C   UNK N   1      31.592  25.610  -4.543  0.00  0.00     0.014 C 
HETATM    2  C   UNK N   1      29.116  26.082  -4.405  0.00  0.00     0.004 C 
HETATM    3  C   UNK N   1      30.482  26.165  -3.662  0.00  0.00     0.009 C 
HETATM    4  C   UNK N   1      30.852  27.571  -3.255  0.00  0.00    -0.022 C 
HETATM    5  C   UNK N   1      29.965  28.576  -3.234  0.00  0.00     0.004 C 
HETATM    6  C   UNK N   1      28.542  28.341  -3.536  0.00  0.00    -0.055 C 
HETATM    7  C   UNK N   1      28.035  26.909  -3.658  0.00  0.00     0.052 C 
HETATM    8  C   UNK N   1      26.650  26.862  -4.355  0.00  0.00     0.127 C 
HETATM    9  C   UNK N   1      25.719  27.872  -3.706  0.00  0.00     0.036 C 
HETATM   10  C   UNK N   1      26.250  29.286  -3.925  0.00  0.00     0.030 C 
HETATM   11  C   UNK N   1      27.729  29.404  -3.664  0.00  0.00    -0.019 C 
ENDROOT
BRANCH   2  12
HETATM   12  C   UNK N   1      28.713  24.612  -4.603  0.00  0.00     0.009 C 
BRANCH  12  13
HETATM   13  C   UNK N   1      28.776  23.822  -3.293  0.00  0.00     0.033 C 
BRANCH  13  14
HETATM   14  C   UNK N   1      29.573  22.539  -3.432  0.00  0.00     0.134 C 
HETATM   15  O   UNK N   1      29.870  22.278  -4.760  0.00  0.00    -0.316 OA
HETATM   16  C   UNK N   1      30.701  21.255  -5.080  0.00  0.00     0.261 C 
HETATM   17  O   UNK N   1      30.892  20.957  -6.246  0.00  0.00    -0.265 OA
HETATM   18  C   UNK N   1      31.488  20.596  -3.985  0.00  0.00     0.142 C 
HETATM   19  C   UNK N   1      31.994  21.721  -3.079  0.00  0.00     0.130 C 
HETATM   20  C   UNK N   1      30.843  22.598  -2.557  0.00  0.00     0.065 C 
BRANCH  19  21
HETATM   21  O   UNK N   1      32.702  21.187  -2.004  0.00  0.00    -0.395 OA
HETATM   22  H   UNK N   1      32.263  20.922  -1.180  0.00  0.00     0.210 HD
ENDBRANCH  19  21
ENDBRANCH  13  14
ENDBRANCH  12  13
ENDBRANCH   2  12
BRANCH   8  23
HETATM   23  O   UNK N   1      26.077  25.594  -4.254  0.00  0.00    -0.395 OA
HETATM   24  H   UNK N   1      25.157  25.475  -3.967  0.00  0.00     0.210 HD
ENDBRANCH   8  23
TORSDOF 5
ENDMDL
