MODEL 1
REMARK VINA RESULT:      -6.1      0.000      0.000
REMARK  13 active torsions:
REMARK  status: ('A' for Active; 'I' for Inactive)
REMARK    1  A    between atoms: N_3  and  C_25 
REMARK       I    between atoms: N_3  and  C_26 
REMARK    2  A    between atoms: C_4  and  O_6 
REMARK    3  A    between atoms: C_5  and  C_9 
REMARK    4  A    between atoms: C_8  and  C_21 
REMARK    5  A    between atoms: C_9  and  C_10 
REMARK    6  A    between atoms: C_12  and  C_13 
REMARK    7  A    between atoms: C_14  and  C_15 
REMARK    8  A    between atoms: C_15  and  C_16 
REMARK    9  A    between atoms: C_16  and  C_17 
REMARK   10  A    between atoms: C_21  and  C_22 
REMARK   11  A    between atoms: C_22  and  C_23 
REMARK   12  A    between atoms: C_23  and  C_24 
REMARK   13  A    between atoms: C_26  and  O_29 
ROOT
HETATM    1  O   UNK N   1      29.582  23.450  -5.461  0.00  0.00    -0.279 OA
HETATM    2  C   UNK N   1      28.347  24.020  -3.532  0.00  0.00     0.070 A 
HETATM    3  C   UNK N   1      27.180  24.074  -4.288  0.00  0.00     0.088 A 
HETATM    4  C   UNK N   1      27.238  23.853  -5.682  0.00  0.00     0.123 A 
HETATM    5  C   UNK N   1      28.497  23.485  -6.226  0.00  0.00     0.305 A 
HETATM    6  C   UNK N   1      29.552  23.725  -4.163  0.00  0.00     0.059 A 
HETATM    7  O   UNK N   1      28.604  23.171  -7.398  0.00  0.00    -0.259 OA
ENDROOT
BRANCH   4   8
HETATM    8  C   UNK N   1      26.000  24.033  -6.523  0.00  0.00     0.196 C 
HETATM    9  O   UNK N   1      25.045  23.296  -6.323  0.00  0.00    -0.287 OA
BRANCH   8  10
HETATM   10  C   UNK N   1      25.841  25.189  -7.483  0.00  0.00    -0.011 C 
HETATM   11  C   UNK N   1      25.513  26.433  -7.106  0.00  0.00     0.011 C 
HETATM   12  C   UNK N   1      26.223  25.056  -8.920  0.00  0.00     0.052 C 
BRANCH  11  13
HETATM   13  C   UNK N   1      25.186  26.893  -5.746  0.00  0.00     0.003 C 
HETATM   14  C   UNK N   1      26.026  27.687  -5.062  0.00  0.00    -0.084 C 
HETATM   15  C   UNK N   1      25.667  28.100  -3.678  0.00  0.00     0.043 C 
BRANCH  14  16
HETATM   16  C   UNK N   1      27.348  28.136  -5.628  0.00  0.00     0.034 C 
BRANCH  16  17
HETATM   17  C   UNK N   1      28.514  27.487  -4.893  0.00  0.00     0.004 C 
BRANCH  17  18
HETATM   18  C   UNK N   1      29.555  26.985  -5.878  0.00  0.00    -0.004 C 
HETATM   19  C   UNK N   1      29.059  27.149  -7.301  0.00  0.00     0.005 C 
ENDBRANCH  17  18
ENDBRANCH  16  17
ENDBRANCH  14  16
ENDBRANCH  11  13
ENDBRANCH   8  10
ENDBRANCH   4   8
BRANCH   3  20
HETATM   20  O   UNK N   1      26.025  24.395  -3.679  0.00  0.00    -0.359 OA
HETATM   21  H   UNK N   1      25.358  23.759  -3.507  0.00  0.00     0.217 HD
ENDBRANCH   3  20
BRANCH   6  22
HETATM   22  C   UNK N   1      30.824  23.821  -3.400  0.00  0.00     0.065 C 
BRANCH  22  23
HETATM   23  C   UNK N   1      31.086  22.600  -2.532  0.00  0.00     0.010 C 
BRANCH  23  24
HETATM   24  C   UNK N   1      31.016  21.343  -3.391  0.00  0.00     0.029 C 
BRANCH  24  25
HETATM   25  C   UNK N   1      32.400  21.007  -3.824  0.00  0.00    -0.009 C 
HETATM   26  C   UNK N   1      32.658  20.001  -4.654  0.00  0.00     0.089 C 
BRANCH  26  27
HETATM   27  N   UNK N   1      33.999  19.593  -4.911  0.00  0.00    -0.313 N 
HETATM   28  C   UNK N   1      34.557  18.454  -4.402  0.00  0.00     0.364 C 
HETATM   29  O   UNK N   1      33.896  17.691  -3.712  0.00  0.00    -0.238 OA
HETATM   30  H   UNK N   1      34.554  20.163  -5.491  0.00  0.00     0.170 HD
BRANCH  28  31
HETATM   31  O   UNK N   1      35.845  18.138  -4.672  0.00  0.00    -0.309 OA
HETATM   32  C   UNK N   1      36.653  18.931  -5.451  0.00  0.00     0.215 C 
ENDBRANCH  28  31
ENDBRANCH  26  27
ENDBRANCH  24  25
ENDBRANCH  23  24
ENDBRANCH  22  23
ENDBRANCH   6  22
TORSDOF 13
ENDMDL
MODEL 2
REMARK VINA RESULT:      -6.0     13.466     16.798
REMARK  13 active torsions:
REMARK  status: ('A' for Active; 'I' for Inactive)
REMARK    1  A    between atoms: N_3  and  C_25 
REMARK       I    between atoms: N_3  and  C_26 
REMARK    2  A    between atoms: C_4  and  O_6 
REMARK    3  A    between atoms: C_5  and  C_9 
REMARK    4  A    between atoms: C_8  and  C_21 
REMARK    5  A    between atoms: C_9  and  C_10 
REMARK    6  A    between atoms: C_12  and  C_13 
REMARK    7  A    between atoms: C_14  and  C_15 
REMARK    8  A    between atoms: C_15  and  C_16 
REMARK    9  A    between atoms: C_16  and  C_17 
REMARK   10  A    between atoms: C_21  and  C_22 
REMARK   11  A    between atoms: C_22  and  C_23 
REMARK   12  A    between atoms: C_23  and  C_24 
REMARK   13  A    between atoms: C_26  and  O_29 
ROOT
HETATM    1  O   UNK N   1      35.263  17.493   9.703  0.00  0.00    -0.279 OA
HETATM    2  C   UNK N   1      34.937  15.216   9.175  0.00  0.00     0.070 A 
HETATM    3  C   UNK N   1      34.370  15.575   7.955  0.00  0.00     0.088 A 
HETATM    4  C   UNK N   1      34.207  16.940   7.634  0.00  0.00     0.123 A 
HETATM    5  C   UNK N   1      34.733  17.887   8.551  0.00  0.00     0.305 A 
HETATM    6  C   UNK N   1      35.357  16.215  10.048  0.00  0.00     0.059 A 
HETATM    7  O   UNK N   1      34.730  19.078   8.292  0.00  0.00    -0.259 OA
ENDROOT
BRANCH   4   8
HETATM    8  C   UNK N   1      33.481  17.333   6.372  0.00  0.00     0.196 C 
HETATM    9  O   UNK N   1      34.077  18.001   5.538  0.00  0.00    -0.287 OA
BRANCH   8  10
HETATM   10  C   UNK N   1      32.111  16.795   6.032  0.00  0.00    -0.011 C 
HETATM   11  C   UNK N   1      31.026  16.977   6.797  0.00  0.00     0.011 C 
HETATM   12  C   UNK N   1      31.837  16.164   4.707  0.00  0.00     0.052 C 
BRANCH  11  13
HETATM   13  C   UNK N   1      30.963  17.652   8.104  0.00  0.00     0.003 C 
HETATM   14  C   UNK N   1      29.792  18.066   8.616  0.00  0.00    -0.084 C 
HETATM   15  C   UNK N   1      29.782  18.773   9.925  0.00  0.00     0.043 C 
BRANCH  14  16
HETATM   16  C   UNK N   1      28.487  17.886   7.884  0.00  0.00     0.034 C 
BRANCH  16  17
HETATM   17  C   UNK N   1      27.839  19.229   7.570  0.00  0.00     0.004 C 
BRANCH  17  18
HETATM   18  C   UNK N   1      28.034  19.588   6.108  0.00  0.00    -0.004 C 
HETATM   19  C   UNK N   1      27.566  21.006   5.845  0.00  0.00     0.005 C 
ENDBRANCH  17  18
ENDBRANCH  16  17
ENDBRANCH  14  16
ENDBRANCH  11  13
ENDBRANCH   8  10
ENDBRANCH   4   8
BRANCH   3  20
HETATM   20  O   UNK N   1      33.932  14.606   7.132  0.00  0.00    -0.359 OA
HETATM   21  H   UNK N   1      34.507  13.957   6.776  0.00  0.00     0.217 HD
ENDBRANCH   3  20
BRANCH   6  22
HETATM   22  C   UNK N   1      35.816  15.851  11.414  0.00  0.00     0.065 C 
BRANCH  22  23
HETATM   23  C   UNK N   1      36.408  14.452  11.486  0.00  0.00     0.010 C 
BRANCH  23  24
HETATM   24  C   UNK N   1      35.969  13.782  12.781  0.00  0.00     0.029 C 
BRANCH  24  25
HETATM   25  C   UNK N   1      34.916  12.784  12.446  0.00  0.00    -0.009 C 
HETATM   26  C   UNK N   1      34.911  12.119  11.294  0.00  0.00     0.089 C 
BRANCH  26  27
HETATM   27  N   UNK N   1      33.801  11.305  10.927  0.00  0.00    -0.313 N 
HETATM   28  C   UNK N   1      33.247  11.295   9.677  0.00  0.00     0.364 C 
HETATM   29  O   UNK N   1      33.719  11.979   8.781  0.00  0.00    -0.238 OA
HETATM   30  H   UNK N   1      33.413  10.713  11.611  0.00  0.00     0.170 HD
BRANCH  28  31
HETATM   31  O   UNK N   1      32.180  10.509   9.404  0.00  0.00    -0.309 OA
HETATM   32  C   UNK N   1      32.283   9.350   8.673  0.00  0.00     0.215 C 
ENDBRANCH  28  31
ENDBRANCH  26  27
ENDBRANCH  24  25
ENDBRANCH  23  24
ENDBRANCH  22  23
ENDBRANCH   6  22
TORSDOF 13
ENDMDL
MODEL 3
REMARK VINA RESULT:      -6.0     15.382     20.310
REMARK  13 active torsions:
REMARK  status: ('A' for Active; 'I' for Inactive)
REMARK    1  A    between atoms: N_3  and  C_25 
REMARK       I    between atoms: N_3  and  C_26 
REMARK    2  A    between atoms: C_4  and  O_6 
REMARK    3  A    between atoms: C_5  and  C_9 
REMARK    4  A    between atoms: C_8  and  C_21 
REMARK    5  A    between atoms: C_9  and  C_10 
REMARK    6  A    between atoms: C_12  and  C_13 
REMARK    7  A    between atoms: C_14  and  C_15 
REMARK    8  A    between atoms: C_15  and  C_16 
REMARK    9  A    between atoms: C_16  and  C_17 
REMARK   10  A    between atoms: C_21  and  C_22 
REMARK   11  A    between atoms: C_22  and  C_23 
REMARK   12  A    between atoms: C_23  and  C_24 
REMARK   13  A    between atoms: C_26  and  O_29 
ROOT
HETATM    1  O   UNK N   1      34.203  17.373   9.425  0.00  0.00    -0.279 OA
HETATM    2  C   UNK N   1      32.758  15.552   9.021  0.00  0.00     0.070 A 
HETATM    3  C   UNK N   1      33.617  14.708   9.719  0.00  0.00     0.088 A 
HETATM    4  C   UNK N   1      34.827  15.216  10.240  0.00  0.00     0.123 A 
HETATM    5  C   UNK N   1      35.054  16.611  10.103  0.00  0.00     0.305 A 
HETATM    6  C   UNK N   1      33.098  16.893   8.870  0.00  0.00     0.059 A 
HETATM    7  O   UNK N   1      36.020  17.142  10.623  0.00  0.00    -0.259 OA
ENDROOT
BRANCH   4   8
HETATM    8  C   UNK N   1      35.818  14.282  10.888  0.00  0.00     0.196 C 
HETATM    9  O   UNK N   1      36.773  13.895  10.230  0.00  0.00    -0.287 OA
BRANCH   8  10
HETATM   10  C   UNK N   1      35.760  13.944  12.359  0.00  0.00    -0.011 C 
HETATM   11  C   UNK N   1      35.403  12.744  12.837  0.00  0.00     0.011 C 
HETATM   12  C   UNK N   1      36.278  14.893  13.389  0.00  0.00     0.052 C 
BRANCH  11  13
HETATM   13  C   UNK N   1      34.948  11.578  12.062  0.00  0.00     0.003 C 
HETATM   14  C   UNK N   1      34.198  10.618  12.628  0.00  0.00    -0.084 C 
HETATM   15  C   UNK N   1      33.790   9.442  11.812  0.00  0.00     0.043 C 
BRANCH  14  16
HETATM   16  C   UNK N   1      33.798  10.662  14.079  0.00  0.00     0.034 C 
BRANCH  16  17
HETATM   17  C   UNK N   1      34.779   9.885  14.948  0.00  0.00     0.004 C 
BRANCH  17  18
HETATM   18  C   UNK N   1      34.881  10.507  16.329  0.00  0.00    -0.004 C 
HETATM   19  C   UNK N   1      35.934  11.597  16.342  0.00  0.00     0.005 C 
ENDBRANCH  17  18
ENDBRANCH  16  17
ENDBRANCH  14  16
ENDBRANCH  11  13
ENDBRANCH   8  10
ENDBRANCH   4   8
BRANCH   3  20
HETATM   20  O   UNK N   1      33.301  13.405   9.830  0.00  0.00    -0.359 OA
HETATM   21  H   UNK N   1      32.440  13.119  10.064  0.00  0.00     0.217 HD
ENDBRANCH   3  20
BRANCH   6  22
HETATM   22  C   UNK N   1      32.273  17.765   7.994  0.00  0.00     0.065 C 
BRANCH  22  23
HETATM   23  C   UNK N   1      30.789  17.437   8.062  0.00  0.00     0.010 C 
BRANCH  23  24
HETATM   24  C   UNK N   1      30.108  18.374   9.052  0.00  0.00     0.029 C 
BRANCH  24  25
HETATM   25  C   UNK N   1      28.734  18.649   8.551  0.00  0.00    -0.009 C 
HETATM   26  C   UNK N   1      28.478  18.864   7.264  0.00  0.00     0.089 C 
BRANCH  26  27
HETATM   27  N   UNK N   1      27.190  19.297   6.838  0.00  0.00    -0.313 N 
HETATM   28  C   UNK N   1      26.909  19.709   5.565  0.00  0.00     0.364 C 
HETATM   29  O   UNK N   1      27.772  19.687   4.699  0.00  0.00    -0.238 OA
HETATM   30  H   UNK N   1      26.459  19.297   7.498  0.00  0.00     0.170 HD
BRANCH  28  31
HETATM   31  O   UNK N   1      25.665  20.125   5.235  0.00  0.00    -0.309 OA
HETATM   32  C   UNK N   1      25.225  20.185   3.935  0.00  0.00     0.215 C 
ENDBRANCH  28  31
ENDBRANCH  26  27
ENDBRANCH  24  25
ENDBRANCH  23  24
ENDBRANCH  22  23
ENDBRANCH   6  22
TORSDOF 13
ENDMDL
MODEL 4
REMARK VINA RESULT:      -6.0     14.214     16.517
REMARK  13 active torsions:
REMARK  status: ('A' for Active; 'I' for Inactive)
REMARK    1  A    between atoms: N_3  and  C_25 
REMARK       I    between atoms: N_3  and  C_26 
REMARK    2  A    between atoms: C_4  and  O_6 
REMARK    3  A    between atoms: C_5  and  C_9 
REMARK    4  A    between atoms: C_8  and  C_21 
REMARK    5  A    between atoms: C_9  and  C_10 
REMARK    6  A    between atoms: C_12  and  C_13 
REMARK    7  A    between atoms: C_14  and  C_15 
REMARK    8  A    between atoms: C_15  and  C_16 
REMARK    9  A    between atoms: C_16  and  C_17 
REMARK   10  A    between atoms: C_21  and  C_22 
REMARK   11  A    between atoms: C_22  and  C_23 
REMARK   12  A    between atoms: C_23  and  C_24 
REMARK   13  A    between atoms: C_26  and  O_29 
ROOT
HETATM    1  O   UNK N   1      22.688  18.418   5.497  0.00  0.00    -0.279 OA
HETATM    2  C   UNK N   1      22.756  16.425   4.235  0.00  0.00     0.070 A 
HETATM    3  C   UNK N   1      21.587  15.989   4.850  0.00  0.00     0.088 A 
HETATM    4  C   UNK N   1      20.985  16.781   5.853  0.00  0.00     0.123 A 
HETATM    5  C   UNK N   1      21.568  18.050   6.110  0.00  0.00     0.305 A 
HETATM    6  C   UNK N   1      23.301  17.651   4.605  0.00  0.00     0.059 A 
HETATM    7  O   UNK N   1      21.044  18.835   6.879  0.00  0.00    -0.259 OA
ENDROOT
BRANCH   4   8
HETATM    8  C   UNK N   1      19.790  16.257   6.609  0.00  0.00     0.196 C 
HETATM    9  O   UNK N   1      18.791  15.943   5.978  0.00  0.00    -0.287 OA
BRANCH   8  10
HETATM   10  C   UNK N   1      19.845  15.955   8.088  0.00  0.00    -0.011 C 
HETATM   11  C   UNK N   1      20.411  14.857   8.606  0.00  0.00     0.011 C 
HETATM   12  C   UNK N   1      19.420  16.969   9.098  0.00  0.00     0.052 C 
BRANCH  11  13
HETATM   13  C   UNK N   1      21.010  13.733   7.867  0.00  0.00     0.003 C 
HETATM   14  C   UNK N   1      21.808  12.844   8.482  0.00  0.00    -0.084 C 
HETATM   15  C   UNK N   1      22.416  11.744   7.686  0.00  0.00     0.043 C 
BRANCH  14  16
HETATM   16  C   UNK N   1      22.153  12.952   9.944  0.00  0.00     0.034 C 
BRANCH  16  17
HETATM   17  C   UNK N   1      22.921  11.727  10.423  0.00  0.00     0.004 C 
BRANCH  17  18
HETATM   18  C   UNK N   1      24.295  12.123  10.934  0.00  0.00    -0.004 C 
HETATM   19  C   UNK N   1      24.959  13.087   9.971  0.00  0.00     0.005 C 
ENDBRANCH  17  18
ENDBRANCH  16  17
ENDBRANCH  14  16
ENDBRANCH  11  13
ENDBRANCH   8  10
ENDBRANCH   4   8
BRANCH   3  20
HETATM   20  O   UNK N   1      21.085  14.787   4.516  0.00  0.00    -0.359 OA
HETATM   21  H   UNK N   1      21.635  14.051   4.328  0.00  0.00     0.217 HD
ENDBRANCH   3  20
BRANCH   6  22
HETATM   22  C   UNK N   1      24.630  18.055   4.074  0.00  0.00     0.065 C 
BRANCH  22  23
HETATM   23  C   UNK N   1      24.649  19.483   3.551  0.00  0.00     0.010 C 
BRANCH  23  24
HETATM   24  C   UNK N   1      25.964  20.147   3.939  0.00  0.00     0.029 C 
BRANCH  24  25
HETATM   25  C   UNK N   1      26.163  19.950   5.401  0.00  0.00    -0.009 C 
HETATM   26  C   UNK N   1      27.350  20.101   5.982  0.00  0.00     0.089 C 
BRANCH  26  27
HETATM   27  N   UNK N   1      27.546  19.737   7.345  0.00  0.00    -0.313 N 
HETATM   28  C   UNK N   1      28.257  18.639   7.743  0.00  0.00     0.364 C 
HETATM   29  O   UNK N   1      28.806  17.921   6.921  0.00  0.00    -0.238 OA
HETATM   30  H   UNK N   1      27.148  20.309   8.041  0.00  0.00     0.170 HD
BRANCH  28  31
HETATM   31  O   UNK N   1      28.386  18.343   9.057  0.00  0.00    -0.309 OA
HETATM   32  C   UNK N   1      29.537  18.598   9.763  0.00  0.00     0.215 C 
ENDBRANCH  28  31
ENDBRANCH  26  27
ENDBRANCH  24  25
ENDBRANCH  23  24
ENDBRANCH  22  23
ENDBRANCH   6  22
TORSDOF 13
ENDMDL
MODEL 5
REMARK VINA RESULT:      -5.9      2.292      2.655
REMARK  13 active torsions:
REMARK  status: ('A' for Active; 'I' for Inactive)
REMARK    1  A    between atoms: N_3  and  C_25 
REMARK       I    between atoms: N_3  and  C_26 
REMARK    2  A    between atoms: C_4  and  O_6 
REMARK    3  A    between atoms: C_5  and  C_9 
REMARK    4  A    between atoms: C_8  and  C_21 
REMARK    5  A    between atoms: C_9  and  C_10 
REMARK    6  A    between atoms: C_12  and  C_13 
REMARK    7  A    between atoms: C_14  and  C_15 
REMARK    8  A    between atoms: C_15  and  C_16 
REMARK    9  A    between atoms: C_16  and  C_17 
REMARK   10  A    between atoms: C_21  and  C_22 
REMARK   11  A    between atoms: C_22  and  C_23 
REMARK   12  A    between atoms: C_23  and  C_24 
REMARK   13  A    between atoms: C_26  and  O_29 
ROOT
HETATM    1  O   UNK N   1      29.622  23.716  -5.524  0.00  0.00    -0.279 OA
HETATM    2  C   UNK N   1      28.397  24.152  -3.554  0.00  0.00     0.070 A 
HETATM    3  C   UNK N   1      27.213  24.158  -4.285  0.00  0.00     0.088 A 
HETATM    4  C   UNK N   1      27.254  23.983  -5.685  0.00  0.00     0.123 A 
HETATM    5  C   UNK N   1      28.520  23.708  -6.266  0.00  0.00     0.305 A 
HETATM    6  C   UNK N   1      29.604  23.950  -4.218  0.00  0.00     0.059 A 
HETATM    7  O   UNK N   1      28.620  23.436  -7.449  0.00  0.00    -0.259 OA
ENDROOT
BRANCH   4   8
HETATM    8  C   UNK N   1      25.989  24.111  -6.496  0.00  0.00     0.196 C 
HETATM    9  O   UNK N   1      25.071  23.334  -6.277  0.00  0.00    -0.287 OA
BRANCH   8  10
HETATM   10  C   UNK N   1      25.758  25.263  -7.446  0.00  0.00    -0.011 C 
HETATM   11  C   UNK N   1      25.450  26.507  -7.052  0.00  0.00     0.011 C 
HETATM   12  C   UNK N   1      26.039  25.127  -8.906  0.00  0.00     0.052 C 
BRANCH  11  13
HETATM   13  C   UNK N   1      25.216  26.970  -5.674  0.00  0.00     0.003 C 
HETATM   14  C   UNK N   1      26.070  27.814  -5.072  0.00  0.00    -0.084 C 
HETATM   15  C   UNK N   1      25.809  28.229  -3.667  0.00  0.00     0.043 C 
BRANCH  14  16
HETATM   16  C   UNK N   1      27.317  28.316  -5.752  0.00  0.00     0.034 C 
BRANCH  16  17
HETATM   17  C   UNK N   1      28.519  27.440  -5.421  0.00  0.00     0.004 C 
BRANCH  17  18
HETATM   18  C   UNK N   1      29.642  28.274  -4.831  0.00  0.00    -0.004 C 
HETATM   19  C   UNK N   1      30.041  27.739  -3.470  0.00  0.00     0.005 C 
ENDBRANCH  17  18
ENDBRANCH  16  17
ENDBRANCH  14  16
ENDBRANCH  11  13
ENDBRANCH   8  10
ENDBRANCH   4   8
BRANCH   3  20
HETATM   20  O   UNK N   1      26.054  24.390  -3.643  0.00  0.00    -0.359 OA
HETATM   21  H   UNK N   1      25.353  23.768  -3.639  0.00  0.00     0.217 HD
ENDBRANCH   3  20
BRANCH   6  22
HETATM   22  C   UNK N   1      30.884  24.100  -3.477  0.00  0.00     0.065 C 
BRANCH  22  23
HETATM   23  C   UNK N   1      31.888  23.005  -3.804  0.00  0.00     0.010 C 
BRANCH  23  24
HETATM   24  C   UNK N   1      31.519  21.737  -3.044  0.00  0.00     0.029 C 
BRANCH  24  25
HETATM   25  C   UNK N   1      30.981  20.755  -4.025  0.00  0.00    -0.009 C 
HETATM   26  C   UNK N   1      31.330  20.771  -5.309  0.00  0.00     0.089 C 
BRANCH  26  27
HETATM   27  N   UNK N   1      30.669  19.936  -6.255  0.00  0.00    -0.313 N 
HETATM   28  C   UNK N   1      30.546  20.242  -7.581  0.00  0.00     0.364 C 
HETATM   29  O   UNK N   1      31.048  21.260  -8.035  0.00  0.00    -0.238 OA
HETATM   30  H   UNK N   1      30.281  19.089  -5.936  0.00  0.00     0.170 HD
BRANCH  28  31
HETATM   31  O   UNK N   1      29.887  19.410  -8.421  0.00  0.00    -0.309 OA
HETATM   32  C   UNK N   1      30.448  18.255  -8.908  0.00  0.00     0.215 C 
ENDBRANCH  28  31
ENDBRANCH  26  27
ENDBRANCH  24  25
ENDBRANCH  23  24
ENDBRANCH  22  23
ENDBRANCH   6  22
TORSDOF 13
ENDMDL
MODEL 6
REMARK VINA RESULT:      -5.8     15.316     20.207
REMARK  13 active torsions:
REMARK  status: ('A' for Active; 'I' for Inactive)
REMARK    1  A    between atoms: N_3  and  C_25 
REMARK       I    between atoms: N_3  and  C_26 
REMARK    2  A    between atoms: C_4  and  O_6 
REMARK    3  A    between atoms: C_5  and  C_9 
REMARK    4  A    between atoms: C_8  and  C_21 
REMARK    5  A    between atoms: C_9  and  C_10 
REMARK    6  A    between atoms: C_12  and  C_13 
REMARK    7  A    between atoms: C_14  and  C_15 
REMARK    8  A    between atoms: C_15  and  C_16 
REMARK    9  A    between atoms: C_16  and  C_17 
REMARK   10  A    between atoms: C_21  and  C_22 
REMARK   11  A    between atoms: C_22  and  C_23 
REMARK   12  A    between atoms: C_23  and  C_24 
REMARK   13  A    between atoms: C_26  and  O_29 
ROOT
HETATM    1  O   UNK N   1      33.455  15.590   8.263  0.00  0.00    -0.279 OA
HETATM    2  C   UNK N   1      34.819  17.066   9.498  0.00  0.00     0.070 A 
HETATM    3  C   UNK N   1      35.578  15.993   9.955  0.00  0.00     0.088 A 
HETATM    4  C   UNK N   1      35.223  14.677   9.583  0.00  0.00     0.123 A 
HETATM    5  C   UNK N   1      34.149  14.532   8.667  0.00  0.00     0.305 A 
HETATM    6  C   UNK N   1      33.734  16.824   8.662  0.00  0.00     0.059 A 
HETATM    7  O   UNK N   1      33.856  13.440   8.214  0.00  0.00    -0.259 OA
ENDROOT
BRANCH   4   8
HETATM    8  C   UNK N   1      35.965  13.504  10.173  0.00  0.00     0.196 C 
HETATM    9  O   UNK N   1      37.171  13.422   9.991  0.00  0.00    -0.287 OA
BRANCH   8  10
HETATM   10  C   UNK N   1      35.300  12.525  11.113  0.00  0.00    -0.011 C 
HETATM   11  C   UNK N   1      35.200  12.710  12.436  0.00  0.00     0.011 C 
HETATM   12  C   UNK N   1      34.542  11.349  10.592  0.00  0.00     0.052 C 
BRANCH  11  13
HETATM   13  C   UNK N   1      35.752  13.826  13.222  0.00  0.00     0.003 C 
HETATM   14  C   UNK N   1      36.413  13.606  14.371  0.00  0.00    -0.084 C 
HETATM   15  C   UNK N   1      36.925  14.768  15.147  0.00  0.00     0.043 C 
BRANCH  14  16
HETATM   16  C   UNK N   1      36.610  12.222  14.931  0.00  0.00     0.034 C 
BRANCH  16  17
HETATM   17  C   UNK N   1      35.487  11.848  15.890  0.00  0.00     0.004 C 
BRANCH  17  18
HETATM   18  C   UNK N   1      34.837  10.541  15.468  0.00  0.00    -0.004 C 
HETATM   19  C   UNK N   1      33.536  10.808  14.738  0.00  0.00     0.005 C 
ENDBRANCH  17  18
ENDBRANCH  16  17
ENDBRANCH  14  16
ENDBRANCH  11  13
ENDBRANCH   8  10
ENDBRANCH   4   8
BRANCH   3  20
HETATM   20  O   UNK N   1      36.603  16.230  10.793  0.00  0.00    -0.359 OA
HETATM   21  H   UNK N   1      37.474  15.933  10.612  0.00  0.00     0.217 HD
ENDBRANCH   3  20
BRANCH   6  22
HETATM   22  C   UNK N   1      32.824  17.941   8.298  0.00  0.00     0.065 C 
BRANCH  22  23
HETATM   23  C   UNK N   1      31.403  17.477   8.014  0.00  0.00     0.010 C 
BRANCH  23  24
HETATM   24  C   UNK N   1      30.571  17.586   9.286  0.00  0.00     0.029 C 
BRANCH  24  25
HETATM   25  C   UNK N   1      29.381  18.427   8.984  0.00  0.00    -0.009 C 
HETATM   26  C   UNK N   1      28.762  18.384   7.808  0.00  0.00     0.089 C 
BRANCH  26  27
HETATM   27  N   UNK N   1      27.739  19.321   7.487  0.00  0.00    -0.313 N 
HETATM   28  C   UNK N   1      27.477  19.753   6.216  0.00  0.00     0.364 C 
HETATM   29  O   UNK N   1      28.104  19.309   5.266  0.00  0.00    -0.238 OA
HETATM   30  H   UNK N   1      27.188  19.677   8.221  0.00  0.00     0.170 HD
BRANCH  28  31
HETATM   31  O   UNK N   1      26.501  20.662   5.986  0.00  0.00    -0.309 OA
HETATM   32  C   UNK N   1      26.186  21.653   6.884  0.00  0.00     0.215 C 
ENDBRANCH  28  31
ENDBRANCH  26  27
ENDBRANCH  24  25
ENDBRANCH  23  24
ENDBRANCH  22  23
ENDBRANCH   6  22
TORSDOF 13
ENDMDL
MODEL 7
REMARK VINA RESULT:      -5.8     17.447     22.086
REMARK  13 active torsions:
REMARK  status: ('A' for Active; 'I' for Inactive)
REMARK    1  A    between atoms: N_3  and  C_25 
REMARK       I    between atoms: N_3  and  C_26 
REMARK    2  A    between atoms: C_4  and  O_6 
REMARK    3  A    between atoms: C_5  and  C_9 
REMARK    4  A    between atoms: C_8  and  C_21 
REMARK    5  A    between atoms: C_9  and  C_10 
REMARK    6  A    between atoms: C_12  and  C_13 
REMARK    7  A    between atoms: C_14  and  C_15 
REMARK    8  A    between atoms: C_15  and  C_16 
REMARK    9  A    between atoms: C_16  and  C_17 
REMARK   10  A    between atoms: C_21  and  C_22 
REMARK   11  A    between atoms: C_22  and  C_23 
REMARK   12  A    between atoms: C_23  and  C_24 
REMARK   13  A    between atoms: C_26  and  O_29 
ROOT
HETATM    1  O   UNK N   1      35.703  15.811  11.945  0.00  0.00    -0.279 OA
HETATM    2  C   UNK N   1      34.498  14.648  10.284  0.00  0.00     0.070 A 
HETATM    3  C   UNK N   1      34.662  13.459  10.989  0.00  0.00     0.088 A 
HETATM    4  C   UNK N   1      35.413  13.453  12.185  0.00  0.00     0.123 A 
HETATM    5  C   UNK N   1      35.884  14.705  12.658  0.00  0.00     0.305 A 
HETATM    6  C   UNK N   1      35.060  15.818  10.785  0.00  0.00     0.059 A 
HETATM    7  O   UNK N   1      36.443  14.796  13.737  0.00  0.00    -0.259 OA
ENDROOT
BRANCH   4   8
HETATM    8  C   UNK N   1      35.698  12.149  12.886  0.00  0.00     0.196 C 
HETATM    9  O   UNK N   1      36.859  11.773  12.975  0.00  0.00    -0.287 OA
BRANCH   8  10
HETATM   10  C   UNK N   1      34.625  11.380  13.621  0.00  0.00    -0.011 C 
HETATM   11  C   UNK N   1      34.168  11.713  14.836  0.00  0.00     0.011 C 
HETATM   12  C   UNK N   1      33.865  10.284  12.951  0.00  0.00     0.052 C 
BRANCH  11  13
HETATM   13  C   UNK N   1      34.645  12.808  15.697  0.00  0.00     0.003 C 
HETATM   14  C   UNK N   1      35.008  12.582  16.970  0.00  0.00    -0.084 C 
HETATM   15  C   UNK N   1      35.453  13.726  17.811  0.00  0.00     0.043 C 
BRANCH  14  16
HETATM   16  C   UNK N   1      34.930  11.214  17.597  0.00  0.00     0.034 C 
BRANCH  16  17
HETATM   17  C   UNK N   1      36.318  10.639  17.847  0.00  0.00     0.004 C 
BRANCH  17  18
HETATM   18  C   UNK N   1      36.551   9.411  16.986  0.00  0.00    -0.004 C 
HETATM   19  C   UNK N   1      37.292   9.785  15.718  0.00  0.00     0.005 C 
ENDBRANCH  17  18
ENDBRANCH  16  17
ENDBRANCH  14  16
ENDBRANCH  11  13
ENDBRANCH   8  10
ENDBRANCH   4   8
BRANCH   3  20
HETATM   20  O   UNK N   1      34.148  12.325  10.481  0.00  0.00    -0.359 OA
HETATM   21  H   UNK N   1      33.884  12.254   9.584  0.00  0.00     0.217 HD
ENDBRANCH   3  20
BRANCH   6  22
HETATM   22  C   UNK N   1      35.029  17.057   9.965  0.00  0.00     0.065 C 
BRANCH  22  23
HETATM   23  C   UNK N   1      34.578  16.808   8.534  0.00  0.00     0.010 C 
BRANCH  23  24
HETATM   24  C   UNK N   1      33.888  18.056   7.996  0.00  0.00     0.029 C 
BRANCH  24  25
HETATM   25  C   UNK N   1      32.507  17.677   7.592  0.00  0.00    -0.009 C 
HETATM   26  C   UNK N   1      31.511  17.587   8.469  0.00  0.00     0.089 C 
BRANCH  26  27
HETATM   27  N   UNK N   1      30.247  17.055   8.085  0.00  0.00    -0.313 N 
HETATM   28  C   UNK N   1      29.058  17.696   8.294  0.00  0.00     0.364 C 
HETATM   29  O   UNK N   1      29.031  18.808   8.801  0.00  0.00    -0.238 OA
HETATM   30  H   UNK N   1      30.228  16.175   7.643  0.00  0.00     0.170 HD
BRANCH  28  31
HETATM   31  O   UNK N   1      27.891  17.122   7.921  0.00  0.00    -0.309 OA
HETATM   32  C   UNK N   1      27.716  16.536   6.691  0.00  0.00     0.215 C 
ENDBRANCH  28  31
ENDBRANCH  26  27
ENDBRANCH  24  25
ENDBRANCH  23  24
ENDBRANCH  22  23
ENDBRANCH   6  22
TORSDOF 13
ENDMDL
MODEL 8
REMARK VINA RESULT:      -5.8      2.843      4.171
REMARK  13 active torsions:
REMARK  status: ('A' for Active; 'I' for Inactive)
REMARK    1  A    between atoms: N_3  and  C_25 
REMARK       I    between atoms: N_3  and  C_26 
REMARK    2  A    between atoms: C_4  and  O_6 
REMARK    3  A    between atoms: C_5  and  C_9 
REMARK    4  A    between atoms: C_8  and  C_21 
REMARK    5  A    between atoms: C_9  and  C_10 
REMARK    6  A    between atoms: C_12  and  C_13 
REMARK    7  A    between atoms: C_14  and  C_15 
REMARK    8  A    between atoms: C_15  and  C_16 
REMARK    9  A    between atoms: C_16  and  C_17 
REMARK   10  A    between atoms: C_21  and  C_22 
REMARK   11  A    between atoms: C_22  and  C_23 
REMARK   12  A    between atoms: C_23  and  C_24 
REMARK   13  A    between atoms: C_26  and  O_29 
ROOT
HETATM    1  O   UNK N   1      29.994  25.538  -3.822  0.00  0.00    -0.279 OA
HETATM    2  C   UNK N   1      28.539  23.724  -3.422  0.00  0.00     0.070 A 
HETATM    3  C   UNK N   1      27.452  24.593  -3.397  0.00  0.00     0.088 A 
HETATM    4  C   UNK N   1      27.664  25.981  -3.544  0.00  0.00     0.123 A 
HETATM    5  C   UNK N   1      28.991  26.409  -3.811  0.00  0.00     0.305 A 
HETATM    6  C   UNK N   1      29.817  24.240  -3.615  0.00  0.00     0.059 A 
HETATM    7  O   UNK N   1      29.234  27.576  -4.059  0.00  0.00    -0.259 OA
ENDROOT
BRANCH   4   8
HETATM    8  C   UNK N   1      26.507  26.938  -3.394  0.00  0.00     0.196 C 
HETATM    9  O   UNK N   1      25.955  27.023  -2.307  0.00  0.00    -0.287 OA
BRANCH   8  10
HETATM   10  C   UNK N   1      26.119  27.905  -4.488  0.00  0.00    -0.011 C 
HETATM   11  C   UNK N   1      25.544  27.538  -5.641  0.00  0.00     0.011 C 
HETATM   12  C   UNK N   1      26.190  29.381  -4.272  0.00  0.00     0.052 C 
BRANCH  11  13
HETATM   13  C   UNK N   1      25.247  26.167  -6.089  0.00  0.00     0.003 C 
HETATM   14  C   UNK N   1      26.142  25.461  -6.800  0.00  0.00    -0.084 C 
HETATM   15  C   UNK N   1      25.784  24.091  -7.259  0.00  0.00     0.043 C 
BRANCH  14  16
HETATM   16  C   UNK N   1      27.480  26.027  -7.197  0.00  0.00     0.034 C 
BRANCH  16  17
HETATM   17  C   UNK N   1      27.386  26.810  -8.500  0.00  0.00     0.004 C 
BRANCH  17  18
HETATM   18  C   UNK N   1      28.485  27.854  -8.578  0.00  0.00    -0.004 C 
HETATM   19  C   UNK N   1      28.426  28.775  -7.376  0.00  0.00     0.005 C 
ENDBRANCH  17  18
ENDBRANCH  16  17
ENDBRANCH  14  16
ENDBRANCH  11  13
ENDBRANCH   8  10
ENDBRANCH   4   8
BRANCH   3  20
HETATM   20  O   UNK N   1      26.224  24.093  -3.174  0.00  0.00    -0.359 OA
HETATM   21  H   UNK N   1      25.489  24.318  -3.710  0.00  0.00     0.217 HD
ENDBRANCH   3  20
BRANCH   6  22
HETATM   22  C   UNK N   1      30.997  23.346  -3.484  0.00  0.00     0.065 C 
BRANCH  22  23
HETATM   23  C   UNK N   1      30.632  21.951  -3.000  0.00  0.00     0.010 C 
BRANCH  23  24
HETATM   24  C   UNK N   1      31.243  20.914  -3.935  0.00  0.00     0.029 C 
BRANCH  24  25
HETATM   25  C   UNK N   1      30.529  20.996  -5.238  0.00  0.00    -0.009 C 
HETATM   26  C   UNK N   1      30.887  20.264  -6.290  0.00  0.00     0.089 C 
BRANCH  26  27
HETATM   27  N   UNK N   1      30.302  20.490  -7.569  0.00  0.00    -0.313 N 
HETATM   28  C   UNK N   1      29.498  19.587  -8.206  0.00  0.00     0.364 C 
HETATM   29  O   UNK N   1      29.205  18.528  -7.670  0.00  0.00    -0.238 OA
HETATM   30  H   UNK N   1      30.485  21.347  -8.019  0.00  0.00     0.170 HD
BRANCH  28  31
HETATM   31  O   UNK N   1      28.991  19.860  -9.430  0.00  0.00    -0.309 OA
HETATM   32  C   UNK N   1      28.506  21.100  -9.770  0.00  0.00     0.215 C 
ENDBRANCH  28  31
ENDBRANCH  26  27
ENDBRANCH  24  25
ENDBRANCH  23  24
ENDBRANCH  22  23
ENDBRANCH   6  22
TORSDOF 13
ENDMDL
MODEL 9
REMARK VINA RESULT:      -5.7     17.592     22.119
REMARK  13 active torsions:
REMARK  status: ('A' for Active; 'I' for Inactive)
REMARK    1  A    between atoms: N_3  and  C_25 
REMARK       I    between atoms: N_3  and  C_26 
REMARK    2  A    between atoms: C_4  and  O_6 
REMARK    3  A    between atoms: C_5  and  C_9 
REMARK    4  A    between atoms: C_8  and  C_21 
REMARK    5  A    between atoms: C_9  and  C_10 
REMARK    6  A    between atoms: C_12  and  C_13 
REMARK    7  A    between atoms: C_14  and  C_15 
REMARK    8  A    between atoms: C_15  and  C_16 
REMARK    9  A    between atoms: C_16  and  C_17 
REMARK   10  A    between atoms: C_21  and  C_22 
REMARK   11  A    between atoms: C_22  and  C_23 
REMARK   12  A    between atoms: C_23  and  C_24 
REMARK   13  A    between atoms: C_26  and  O_29 
ROOT
HETATM    1  O   UNK N   1      34.836  14.279  10.384  0.00  0.00    -0.279 OA
HETATM    2  C   UNK N   1      35.886  15.651  11.991  0.00  0.00     0.070 A 
HETATM    3  C   UNK N   1      36.147  14.535  12.782  0.00  0.00     0.088 A 
HETATM    4  C   UNK N   1      35.690  13.264  12.370  0.00  0.00     0.123 A 
HETATM    5  C   UNK N   1      35.064  13.183  11.099  0.00  0.00     0.305 A 
HETATM    6  C   UNK N   1      35.197  15.488  10.793  0.00  0.00     0.059 A 
HETATM    7  O   UNK N   1      34.744  12.107  10.626  0.00  0.00    -0.259 OA
ENDROOT
BRANCH   4   8
HETATM    8  C   UNK N   1      35.861  12.073  13.279  0.00  0.00     0.196 C 
HETATM    9  O   UNK N   1      36.992  11.743  13.605  0.00  0.00    -0.287 OA
BRANCH   8  10
HETATM   10  C   UNK N   1      34.684  11.383  13.928  0.00  0.00    -0.011 C 
HETATM   11  C   UNK N   1      34.081  11.823  15.042  0.00  0.00     0.011 C 
HETATM   12  C   UNK N   1      33.992  10.243  13.257  0.00  0.00     0.052 C 
BRANCH  11  13
HETATM   13  C   UNK N   1      34.468  12.981  15.864  0.00  0.00     0.003 C 
HETATM   14  C   UNK N   1      35.134  12.820  17.020  0.00  0.00    -0.084 C 
HETATM   15  C   UNK N   1      35.475  14.019  17.833  0.00  0.00     0.043 C 
BRANCH  14  16
HETATM   16  C   UNK N   1      35.503  11.459  17.551  0.00  0.00     0.034 C 
BRANCH  16  17
HETATM   17  C   UNK N   1      35.362  11.401  19.067  0.00  0.00     0.004 C 
BRANCH  17  18
HETATM   18  C   UNK N   1      34.996   9.997  19.516  0.00  0.00    -0.004 C 
HETATM   19  C   UNK N   1      34.249   9.268  18.417  0.00  0.00     0.005 C 
ENDBRANCH  17  18
ENDBRANCH  16  17
ENDBRANCH  14  16
ENDBRANCH  11  13
ENDBRANCH   8  10
ENDBRANCH   4   8
BRANCH   3  20
HETATM   20  O   UNK N   1      36.780  14.703  13.956  0.00  0.00    -0.359 OA
HETATM   21  H   UNK N   1      37.370  14.062  14.301  0.00  0.00     0.217 HD
ENDBRANCH   3  20
BRANCH   6  22
HETATM   22  C   UNK N   1      34.773  16.686  10.021  0.00  0.00     0.065 C 
BRANCH  22  23
HETATM   23  C   UNK N   1      33.835  16.347   8.873  0.00  0.00     0.010 C 
BRANCH  23  24
HETATM   24  C   UNK N   1      33.138  17.616   8.398  0.00  0.00     0.029 C 
BRANCH  24  25
HETATM   25  C   UNK N   1      31.831  17.225   7.802  0.00  0.00    -0.009 C 
HETATM   26  C   UNK N   1      31.742  16.364   6.792  0.00  0.00     0.089 C 
BRANCH  26  27
HETATM   27  N   UNK N   1      30.500  16.143   6.130  0.00  0.00    -0.313 N 
HETATM   28  C   UNK N   1      30.103  14.927   5.647  0.00  0.00     0.364 C 
HETATM   29  O   UNK N   1      30.803  13.937   5.803  0.00  0.00    -0.238 OA
HETATM   30  H   UNK N   1      29.893  16.909   6.014  0.00  0.00     0.170 HD
BRANCH  28  31
HETATM   31  O   UNK N   1      28.917  14.794   5.010  0.00  0.00    -0.309 OA
HETATM   32  C   UNK N   1      28.825  14.527   3.665  0.00  0.00     0.215 C 
ENDBRANCH  28  31
ENDBRANCH  26  27
ENDBRANCH  24  25
ENDBRANCH  23  24
ENDBRANCH  22  23
ENDBRANCH   6  22
TORSDOF 13
ENDMDL
