MODEL 1
REMARK VINA RESULT:      -5.8      0.000      0.000
REMARK  2 active torsions:
REMARK  status: ('A' for Active; 'I' for Inactive)
REMARK    1  A    between atoms: N_1  and  C_7 
REMARK    2  A    between atoms: N_2  and  O_3 
ROOT
HETATM    1  N   UNK N   1      37.151  13.699  11.468  0.00  0.00    -0.182 NA
HETATM    2  C   UNK N   1      34.816  14.662   9.967  0.00  0.00     0.099 C 
HETATM    3  C   UNK N   1      34.987  14.895  11.476  0.00  0.00     0.052 C 
HETATM    4  C   UNK N   1      36.222  14.567   9.363  0.00  0.00     0.052 C 
HETATM    5  C   UNK N   1      35.850  13.837  12.165  0.00  0.00     0.034 C 
HETATM    6  C   UNK N   1      35.086  12.520  12.257  0.00  0.00     0.034 C 
HETATM    7  C   UNK N   1      36.095  14.328  13.580  0.00  0.00     0.034 C 
HETATM    8  C   UNK N   1      37.059  13.464  10.009  0.00  0.00     0.034 C 
HETATM    9  C   UNK N   1      36.486  12.089   9.669  0.00  0.00     0.034 C 
HETATM   10  C   UNK N   1      38.446  13.546   9.398  0.00  0.00     0.034 C 
ENDROOT
BRANCH   2  11
HETATM   11  N   UNK N   1      34.026  15.727   9.323  0.00  0.00    -0.283 N 
HETATM   12  C   UNK N   1      34.338  17.038   9.277  0.00  0.00     0.227 A 
HETATM   13  O   UNK N   1      35.334  17.519   9.796  0.00  0.00    -0.273 OA
HETATM   14  C   UNK N   1      33.321  17.862   8.556  0.00  0.00     0.112 A 
HETATM   15  C   UNK N   1      32.263  16.806   8.154  0.00  0.00     0.112 A 
HETATM   16  C   UNK N   1      32.840  15.546   8.715  0.00  0.00     0.227 A 
HETATM   17  O   UNK N   1      32.285  14.461   8.627  0.00  0.00    -0.273 OA
ENDBRANCH   2  11
BRANCH   1  18
HETATM   18  O   UNK N   1      37.886  12.713  12.052  0.00  0.00    -0.312 OA
HETATM   19  H   UNK N   1      38.824  12.606  11.831  0.00  0.00     0.237 HD
ENDBRANCH   1  18
TORSDOF 2
ENDMDL
MODEL 2
REMARK VINA RESULT:      -5.7      0.172      1.746
REMARK  2 active torsions:
REMARK  status: ('A' for Active; 'I' for Inactive)
REMARK    1  A    between atoms: N_1  and  C_7 
REMARK    2  A    between atoms: N_2  and  O_3 
ROOT
HETATM    1  N   UNK N   1      37.124  13.801  11.339  0.00  0.00    -0.182 NA
HETATM    2  C   UNK N   1      34.740  14.753   9.910  0.00  0.00     0.099 C 
HETATM    3  C   UNK N   1      34.991  15.048  11.397  0.00  0.00     0.052 C 
HETATM    4  C   UNK N   1      36.113  14.597   9.244  0.00  0.00     0.052 C 
HETATM    5  C   UNK N   1      35.863  14.002  12.091  0.00  0.00     0.034 C 
HETATM    6  C   UNK N   1      35.075  12.709  12.280  0.00  0.00     0.034 C 
HETATM    7  C   UNK N   1      36.189  14.549  13.469  0.00  0.00     0.034 C 
HETATM    8  C   UNK N   1      36.956  13.504   9.899  0.00  0.00     0.034 C 
HETATM    9  C   UNK N   1      36.336  12.129   9.649  0.00  0.00     0.034 C 
HETATM   10  C   UNK N   1      38.312  13.525   9.218  0.00  0.00     0.034 C 
ENDROOT
BRANCH   2  11
HETATM   11  N   UNK N   1      33.943  15.808   9.258  0.00  0.00    -0.283 N 
HETATM   12  C   UNK N   1      32.787  15.637   8.587  0.00  0.00     0.227 A 
HETATM   13  O   UNK N   1      32.254  14.552   8.416  0.00  0.00    -0.273 OA
HETATM   14  C   UNK N   1      32.231  16.909   8.033  0.00  0.00     0.112 A 
HETATM   15  C   UNK N   1      33.288  17.952   8.474  0.00  0.00     0.112 A 
HETATM   16  C   UNK N   1      34.284  17.108   9.204  0.00  0.00     0.227 A 
HETATM   17  O   UNK N   1      35.304  17.561   9.701  0.00  0.00    -0.273 OA
ENDBRANCH   2  11
BRANCH   1  18
HETATM   18  O   UNK N   1      37.866  12.825  11.931  0.00  0.00    -0.312 OA
HETATM   19  H   UNK N   1      38.239  12.103  11.401  0.00  0.00     0.237 HD
ENDBRANCH   1  18
TORSDOF 2
ENDMDL
MODEL 3
REMARK VINA RESULT:      -5.7     11.809     14.069
REMARK  2 active torsions:
REMARK  status: ('A' for Active; 'I' for Inactive)
REMARK    1  A    between atoms: N_1  and  C_7 
REMARK    2  A    between atoms: N_2  and  O_3 
ROOT
HETATM    1  N   UNK N   1      22.710  11.575   8.448  0.00  0.00    -0.182 NA
HETATM    2  C   UNK N   1      21.754  14.350   8.327  0.00  0.00     0.099 C 
HETATM    3  C   UNK N   1      21.335  13.282   7.305  0.00  0.00     0.052 C 
HETATM    4  C   UNK N   1      22.056  13.622   9.642  0.00  0.00     0.052 C 
HETATM    5  C   UNK N   1      22.363  12.163   7.133  0.00  0.00     0.034 C 
HETATM    6  C   UNK N   1      23.581  12.685   6.379  0.00  0.00     0.034 C 
HETATM    7  C   UNK N   1      21.708  11.098   6.271  0.00  0.00     0.034 C 
HETATM    8  C   UNK N   1      23.132  12.549   9.480  0.00  0.00     0.034 C 
HETATM    9  C   UNK N   1      24.483  13.191   9.167  0.00  0.00     0.034 C 
HETATM   10  C   UNK N   1      23.258  11.844  10.818  0.00  0.00     0.034 C 
ENDROOT
BRANCH   2  11
HETATM   11  N   UNK N   1      20.719  15.384   8.510  0.00  0.00    -0.283 N 
HETATM   12  C   UNK N   1      19.588  15.265   9.233  0.00  0.00     0.227 A 
HETATM   13  O   UNK N   1      19.264  14.247   9.826  0.00  0.00    -0.273 OA
HETATM   14  C   UNK N   1      18.740  16.495   9.211  0.00  0.00     0.112 A 
HETATM   15  C   UNK N   1      19.555  17.443   8.299  0.00  0.00     0.112 A 
HETATM   16  C   UNK N   1      20.738  16.602   7.939  0.00  0.00     0.227 A 
HETATM   17  O   UNK N   1      21.630  16.987   7.198  0.00  0.00    -0.273 OA
ENDBRANCH   2  11
BRANCH   1  18
HETATM   18  O   UNK N   1      23.669  10.622   8.290  0.00  0.00    -0.312 OA
HETATM   19  H   UNK N   1      23.529   9.724   8.631  0.00  0.00     0.237 HD
ENDBRANCH   1  18
TORSDOF 2
ENDMDL
MODEL 4
REMARK VINA RESULT:      -5.6     20.570     22.248
REMARK  2 active torsions:
REMARK  status: ('A' for Active; 'I' for Inactive)
REMARK    1  A    between atoms: N_1  and  C_7 
REMARK    2  A    between atoms: N_2  and  O_3 
ROOT
HETATM    1  N   UNK N   1      25.266  23.625  -8.385  0.00  0.00    -0.182 NA
HETATM    2  C   UNK N   1      26.508  25.363  -6.368  0.00  0.00     0.099 C 
HETATM    3  C   UNK N   1      25.928  25.902  -7.685  0.00  0.00     0.052 C 
HETATM    4  C   UNK N   1      25.722  24.094  -6.015  0.00  0.00     0.052 C 
HETATM    5  C   UNK N   1      25.929  24.877  -8.819  0.00  0.00     0.034 C 
HETATM    6  C   UNK N   1      27.354  24.649  -9.314  0.00  0.00     0.034 C 
HETATM    7  C   UNK N   1      25.137  25.488  -9.961  0.00  0.00     0.034 C 
HETATM    8  C   UNK N   1      25.782  23.046  -7.125  0.00  0.00     0.034 C 
HETATM    9  C   UNK N   1      27.202  22.498  -7.267  0.00  0.00     0.034 C 
HETATM   10  C   UNK N   1      24.889  21.896  -6.695  0.00  0.00     0.034 C 
ENDROOT
BRANCH   2  11
HETATM   11  N   UNK N   1      26.441  26.356  -5.281  0.00  0.00    -0.283 N 
HETATM   12  C   UNK N   1      25.409  27.180  -5.012  0.00  0.00     0.227 A 
HETATM   13  O   UNK N   1      24.380  27.218  -5.669  0.00  0.00    -0.273 OA
HETATM   14  C   UNK N   1      25.659  28.079  -3.844  0.00  0.00     0.112 A 
HETATM   15  C   UNK N   1      27.091  27.676  -3.416  0.00  0.00     0.112 A 
HETATM   16  C   UNK N   1      27.435  26.614  -4.412  0.00  0.00     0.227 A 
HETATM   17  O   UNK N   1      28.514  26.042  -4.430  0.00  0.00    -0.273 OA
ENDBRANCH   2  11
BRANCH   1  18
HETATM   18  O   UNK N   1      25.326  22.699  -9.381  0.00  0.00    -0.312 OA
HETATM   19  H   UNK N   1      25.662  21.807  -9.201  0.00  0.00     0.237 HD
ENDBRANCH   1  18
TORSDOF 2
ENDMDL
MODEL 5
REMARK VINA RESULT:      -5.6     18.933     21.484
REMARK  2 active torsions:
REMARK  status: ('A' for Active; 'I' for Inactive)
REMARK    1  A    between atoms: N_1  and  C_7 
REMARK    2  A    between atoms: N_2  and  O_3 
ROOT
HETATM    1  N   UNK N   1      26.193  25.802  -4.388  0.00  0.00    -0.182 NA
HETATM    2  C   UNK N   1      26.794  24.224  -6.792  0.00  0.00     0.099 C 
HETATM    3  C   UNK N   1      27.060  23.705  -5.370  0.00  0.00     0.052 C 
HETATM    4  C   UNK N   1      25.618  25.203  -6.702  0.00  0.00     0.052 C 
HETATM    5  C   UNK N   1      27.299  24.817  -4.348  0.00  0.00     0.034 C 
HETATM    6  C   UNK N   1      28.666  25.453  -4.581  0.00  0.00     0.034 C 
HETATM    7  C   UNK N   1      27.325  24.155  -2.982  0.00  0.00     0.034 C 
HETATM    8  C   UNK N   1      25.888  26.349  -5.729  0.00  0.00     0.034 C 
HETATM    9  C   UNK N   1      26.999  27.253  -6.262  0.00  0.00     0.034 C 
HETATM   10  C   UNK N   1      24.618  27.178  -5.658  0.00  0.00     0.034 C 
ENDROOT
BRANCH   2  11
HETATM   11  N   UNK N   1      26.513  23.132  -7.742  0.00  0.00    -0.283 N 
HETATM   12  C   UNK N   1      25.546  22.200  -7.625  0.00  0.00     0.227 A 
HETATM   13  O   UNK N   1      24.774  22.135  -6.681  0.00  0.00    -0.273 OA
HETATM   14  C   UNK N   1      25.529  21.222  -8.755  0.00  0.00     0.112 A 
HETATM   15  C   UNK N   1      26.710  21.706  -9.630  0.00  0.00     0.112 A 
HETATM   16  C   UNK N   1      27.219  22.881  -8.858  0.00  0.00     0.227 A 
HETATM   17  O   UNK N   1      28.183  23.544  -9.211  0.00  0.00    -0.273 OA
ENDBRANCH   2  11
BRANCH   1  18
HETATM   18  O   UNK N   1      26.446  26.817  -3.517  0.00  0.00    -0.312 OA
HETATM   19  H   UNK N   1      27.092  26.701  -2.803  0.00  0.00     0.237 HD
ENDBRANCH   1  18
TORSDOF 2
ENDMDL
MODEL 6
REMARK VINA RESULT:      -5.5     12.246     14.638
REMARK  2 active torsions:
REMARK  status: ('A' for Active; 'I' for Inactive)
REMARK    1  A    between atoms: N_1  and  C_7 
REMARK    2  A    between atoms: N_2  and  O_3 
ROOT
HETATM    1  N   UNK N   1      20.426  14.628   6.285  0.00  0.00    -0.182 NA
HETATM    2  C   UNK N   1      22.128  13.572   8.435  0.00  0.00     0.099 C 
HETATM    3  C   UNK N   1      21.427  14.936   8.524  0.00  0.00     0.052 C 
HETATM    4  C   UNK N   1      21.267  12.682   7.530  0.00  0.00     0.052 C 
HETATM    5  C   UNK N   1      21.153  15.575   7.162  0.00  0.00     0.034 C 
HETATM    6  C   UNK N   1      22.459  16.068   6.546  0.00  0.00     0.034 C 
HETATM    7  C   UNK N   1      20.277  16.788   7.417  0.00  0.00     0.034 C 
HETATM    8  C   UNK N   1      21.051  13.293   6.147  0.00  0.00     0.034 C 
HETATM    9  C   UNK N   1      22.368  13.337   5.371  0.00  0.00     0.034 C 
HETATM   10  C   UNK N   1      20.109  12.370   5.397  0.00  0.00     0.034 C 
ENDROOT
BRANCH   2  11
HETATM   11  N   UNK N   1      22.327  12.958   9.760  0.00  0.00    -0.283 N 
HETATM   12  C   UNK N   1      23.502  12.565  10.290  0.00  0.00     0.227 A 
HETATM   13  O   UNK N   1      24.574  12.654   9.712  0.00  0.00    -0.273 OA
HETATM   14  C   UNK N   1      23.364  11.969  11.654  0.00  0.00     0.112 A 
HETATM   15  C   UNK N   1      21.837  12.041  11.895  0.00  0.00     0.112 A 
HETATM   16  C   UNK N   1      21.343  12.662  10.627  0.00  0.00     0.227 A 
HETATM   17  O   UNK N   1      20.160  12.876  10.406  0.00  0.00    -0.273 OA
ENDBRANCH   2  11
BRANCH   1  18
HETATM   18  O   UNK N   1      20.241  15.184   5.056  0.00  0.00    -0.312 OA
HETATM   19  H   UNK N   1      20.369  14.654   4.254  0.00  0.00     0.237 HD
ENDBRANCH   1  18
TORSDOF 2
ENDMDL
MODEL 7
REMARK VINA RESULT:      -5.5     16.835     20.458
REMARK  2 active torsions:
REMARK  status: ('A' for Active; 'I' for Inactive)
REMARK    1  A    between atoms: N_1  and  C_7 
REMARK    2  A    between atoms: N_2  and  O_3 
ROOT
HETATM    1  N   UNK N   1      25.746  26.341  -5.865  0.00  0.00    -0.182 NA
HETATM    2  C   UNK N   1      28.194  25.267  -4.648  0.00  0.00     0.099 C 
HETATM    3  C   UNK N   1      27.278  26.268  -3.926  0.00  0.00     0.052 C 
HETATM    4  C   UNK N   1      27.314  24.464  -5.613  0.00  0.00     0.052 C 
HETATM    5  C   UNK N   1      26.482  27.163  -4.876  0.00  0.00     0.034 C 
HETATM    6  C   UNK N   1      27.408  28.185  -5.529  0.00  0.00     0.034 C 
HETATM    7  C   UNK N   1      25.483  27.925  -4.023  0.00  0.00     0.034 C 
HETATM    8  C   UNK N   1      26.571  25.359  -6.604  0.00  0.00     0.034 C 
HETATM    9  C   UNK N   1      27.555  26.023  -7.566  0.00  0.00     0.034 C 
HETATM   10  C   UNK N   1      25.668  24.456  -7.423  0.00  0.00     0.034 C 
ENDROOT
BRANCH   2  11
HETATM   11  N   UNK N   1      28.905  24.382  -3.707  0.00  0.00    -0.283 N 
HETATM   12  C   UNK N   1      28.355  23.687  -2.692  0.00  0.00     0.227 A 
HETATM   13  O   UNK N   1      27.167  23.721  -2.409  0.00  0.00    -0.273 OA
HETATM   14  C   UNK N   1      29.351  22.889  -1.914  0.00  0.00     0.112 A 
HETATM   15  C   UNK N   1      30.681  23.228  -2.632  0.00  0.00     0.112 A 
HETATM   16  C   UNK N   1      30.234  24.172  -3.702  0.00  0.00     0.227 A 
HETATM   17  O   UNK N   1      31.004  24.698  -4.492  0.00  0.00    -0.273 OA
ENDBRANCH   2  11
BRANCH   1  18
HETATM   18  O   UNK N   1      25.089  27.150  -6.742  0.00  0.00    -0.312 OA
HETATM   19  H   UNK N   1      24.747  26.792  -7.576  0.00  0.00     0.237 HD
ENDBRANCH   1  18
TORSDOF 2
ENDMDL
MODEL 8
REMARK VINA RESULT:      -5.3      2.321      5.613
REMARK  2 active torsions:
REMARK  status: ('A' for Active; 'I' for Inactive)
REMARK    1  A    between atoms: N_1  and  C_7 
REMARK    2  A    between atoms: N_2  and  O_3 
ROOT
HETATM    1  N   UNK N   1      34.712  16.852   6.841  0.00  0.00    -0.182 NA
HETATM    2  C   UNK N   1      34.899  15.062   9.164  0.00  0.00     0.099 C 
HETATM    3  C   UNK N   1      35.281  14.621   7.742  0.00  0.00     0.052 C 
HETATM    4  C   UNK N   1      35.140  16.574   9.246  0.00  0.00     0.052 C 
HETATM    5  C   UNK N   1      34.548  15.392   6.644  0.00  0.00     0.034 C 
HETATM    6  C   UNK N   1      33.084  14.963   6.594  0.00  0.00     0.034 C 
HETATM    7  C   UNK N   1      35.191  14.994   5.328  0.00  0.00     0.034 C 
HETATM    8  C   UNK N   1      34.353  17.347   8.189  0.00  0.00     0.034 C 
HETATM    9  C   UNK N   1      32.853  17.260   8.469  0.00  0.00     0.034 C 
HETATM   10  C   UNK N   1      34.758  18.804   8.315  0.00  0.00     0.034 C 
ENDROOT
BRANCH   2  11
HETATM   11  N   UNK N   1      35.662  14.338  10.197  0.00  0.00    -0.283 N 
HETATM   12  C   UNK N   1      35.239  14.038  11.440  0.00  0.00     0.227 A 
HETATM   13  O   UNK N   1      34.145  14.354  11.882  0.00  0.00    -0.273 OA
HETATM   14  C   UNK N   1      36.258  13.303  12.250  0.00  0.00     0.112 A 
HETATM   15  C   UNK N   1      37.452  13.204  11.270  0.00  0.00     0.112 A 
HETATM   16  C   UNK N   1      36.927  13.904  10.056  0.00  0.00     0.227 A 
HETATM   17  O   UNK N   1      37.587  14.062   9.040  0.00  0.00    -0.273 OA
ENDBRANCH   2  11
BRANCH   1  18
HETATM   18  O   UNK N   1      34.006  17.529   5.894  0.00  0.00    -0.312 OA
HETATM   19  H   UNK N   1      33.067  17.727   6.032  0.00  0.00     0.237 HD
ENDBRANCH   1  18
TORSDOF 2
ENDMDL
MODEL 9
REMARK VINA RESULT:      -5.3      2.389      5.275
REMARK  2 active torsions:
REMARK  status: ('A' for Active; 'I' for Inactive)
REMARK    1  A    between atoms: N_1  and  C_7 
REMARK    2  A    between atoms: N_2  and  O_3 
ROOT
HETATM    1  N   UNK N   1      36.807  14.389  10.304  0.00  0.00    -0.182 NA
HETATM    2  C   UNK N   1      35.592  13.233  12.716  0.00  0.00     0.099 C 
HETATM    3  C   UNK N   1      36.985  12.827  12.212  0.00  0.00     0.052 C 
HETATM    4  C   UNK N   1      35.353  14.679  12.265  0.00  0.00     0.052 C 
HETATM    5  C   UNK N   1      37.168  13.009  10.705  0.00  0.00     0.034 C 
HETATM    6  C   UNK N   1      36.372  11.948   9.951  0.00  0.00     0.034 C 
HETATM    7  C   UNK N   1      38.639  12.777  10.412  0.00  0.00     0.034 C 
HETATM    8  C   UNK N   1      35.471  14.843  10.751  0.00  0.00     0.034 C 
HETATM    9  C   UNK N   1      34.332  14.109  10.043  0.00  0.00     0.034 C 
HETATM   10  C   UNK N   1      35.316  16.324  10.454  0.00  0.00     0.034 C 
ENDROOT
BRANCH   2  11
HETATM   11  N   UNK N   1      35.466  13.098  14.179  0.00  0.00    -0.283 N 
HETATM   12  C   UNK N   1      36.122  13.822  15.108  0.00  0.00     0.227 A 
HETATM   13  O   UNK N   1      36.939  14.691  14.842  0.00  0.00    -0.273 OA
HETATM   14  C   UNK N   1      35.779  13.433  16.510  0.00  0.00     0.112 A 
HETATM   15  C   UNK N   1      34.767  12.282  16.296  0.00  0.00     0.112 A 
HETATM   16  C   UNK N   1      34.697  12.191  14.805  0.00  0.00     0.227 A 
HETATM   17  O   UNK N   1      34.006  11.371  14.219  0.00  0.00    -0.273 OA
ENDBRANCH   2  11
BRANCH   1  18
HETATM   18  O   UNK N   1      36.915  14.522   8.953  0.00  0.00    -0.312 OA
HETATM   19  H   UNK N   1      36.210  14.953   8.445  0.00  0.00     0.237 HD
ENDBRANCH   1  18
TORSDOF 2
ENDMDL
