MODEL 1
REMARK VINA RESULT:      -5.8      0.000      0.000
REMARK  2 active torsions:
REMARK  status: ('A' for Active; 'I' for Inactive)
REMARK    1  A    between atoms: O_7  and  C_6 
REMARK    2  A    between atoms: C_11  and  O_12 
ROOT
HETATM    1  O   UNK N   1      34.573  17.771   6.863  0.00  0.00    -0.268 OA
HETATM    2  C   UNK N   1      33.480  17.556   6.362  0.00  0.00     0.248 A 
HETATM    3  N   UNK N   1      32.352  17.471   7.142  0.00  0.00    -0.316 N 
HETATM    4  C   UNK N   1      32.541  17.652   8.583  0.00  0.00     0.160 C 
HETATM    5  C   UNK N   1      31.105  17.227   6.576  0.00  0.00     0.084 A 
HETATM    6  C   UNK N   1      29.932  17.140   7.396  0.00  0.00     0.096 A 
HETATM    7  C   UNK N   1      28.700  16.895   6.812  0.00  0.00     0.042 A 
HETATM    8  C   UNK N   1      28.573  16.733   5.459  0.00  0.00     0.040 A 
HETATM    9  C   UNK N   1      29.648  16.799   4.584  0.00  0.00     0.081 A 
HETATM   10  C   UNK N   1      30.982  17.055   5.132  0.00  0.00     0.033 A 
HETATM   11  C   UNK N   1      32.200  17.155   4.373  0.00  0.00    -0.041 A 
HETATM   12  C   UNK N   1      32.350  17.022   2.913  0.00  0.00     0.049 C 
HETATM   13  C   UNK N   1      33.400  17.400   5.005  0.00  0.00     0.082 A 
ENDROOT
BRANCH   6  14
HETATM   14  O   UNK N   1      29.995  17.292   8.744  0.00  0.00    -0.354 OA
HETATM   15  C   UNK N   1      28.896  17.544   9.539  0.00  0.00     0.210 C 
ENDBRANCH   6  14
BRANCH   9  16
HETATM   16  O   UNK N   1      29.261  16.604   3.290  0.00  0.00    -0.355 OA
HETATM   17  C   UNK N   1      28.903  15.523   2.537  0.00  0.00     0.210 C 
ENDBRANCH   9  16
TORSDOF 2
ENDMDL
MODEL 2
REMARK VINA RESULT:      -5.2     10.568     12.573
REMARK  2 active torsions:
REMARK  status: ('A' for Active; 'I' for Inactive)
REMARK    1  A    between atoms: O_7  and  C_6 
REMARK    2  A    between atoms: C_11  and  O_12 
ROOT
HETATM    1  O   UNK N   1      30.723  23.034  -1.782  0.00  0.00    -0.268 OA
HETATM    2  C   UNK N   1      30.506  22.541  -2.878  0.00  0.00     0.248 A 
HETATM    3  N   UNK N   1      29.541  23.061  -3.705  0.00  0.00    -0.316 N 
HETATM    4  C   UNK N   1      28.804  24.221  -3.199  0.00  0.00     0.160 C 
HETATM    5  C   UNK N   1      29.290  22.503  -4.954  0.00  0.00     0.084 A 
HETATM    6  C   UNK N   1      28.281  23.052  -5.813  0.00  0.00     0.096 A 
HETATM    7  C   UNK N   1      28.046  22.481  -7.053  0.00  0.00     0.042 A 
HETATM    8  C   UNK N   1      28.761  21.396  -7.484  0.00  0.00     0.040 A 
HETATM    9  C   UNK N   1      29.756  20.796  -6.726  0.00  0.00     0.081 A 
HETATM   10  C   UNK N   1      30.058  21.347  -5.403  0.00  0.00     0.033 A 
HETATM   11  C   UNK N   1      31.053  20.850  -4.490  0.00  0.00    -0.041 A 
HETATM   12  C   UNK N   1      31.956  19.705  -4.698  0.00  0.00     0.049 C 
HETATM   13  C   UNK N   1      31.245  21.457  -3.267  0.00  0.00     0.082 A 
ENDROOT
BRANCH   6  14
HETATM   14  O   UNK N   1      27.539  24.127  -5.440  0.00  0.00    -0.354 OA
HETATM   15  C   UNK N   1      26.183  24.238  -5.666  0.00  0.00     0.210 C 
ENDBRANCH   6  14
BRANCH   9  16
HETATM   16  O   UNK N   1      30.318  19.734  -7.375  0.00  0.00    -0.355 OA
HETATM   17  C   UNK N   1      29.844  18.691  -8.120  0.00  0.00     0.210 C 
ENDBRANCH   9  16
TORSDOF 2
ENDMDL
MODEL 3
REMARK VINA RESULT:      -5.2      1.364      4.653
REMARK  2 active torsions:
REMARK  status: ('A' for Active; 'I' for Inactive)
REMARK    1  A    between atoms: O_7  and  C_6 
REMARK    2  A    between atoms: C_11  and  O_12 
ROOT
HETATM    1  O   UNK N   1      29.000  18.225   8.831  0.00  0.00    -0.268 OA
HETATM    2  C   UNK N   1      29.933  17.893   8.117  0.00  0.00     0.248 A 
HETATM    3  N   UNK N   1      29.743  17.651   6.778  0.00  0.00    -0.316 N 
HETATM    4  C   UNK N   1      28.378  17.814   6.274  0.00  0.00     0.160 C 
HETATM    5  C   UNK N   1      30.802  17.273   5.960  0.00  0.00     0.084 A 
HETATM    6  C   UNK N   1      30.597  17.022   4.564  0.00  0.00     0.096 A 
HETATM    7  C   UNK N   1      31.665  16.646   3.766  0.00  0.00     0.042 A 
HETATM    8  C   UNK N   1      32.925  16.507   4.283  0.00  0.00     0.040 A 
HETATM    9  C   UNK N   1      33.223  16.728   5.620  0.00  0.00     0.081 A 
HETATM   10  C   UNK N   1      32.141  17.128   6.522  0.00  0.00     0.033 A 
HETATM   11  C   UNK N   1      32.272  17.396   7.930  0.00  0.00    -0.041 A 
HETATM   12  C   UNK N   1      33.504  17.323   8.736  0.00  0.00     0.049 C 
HETATM   13  C   UNK N   1      31.175  17.767   8.677  0.00  0.00     0.082 A 
ENDROOT
BRANCH   6  14
HETATM   14  O   UNK N   1      29.370  17.143   3.993  0.00  0.00    -0.354 OA
HETATM   15  C   UNK N   1      28.917  16.336   2.971  0.00  0.00     0.210 C 
ENDBRANCH   6  14
BRANCH   9  16
HETATM   16  O   UNK N   1      34.547  16.524   5.886  0.00  0.00    -0.355 OA
HETATM   17  C   UNK N   1      35.338  15.428   6.084  0.00  0.00     0.210 C 
ENDBRANCH   9  16
TORSDOF 2
ENDMDL
MODEL 4
REMARK VINA RESULT:      -5.1      2.220      5.409
REMARK  2 active torsions:
REMARK  status: ('A' for Active; 'I' for Inactive)
REMARK    1  A    between atoms: O_7  and  C_6 
REMARK    2  A    between atoms: C_11  and  O_12 
ROOT
HETATM    1  O   UNK N   1      26.839  20.173   6.371  0.00  0.00    -0.268 OA
HETATM    2  C   UNK N   1      27.721  19.368   6.624  0.00  0.00     0.248 A 
HETATM    3  N   UNK N   1      28.249  18.567   5.640  0.00  0.00    -0.316 N 
HETATM    4  C   UNK N   1      27.695  18.738   4.295  0.00  0.00     0.160 C 
HETATM    5  C   UNK N   1      29.254  17.649   5.924  0.00  0.00     0.084 A 
HETATM    6  C   UNK N   1      29.799  16.816   4.892  0.00  0.00     0.096 A 
HETATM    7  C   UNK N   1      30.800  15.908   5.196  0.00  0.00     0.042 A 
HETATM    8  C   UNK N   1      31.286  15.784   6.470  0.00  0.00     0.040 A 
HETATM    9  C   UNK N   1      30.822  16.543   7.534  0.00  0.00     0.081 A 
HETATM   10  C   UNK N   1      29.764  17.525   7.286  0.00  0.00     0.033 A 
HETATM   11  C   UNK N   1      29.170  18.391   8.269  0.00  0.00    -0.041 A 
HETATM   12  C   UNK N   1      29.502  18.466   9.703  0.00  0.00     0.049 C 
HETATM   13  C   UNK N   1      28.177  19.278   7.912  0.00  0.00     0.082 A 
ENDROOT
BRANCH   6  14
HETATM   14  O   UNK N   1      29.358  16.894   3.610  0.00  0.00    -0.354 OA
HETATM   15  C   UNK N   1      29.501  15.878   2.688  0.00  0.00     0.210 C 
ENDBRANCH   6  14
BRANCH   9  16
HETATM   16  O   UNK N   1      31.465  16.233   8.698  0.00  0.00    -0.355 OA
HETATM   17  C   UNK N   1      32.326  15.250   9.098  0.00  0.00     0.210 C 
ENDBRANCH   9  16
TORSDOF 2
ENDMDL
MODEL 5
REMARK VINA RESULT:      -5.1     10.476     12.758
REMARK  2 active torsions:
REMARK  status: ('A' for Active; 'I' for Inactive)
REMARK    1  A    between atoms: O_7  and  C_6 
REMARK    2  A    between atoms: C_11  and  O_12 
ROOT
HETATM    1  O   UNK N   1      30.498  23.152  -1.462  0.00  0.00    -0.268 OA
HETATM    2  C   UNK N   1      30.002  23.051  -2.573  0.00  0.00     0.248 A 
HETATM    3  N   UNK N   1      30.528  22.187  -3.503  0.00  0.00    -0.316 N 
HETATM    4  C   UNK N   1      31.698  21.411  -3.084  0.00  0.00     0.160 C 
HETATM    5  C   UNK N   1      29.967  22.068  -4.770  0.00  0.00     0.084 A 
HETATM    6  C   UNK N   1      30.522  21.165  -5.735  0.00  0.00     0.096 A 
HETATM    7  C   UNK N   1      29.948  21.062  -6.992  0.00  0.00     0.042 A 
HETATM    8  C   UNK N   1      28.854  21.808  -7.339  0.00  0.00     0.040 A 
HETATM    9  C   UNK N   1      28.248  22.708  -6.475  0.00  0.00     0.081 A 
HETATM   10  C   UNK N   1      28.802  22.869  -5.128  0.00  0.00     0.033 A 
HETATM   11  C   UNK N   1      28.300  23.754  -4.111  0.00  0.00    -0.041 A 
HETATM   12  C   UNK N   1      27.145  24.663  -4.215  0.00  0.00     0.049 C 
HETATM   13  C   UNK N   1      28.910  23.817  -2.876  0.00  0.00     0.082 A 
ENDROOT
BRANCH   6  14
HETATM   14  O   UNK N   1      31.605  20.398  -5.450  0.00  0.00    -0.354 OA
HETATM   15  C   UNK N   1      32.517  19.976  -6.396  0.00  0.00     0.210 C 
ENDBRANCH   6  14
BRANCH   9  16
HETATM   16  O   UNK N   1      27.179  23.328  -7.055  0.00  0.00    -0.355 OA
HETATM   17  C   UNK N   1      25.884  22.982  -7.319  0.00  0.00     0.210 C 
ENDBRANCH   9  16
TORSDOF 2
ENDMDL
MODEL 6
REMARK VINA RESULT:      -5.1      7.979     10.767
REMARK  2 active torsions:
REMARK  status: ('A' for Active; 'I' for Inactive)
REMARK    1  A    between atoms: O_7  and  C_6 
REMARK    2  A    between atoms: C_11  and  O_12 
ROOT
HETATM    1  O   UNK N   1      18.875  15.731   8.834  0.00  0.00    -0.268 OA
HETATM    2  C   UNK N   1      19.936  15.126   8.847  0.00  0.00     0.248 A 
HETATM    3  N   UNK N   1      20.915  15.403   7.924  0.00  0.00    -0.316 N 
HETATM    4  C   UNK N   1      20.611  16.448   6.944  0.00  0.00     0.160 C 
HETATM    5  C   UNK N   1      22.125  14.717   7.934  0.00  0.00     0.084 A 
HETATM    6  C   UNK N   1      23.143  15.011   6.968  0.00  0.00     0.096 A 
HETATM    7  C   UNK N   1      24.341  14.317   6.996  0.00  0.00     0.042 A 
HETATM    8  C   UNK N   1      24.580  13.347   7.932  0.00  0.00     0.040 A 
HETATM    9  C   UNK N   1      23.659  12.992   8.906  0.00  0.00     0.081 A 
HETATM   10  C   UNK N   1      22.369  13.686   8.937  0.00  0.00     0.033 A 
HETATM   11  C   UNK N   1      21.304  13.444   9.874  0.00  0.00    -0.041 A 
HETATM   12  C   UNK N   1      21.295  12.466  10.976  0.00  0.00     0.049 C 
HETATM   13  C   UNK N   1      20.131  14.165   9.801  0.00  0.00     0.082 A 
ENDROOT
BRANCH   6  14
HETATM   14  O   UNK N   1      22.964  15.962   6.015  0.00  0.00    -0.354 OA
HETATM   15  C   UNK N   1      23.999  16.577   5.342  0.00  0.00     0.210 C 
ENDBRANCH   6  14
BRANCH   9  16
HETATM   16  O   UNK N   1      24.134  12.002   9.718  0.00  0.00    -0.355 OA
HETATM   17  C   UNK N   1      24.741  11.958  10.941  0.00  0.00     0.210 C 
ENDBRANCH   9  16
TORSDOF 2
ENDMDL
MODEL 7
REMARK VINA RESULT:      -5.1      1.437      3.940
REMARK  2 active torsions:
REMARK  status: ('A' for Active; 'I' for Inactive)
REMARK    1  A    between atoms: O_7  and  C_6 
REMARK    2  A    between atoms: C_11  and  O_12 
ROOT
HETATM    1  O   UNK N   1      28.633  17.168   3.605  0.00  0.00    -0.268 OA
HETATM    2  C   UNK N   1      29.685  17.083   4.219  0.00  0.00     0.248 A 
HETATM    3  N   UNK N   1      29.735  17.331   5.569  0.00  0.00    -0.316 N 
HETATM    4  C   UNK N   1      28.471  17.696   6.211  0.00  0.00     0.160 C 
HETATM    5  C   UNK N   1      30.931  17.235   6.272  0.00  0.00     0.084 A 
HETATM    6  C   UNK N   1      30.975  17.495   7.682  0.00  0.00     0.096 A 
HETATM    7  C   UNK N   1      32.177  17.394   8.364  0.00  0.00     0.042 A 
HETATM    8  C   UNK N   1      33.335  17.049   7.719  0.00  0.00     0.040 A 
HETATM    9  C   UNK N   1      33.392  16.779   6.360  0.00  0.00     0.081 A 
HETATM   10  C   UNK N   1      32.159  16.866   5.575  0.00  0.00     0.033 A 
HETATM   11  C   UNK N   1      32.039  16.620   4.163  0.00  0.00    -0.041 A 
HETATM   12  C   UNK N   1      33.117  16.236   3.234  0.00  0.00     0.049 C 
HETATM   13  C   UNK N   1      30.818  16.735   3.534  0.00  0.00     0.082 A 
ENDROOT
BRANCH   6  14
HETATM   14  O   UNK N   1      29.861  17.841   8.375  0.00  0.00    -0.354 OA
HETATM   15  C   UNK N   1      29.879  18.607   9.523  0.00  0.00     0.210 C 
ENDBRANCH   6  14
BRANCH   9  16
HETATM   16  O   UNK N   1      34.658  16.459   5.959  0.00  0.00    -0.355 OA
HETATM   17  C   UNK N   1      35.421  15.327   5.970  0.00  0.00     0.210 C 
ENDBRANCH   9  16
TORSDOF 2
ENDMDL
MODEL 8
REMARK VINA RESULT:      -5.1      6.086      8.303
REMARK  2 active torsions:
REMARK  status: ('A' for Active; 'I' for Inactive)
REMARK    1  A    between atoms: O_7  and  C_6 
REMARK    2  A    between atoms: C_11  and  O_12 
ROOT
HETATM    1  O   UNK N   1      22.281  21.141   2.559  0.00  0.00    -0.268 OA
HETATM    2  C   UNK N   1      23.044  20.341   3.077  0.00  0.00     0.248 A 
HETATM    3  N   UNK N   1      22.567  19.205   3.684  0.00  0.00    -0.316 N 
HETATM    4  C   UNK N   1      21.114  19.020   3.671  0.00  0.00     0.160 C 
HETATM    5  C   UNK N   1      23.432  18.290   4.275  0.00  0.00     0.084 A 
HETATM    6  C   UNK N   1      22.926  17.107   4.908  0.00  0.00     0.096 A 
HETATM    7  C   UNK N   1      23.805  16.208   5.491  0.00  0.00     0.042 A 
HETATM    8  C   UNK N   1      25.156  16.423   5.478  0.00  0.00     0.040 A 
HETATM    9  C   UNK N   1      25.739  17.537   4.892  0.00  0.00     0.081 A 
HETATM   10  C   UNK N   1      24.871  18.530   4.256  0.00  0.00     0.033 A 
HETATM   11  C   UNK N   1      25.305  19.737   3.604  0.00  0.00    -0.041 A 
HETATM   12  C   UNK N   1      26.692  20.211   3.447  0.00  0.00     0.049 C 
HETATM   13  C   UNK N   1      24.388  20.597   3.040  0.00  0.00     0.082 A 
ENDROOT
BRANCH   6  14
HETATM   14  O   UNK N   1      21.596  16.838   4.952  0.00  0.00    -0.354 OA
HETATM   15  C   UNK N   1      20.993  16.115   5.961  0.00  0.00     0.210 C 
ENDBRANCH   6  14
BRANCH   9  16
HETATM   16  O   UNK N   1      27.099  17.521   5.012  0.00  0.00    -0.355 OA
HETATM   17  C   UNK N   1      27.989  17.817   6.005  0.00  0.00     0.210 C 
ENDBRANCH   9  16
TORSDOF 2
ENDMDL
MODEL 9
REMARK VINA RESULT:      -5.1      8.171     11.009
REMARK  2 active torsions:
REMARK  status: ('A' for Active; 'I' for Inactive)
REMARK    1  A    between atoms: O_7  and  C_6 
REMARK    2  A    between atoms: C_11  and  O_12 
ROOT
HETATM    1  O   UNK N   1      33.736   9.899  11.234  0.00  0.00    -0.268 OA
HETATM    2  C   UNK N   1      34.186  10.614  12.116  0.00  0.00     0.248 A 
HETATM    3  N   UNK N   1      34.787  11.811  11.814  0.00  0.00    -0.316 N 
HETATM    4  C   UNK N   1      34.853  12.169  10.396  0.00  0.00     0.160 C 
HETATM    5  C   UNK N   1      35.301  12.628  12.816  0.00  0.00     0.084 A 
HETATM    6  C   UNK N   1      35.928  13.877  12.494  0.00  0.00     0.096 A 
HETATM    7  C   UNK N   1      36.434  14.676  13.506  0.00  0.00     0.042 A 
HETATM    8  C   UNK N   1      36.349  14.299  14.819  0.00  0.00     0.040 A 
HETATM    9  C   UNK N   1      35.762  13.111  15.230  0.00  0.00     0.081 A 
HETATM   10  C   UNK N   1      35.206  12.216  14.212  0.00  0.00     0.033 A 
HETATM   11  C   UNK N   1      34.565  10.953  14.461  0.00  0.00    -0.041 A 
HETATM   12  C   UNK N   1      34.341  10.312  15.769  0.00  0.00     0.049 C 
HETATM   13  C   UNK N   1      34.079  10.197  13.415  0.00  0.00     0.082 A 
ENDROOT
BRANCH   6  14
HETATM   14  O   UNK N   1      36.042  14.304  11.209  0.00  0.00    -0.354 OA
HETATM   15  C   UNK N   1      36.149  15.631  10.850  0.00  0.00     0.210 C 
ENDBRANCH   6  14
BRANCH   9  16
HETATM   16  O   UNK N   1      35.803  12.967  16.587  0.00  0.00    -0.355 OA
HETATM   17  C   UNK N   1      35.116  13.501  17.640  0.00  0.00     0.210 C 
ENDBRANCH   9  16
TORSDOF 2
ENDMDL
