REMARK  12 active torsions:
REMARK  status: ('A' for Active; 'I' for Inactive)
REMARK       I    between atoms: C_1  and  N_2 
REMARK    1  A    between atoms: C_1  and  C_9 
REMARK    2  A    between atoms: N_2  and  N_4 
REMARK    3  A    between atoms: N_2  and  C_5 
REMARK    4  A    between atoms: C_5  and  C_6 
REMARK    5  A    between atoms: C_6  and  O_7 
REMARK    6  A    between atoms: C_9  and  C_10 
REMARK    7  A    between atoms: C_10  and  O_11 
REMARK    8  A    between atoms: C_10  and  C_12 
REMARK       I    between atoms: C_12  and  N_13 
REMARK    9  A    between atoms: N_13  and  C_15 
REMARK   10  A    between atoms: N_13  and  C_16 
REMARK   11  A    between atoms: C_15  and  C_23 
REMARK   12  A    between atoms: C_16  and  C_17 
ROOT
HETATM    1  C   UNK N   1      -0.164  -0.248   0.336  0.00  0.00     0.249 C 
HETATM    2  N   UNK N   1       1.091  -0.249  -0.215  0.00  0.00    -0.342 N 
HETATM    3  O   UNK N   1      -0.395   0.465   1.303  0.00  0.00    -0.270 OA
ENDROOT
BRANCH   1   4
HETATM    4  C   UNK N   1      -1.255  -1.176  -0.185  0.00  0.00     0.218 C 
BRANCH   4   5
HETATM    5  C   UNK N   1      -2.508  -1.232   0.710  0.00  0.00     0.146 C 
BRANCH   5   6
HETATM    6  C   UNK N   1      -3.761  -0.523   0.249  0.00  0.00     0.241 C 
HETATM    7  N   UNK N   1      -3.858   0.848   0.245  0.00  0.00    -0.258 N 
HETATM    8  O   UNK N   1      -4.708  -1.219  -0.084  0.00  0.00    -0.272 OA
BRANCH   7   9
HETATM    9  N   UNK N   1      -2.749   1.597   0.606  0.00  0.00    -0.340 N 
HETATM   10  H   UNK N   1      -1.864   1.166   0.872  0.00  0.00     0.177 HD
HETATM   11  H   UNK N   1      -2.821   2.615   0.606  0.00  0.00     0.177 HD
ENDBRANCH   7   9
BRANCH   7  12
HETATM   12  C   UNK N   1      -5.062   1.602  -0.104  0.00  0.00     0.261 C 
BRANCH  12  13
HETATM   13  C   UNK N   1      -6.363   0.857  -0.218  0.00  0.00     0.160 C 
HETATM   14  O   UNK N   1      -6.995   0.904  -1.259  0.00  0.00    -0.649 OA
BRANCH  13  15
HETATM   15  O   UNK N   1      -6.868   0.197   0.843  0.00  0.00    -0.775 OA
HETATM   16  H   UNK N   1      -7.441   0.272   1.581  0.00  0.00     0.167 HD
ENDBRANCH  13  15
ENDBRANCH  12  13
ENDBRANCH   7  12
ENDBRANCH   5   6
ENDBRANCH   4   5
BRANCH   4  17
HETATM   17  O   UNK N   1      -1.585  -0.866  -1.508  0.00  0.00    -0.386 OA
HETATM   18  H   UNK N   1      -1.513  -0.560  -2.425  0.00  0.00     0.210 HD
ENDBRANCH   4  17
ENDBRANCH   1   4
BRANCH   2  19
HETATM   19  C   UNK N   1       1.434  -1.194  -1.260  0.00  0.00     0.164 C 
BRANCH  19  20
HETATM   20  C   UNK N   1       2.369  -2.230  -0.716  0.00  0.00    -0.040 A 
HETATM   21  C   UNK N   1       3.714  -1.917  -0.476  0.00  0.00     0.009 A 
HETATM   22  C   UNK N   1       4.567  -2.868   0.091  0.00  0.00     0.001 A 
HETATM   23  C   UNK N   1       4.077  -4.134   0.423  0.00  0.00     0.000 A 
HETATM   24  C   UNK N   1       2.736  -4.451   0.181  0.00  0.00     0.001 A 
HETATM   25  C   UNK N   1       1.883  -3.500  -0.388  0.00  0.00     0.009 A 
ENDBRANCH  19  20
ENDBRANCH   2  19
BRANCH   2  26
HETATM   26  C   UNK N   1       2.156   0.559   0.359  0.00  0.00     0.164 C 
BRANCH  26  27
HETATM   27  C   UNK N   1       2.085   2.027   0.062  0.00  0.00    -0.040 A 
HETATM   28  C   UNK N   1       1.046   2.597  -0.689  0.00  0.00     0.009 A 
HETATM   29  C   UNK N   1       1.036   3.975  -0.936  0.00  0.00     0.001 A 
HETATM   30  C   UNK N   1       2.064   4.785  -0.441  0.00  0.00     0.000 A 
HETATM   31  C   UNK N   1       3.103   4.218   0.302  0.00  0.00     0.001 A 
HETATM   32  C   UNK N   1       3.111   2.844   0.552  0.00  0.00     0.009 A 
ENDBRANCH  26  27
ENDBRANCH   2  26
TORSDOF 12
