MODEL 1
REMARK VINA RESULT:      -7.4      0.000      0.000
REMARK  12 active torsions:
REMARK  status: ('A' for Active; 'I' for Inactive)
REMARK       I    between atoms: C_1  and  N_2 
REMARK    1  A    between atoms: C_1  and  C_9 
REMARK    2  A    between atoms: N_2  and  N_4 
REMARK    3  A    between atoms: N_2  and  C_5 
REMARK    4  A    between atoms: C_5  and  C_6 
REMARK    5  A    between atoms: C_6  and  O_7 
REMARK    6  A    between atoms: C_9  and  C_10 
REMARK    7  A    between atoms: C_10  and  O_11 
REMARK    8  A    between atoms: C_10  and  C_12 
REMARK       I    between atoms: C_12  and  N_13 
REMARK    9  A    between atoms: N_13  and  C_15 
REMARK   10  A    between atoms: N_13  and  C_16 
REMARK   11  A    between atoms: C_15  and  C_23 
REMARK   12  A    between atoms: C_16  and  C_17 
ROOT
HETATM    1  C   UNK N   1      35.195  13.379  12.414  0.00  0.00     0.249 C 
HETATM    2  N   UNK N   1      35.242  12.467  13.437  0.00  0.00    -0.342 N 
HETATM    3  O   UNK N   1      34.224  13.398  11.670  0.00  0.00    -0.270 OA
ENDROOT
BRANCH   1   4
HETATM    4  C   UNK N   1      36.365  14.317  12.140  0.00  0.00     0.218 C 
BRANCH   4   5
HETATM    5  C   UNK N   1      36.424  14.834  10.690  0.00  0.00     0.146 C 
BRANCH   5   6
HETATM    6  C   UNK N   1      35.648  16.081  10.332  0.00  0.00     0.241 C 
HETATM    7  N   UNK N   1      34.598  16.050   9.445  0.00  0.00    -0.258 N 
HETATM    8  O   UNK N   1      36.016  17.133  10.831  0.00  0.00    -0.272 OA
BRANCH   7   9
HETATM    9  N   UNK N   1      34.199  14.829   8.924  0.00  0.00    -0.340 N 
HETATM   10  H   UNK N   1      34.553  13.943   9.282  0.00  0.00     0.177 HD
HETATM   11  H   UNK N   1      33.527  14.817   8.156  0.00  0.00     0.177 HD
ENDBRANCH   7   9
BRANCH   7  12
HETATM   12  C   UNK N   1      33.855  17.224   8.985  0.00  0.00     0.261 C 
BRANCH  12  13
HETATM   13  C   UNK N   1      34.548  18.191   8.065  0.00  0.00     0.160 C 
HETATM   14  O   UNK N   1      34.461  18.044   6.859  0.00  0.00    -0.649 OA
BRANCH  13  15
HETATM   15  O   UNK N   1      35.320  19.176   8.566  0.00  0.00    -0.775 OA
HETATM   16  H   UNK N   1      35.778  19.965   8.351  0.00  0.00     0.167 HD
ENDBRANCH  13  15
ENDBRANCH  12  13
ENDBRANCH   7  12
ENDBRANCH   5   6
ENDBRANCH   4   5
BRANCH   4  17
HETATM   17  O   UNK N   1      36.386  15.370  13.060  0.00  0.00    -0.386 OA
HETATM   18  H   UNK N   1      36.680  15.970  13.762  0.00  0.00     0.210 HD
ENDBRANCH   4  17
ENDBRANCH   1   4
BRANCH   2  19
HETATM   19  C   UNK N   1      36.443  12.320  14.236  0.00  0.00     0.164 C 
BRANCH  19  20
HETATM   20  C   UNK N   1      36.082  12.303  15.689  0.00  0.00    -0.040 A 
HETATM   21  C   UNK N   1      35.581  13.456  16.310  0.00  0.00     0.009 A 
HETATM   22  C   UNK N   1      35.187  13.418  17.650  0.00  0.00     0.001 A 
HETATM   23  C   UNK N   1      35.289  12.226  18.373  0.00  0.00     0.000 A 
HETATM   24  C   UNK N   1      35.793  11.075  17.758  0.00  0.00     0.001 A 
HETATM   25  C   UNK N   1      36.189  11.114  16.417  0.00  0.00     0.009 A 
ENDBRANCH  19  20
ENDBRANCH   2  19
BRANCH   2  26
HETATM   26  C   UNK N   1      34.169  11.502  13.622  0.00  0.00     0.164 C 
BRANCH  26  27
HETATM   27  C   UNK N   1      34.323  10.213  12.872  0.00  0.00    -0.040 A 
HETATM   28  C   UNK N   1      33.664   9.961  11.659  0.00  0.00     0.009 A 
HETATM   29  C   UNK N   1      33.845   8.735  11.007  0.00  0.00     0.001 A 
HETATM   30  C   UNK N   1      34.677   7.758  11.565  0.00  0.00     0.000 A 
HETATM   31  C   UNK N   1      35.329   8.006  12.776  0.00  0.00     0.001 A 
HETATM   32  C   UNK N   1      35.152   9.229  13.425  0.00  0.00     0.009 A 
ENDBRANCH  26  27
ENDBRANCH   2  26
TORSDOF 12
ENDMDL
MODEL 2
REMARK VINA RESULT:      -7.2      1.979      2.950
REMARK  12 active torsions:
REMARK  status: ('A' for Active; 'I' for Inactive)
REMARK       I    between atoms: C_1  and  N_2 
REMARK    1  A    between atoms: C_1  and  C_9 
REMARK    2  A    between atoms: N_2  and  N_4 
REMARK    3  A    between atoms: N_2  and  C_5 
REMARK    4  A    between atoms: C_5  and  C_6 
REMARK    5  A    between atoms: C_6  and  O_7 
REMARK    6  A    between atoms: C_9  and  C_10 
REMARK    7  A    between atoms: C_10  and  O_11 
REMARK    8  A    between atoms: C_10  and  C_12 
REMARK       I    between atoms: C_12  and  N_13 
REMARK    9  A    between atoms: N_13  and  C_15 
REMARK   10  A    between atoms: N_13  and  C_16 
REMARK   11  A    between atoms: C_15  and  C_23 
REMARK   12  A    between atoms: C_16  and  C_17 
ROOT
HETATM    1  C   UNK N   1      36.573  12.637  12.431  0.00  0.00     0.249 C 
HETATM    2  N   UNK N   1      36.380  12.244  13.730  0.00  0.00    -0.342 N 
HETATM    3  O   UNK N   1      37.575  12.268  11.834  0.00  0.00    -0.270 OA
ENDROOT
BRANCH   1   4
HETATM    4  C   UNK N   1      35.602  13.590  11.743  0.00  0.00     0.218 C 
BRANCH   4   5
HETATM    5  C   UNK N   1      36.270  14.539  10.729  0.00  0.00     0.146 C 
BRANCH   5   6
HETATM    6  C   UNK N   1      35.412  15.181   9.663  0.00  0.00     0.241 C 
HETATM    7  N   UNK N   1      34.875  16.436   9.824  0.00  0.00    -0.258 N 
HETATM    8  O   UNK N   1      35.178  14.523   8.661  0.00  0.00    -0.272 OA
BRANCH   7   9
HETATM    9  N   UNK N   1      35.190  17.156  10.965  0.00  0.00    -0.340 N 
HETATM   10  H   UNK N   1      35.186  18.175  10.984  0.00  0.00     0.177 HD
HETATM   11  H   UNK N   1      35.435  16.648  11.816  0.00  0.00     0.177 HD
ENDBRANCH   7   9
BRANCH   7  12
HETATM   12  C   UNK N   1      33.968  17.087   8.878  0.00  0.00     0.261 C 
BRANCH  12  13
HETATM   13  C   UNK N   1      34.528  18.139   7.962  0.00  0.00     0.160 C 
HETATM   14  O   UNK N   1      35.064  19.126   8.434  0.00  0.00    -0.649 OA
BRANCH  13  15
HETATM   15  O   UNK N   1      34.379  18.032   6.626  0.00  0.00    -0.775 OA
HETATM   16  H   UNK N   1      34.522  18.469   5.809  0.00  0.00     0.167 HD
ENDBRANCH  13  15
ENDBRANCH  12  13
ENDBRANCH   7  12
ENDBRANCH   5   6
ENDBRANCH   4   5
BRANCH   4  17
HETATM   17  O   UNK N   1      34.540  12.888  11.164  0.00  0.00    -0.386 OA
HETATM   18  H   UNK N   1      34.012  12.382  10.528  0.00  0.00     0.210 HD
ENDBRANCH   4  17
ENDBRANCH   1   4
BRANCH   2  19
HETATM   19  C   UNK N   1      35.285  12.789  14.508  0.00  0.00     0.164 C 
BRANCH  19  20
HETATM   20  C   UNK N   1      35.826  13.666  15.594  0.00  0.00    -0.040 A 
HETATM   21  C   UNK N   1      36.817  14.616  15.313  0.00  0.00     0.009 A 
HETATM   22  C   UNK N   1      37.273  15.475  16.316  0.00  0.00     0.001 A 
HETATM   23  C   UNK N   1      36.737  15.390  17.604  0.00  0.00     0.000 A 
HETATM   24  C   UNK N   1      35.750  14.440  17.890  0.00  0.00     0.001 A 
HETATM   25  C   UNK N   1      35.295  13.579  16.886  0.00  0.00     0.009 A 
ENDBRANCH  19  20
ENDBRANCH   2  19
BRANCH   2  26
HETATM   26  C   UNK N   1      37.368  11.424  14.413  0.00  0.00     0.164 C 
BRANCH  26  27
HETATM   27  C   UNK N   1      36.831  10.209  15.108  0.00  0.00    -0.040 A 
HETATM   28  C   UNK N   1      36.784  10.097  16.506  0.00  0.00     0.009 A 
HETATM   29  C   UNK N   1      36.274   8.935  17.098  0.00  0.00     0.001 A 
HETATM   30  C   UNK N   1      35.816   7.882  16.298  0.00  0.00     0.000 A 
HETATM   31  C   UNK N   1      35.868   7.989  14.906  0.00  0.00     0.001 A 
HETATM   32  C   UNK N   1      36.374   9.150  14.315  0.00  0.00     0.009 A 
ENDBRANCH  26  27
ENDBRANCH   2  26
TORSDOF 12
ENDMDL
MODEL 3
REMARK VINA RESULT:      -7.0      1.182      4.458
REMARK  12 active torsions:
REMARK  status: ('A' for Active; 'I' for Inactive)
REMARK       I    between atoms: C_1  and  N_2 
REMARK    1  A    between atoms: C_1  and  C_9 
REMARK    2  A    between atoms: N_2  and  N_4 
REMARK    3  A    between atoms: N_2  and  C_5 
REMARK    4  A    between atoms: C_5  and  C_6 
REMARK    5  A    between atoms: C_6  and  O_7 
REMARK    6  A    between atoms: C_9  and  C_10 
REMARK    7  A    between atoms: C_10  and  O_11 
REMARK    8  A    between atoms: C_10  and  C_12 
REMARK       I    between atoms: C_12  and  N_13 
REMARK    9  A    between atoms: N_13  and  C_15 
REMARK   10  A    between atoms: N_13  and  C_16 
REMARK   11  A    between atoms: C_15  and  C_23 
REMARK   12  A    between atoms: C_16  and  C_17 
ROOT
HETATM    1  C   UNK N   1      36.078  12.872  12.270  0.00  0.00     0.249 C 
HETATM    2  N   UNK N   1      35.794  12.007  13.295  0.00  0.00    -0.342 N 
HETATM    3  O   UNK N   1      37.161  13.440  12.246  0.00  0.00    -0.270 OA
ENDROOT
BRANCH   1   4
HETATM    4  C   UNK N   1      35.041  13.198  11.202  0.00  0.00     0.218 C 
BRANCH   4   5
HETATM    5  C   UNK N   1      34.432  14.607  11.331  0.00  0.00     0.146 C 
BRANCH   5   6
HETATM    6  C   UNK N   1      33.828  15.252  10.105  0.00  0.00     0.241 C 
HETATM    7  N   UNK N   1      34.120  16.547   9.748  0.00  0.00    -0.258 N 
HETATM    8  O   UNK N   1      33.032  14.588   9.458  0.00  0.00    -0.272 OA
BRANCH   7   9
HETATM    9  N   UNK N   1      35.050  17.252  10.496  0.00  0.00    -0.340 N 
HETATM   10  H   UNK N   1      35.012  18.266  10.596  0.00  0.00     0.177 HD
HETATM   11  H   UNK N   1      35.798  16.738  10.962  0.00  0.00     0.177 HD
ENDBRANCH   7   9
BRANCH   7  12
HETATM   12  C   UNK N   1      33.512  17.265   8.628  0.00  0.00     0.261 C 
BRANCH  12  13
HETATM   13  C   UNK N   1      34.380  18.183   7.813  0.00  0.00     0.160 C 
HETATM   14  O   UNK N   1      34.492  17.999   6.614  0.00  0.00    -0.649 OA
BRANCH  13  15
HETATM   15  O   UNK N   1      35.087  19.163   8.409  0.00  0.00    -0.775 OA
HETATM   16  H   UNK N   1      35.564  19.392   9.183  0.00  0.00     0.167 HD
ENDBRANCH  13  15
ENDBRANCH  12  13
ENDBRANCH   7  12
ENDBRANCH   5   6
ENDBRANCH   4   5
BRANCH   4  17
HETATM   17  O   UNK N   1      35.556  12.978   9.921  0.00  0.00    -0.386 OA
HETATM   18  H   UNK N   1      36.056  12.592   9.186  0.00  0.00     0.210 HD
ENDBRANCH   4  17
ENDBRANCH   1   4
BRANCH   2  19
HETATM   19  C   UNK N   1      34.466  11.440  13.431  0.00  0.00     0.164 C 
BRANCH  19  20
HETATM   20  C   UNK N   1      34.415  10.106  12.753  0.00  0.00    -0.040 A 
HETATM   21  C   UNK N   1      33.651   9.929  11.591  0.00  0.00     0.009 A 
HETATM   22  C   UNK N   1      33.657   8.700  10.926  0.00  0.00     0.001 A 
HETATM   23  C   UNK N   1      34.430   7.645  11.418  0.00  0.00     0.000 A 
HETATM   24  C   UNK N   1      35.191   7.817  12.580  0.00  0.00     0.001 A 
HETATM   25  C   UNK N   1      35.183   9.046  13.246  0.00  0.00     0.009 A 
ENDBRANCH  19  20
ENDBRANCH   2  19
BRANCH   2  26
HETATM   26  C   UNK N   1      36.750  11.787  14.369  0.00  0.00     0.164 C 
BRANCH  26  27
HETATM   27  C   UNK N   1      36.208  11.942  15.758  0.00  0.00    -0.040 A 
HETATM   28  C   UNK N   1      35.702  13.158  16.242  0.00  0.00     0.009 A 
HETATM   29  C   UNK N   1      35.212  13.241  17.550  0.00  0.00     0.001 A 
HETATM   30  C   UNK N   1      35.231  12.115  18.381  0.00  0.00     0.000 A 
HETATM   31  C   UNK N   1      35.740  10.904  17.903  0.00  0.00     0.001 A 
HETATM   32  C   UNK N   1      36.225  10.820  16.596  0.00  0.00     0.009 A 
ENDBRANCH  26  27
ENDBRANCH   2  26
TORSDOF 12
ENDMDL
MODEL 4
REMARK VINA RESULT:      -7.0      3.403      8.997
REMARK  12 active torsions:
REMARK  status: ('A' for Active; 'I' for Inactive)
REMARK       I    between atoms: C_1  and  N_2 
REMARK    1  A    between atoms: C_1  and  C_9 
REMARK    2  A    between atoms: N_2  and  N_4 
REMARK    3  A    between atoms: N_2  and  C_5 
REMARK    4  A    between atoms: C_5  and  C_6 
REMARK    5  A    between atoms: C_6  and  O_7 
REMARK    6  A    between atoms: C_9  and  C_10 
REMARK    7  A    between atoms: C_10  and  O_11 
REMARK    8  A    between atoms: C_10  and  C_12 
REMARK       I    between atoms: C_12  and  N_13 
REMARK    9  A    between atoms: N_13  and  C_15 
REMARK   10  A    between atoms: N_13  and  C_16 
REMARK   11  A    between atoms: C_15  and  C_23 
REMARK   12  A    between atoms: C_16  and  C_17 
ROOT
HETATM    1  C   UNK N   1      33.886  15.824   8.877  0.00  0.00     0.249 C 
HETATM    2  N   UNK N   1      33.011  16.310   7.940  0.00  0.00    -0.342 N 
HETATM    3  O   UNK N   1      35.027  16.264   8.918  0.00  0.00    -0.270 OA
ENDROOT
BRANCH   1   4
HETATM    4  C   UNK N   1      33.487  14.692   9.816  0.00  0.00     0.218 C 
BRANCH   4   5
HETATM    5  C   UNK N   1      34.681  13.896  10.377  0.00  0.00     0.146 C 
BRANCH   5   6
HETATM    6  C   UNK N   1      35.152  14.188  11.783  0.00  0.00     0.241 C 
HETATM    7  N   UNK N   1      35.067  13.250  12.785  0.00  0.00    -0.258 N 
HETATM    8  O   UNK N   1      35.576  15.310  12.010  0.00  0.00    -0.272 OA
BRANCH   7   9
HETATM    9  N   UNK N   1      34.604  11.981  12.475  0.00  0.00    -0.340 N 
HETATM   10  H   UNK N   1      33.629  11.800  12.238  0.00  0.00     0.177 HD
HETATM   11  H   UNK N   1      35.262  11.201  12.484  0.00  0.00     0.177 HD
ENDBRANCH   7   9
BRANCH   7  12
HETATM   12  C   UNK N   1      35.421  13.485  14.185  0.00  0.00     0.261 C 
BRANCH  12  13
HETATM   13  C   UNK N   1      36.801  13.106  14.646  0.00  0.00     0.160 C 
HETATM   14  O   UNK N   1      37.196  11.964  14.489  0.00  0.00    -0.649 OA
BRANCH  13  15
HETATM   15  O   UNK N   1      37.575  14.000  15.292  0.00  0.00    -0.775 OA
HETATM   16  H   UNK N   1      37.784  14.354  16.134  0.00  0.00     0.167 HD
ENDBRANCH  13  15
ENDBRANCH  12  13
ENDBRANCH   7  12
ENDBRANCH   5   6
ENDBRANCH   4   5
BRANCH   4  17
HETATM   17  O   UNK N   1      32.659  15.161  10.840  0.00  0.00    -0.386 OA
HETATM   18  H   UNK N   1      31.901  15.550  11.304  0.00  0.00     0.210 HD
ENDBRANCH   4  17
ENDBRANCH   1   4
BRANCH   2  19
HETATM   19  C   UNK N   1      31.706  15.702   7.768  0.00  0.00     0.164 C 
BRANCH  19  20
HETATM   20  C   UNK N   1      30.640  16.742   7.929  0.00  0.00    -0.040 A 
HETATM   21  C   UNK N   1      30.577  17.522   9.092  0.00  0.00     0.009 A 
HETATM   22  C   UNK N   1      29.620  18.534   9.210  0.00  0.00     0.001 A 
HETATM   23  C   UNK N   1      28.725  18.771   8.164  0.00  0.00     0.000 A 
HETATM   24  C   UNK N   1      28.781  17.992   7.003  0.00  0.00     0.001 A 
HETATM   25  C   UNK N   1      29.738  16.978   6.886  0.00  0.00     0.009 A 
ENDBRANCH  19  20
ENDBRANCH   2  19
BRANCH   2  26
HETATM   26  C   UNK N   1      33.435  17.314   6.976  0.00  0.00     0.164 C 
BRANCH  26  27
HETATM   27  C   UNK N   1      33.324  16.913   5.535  0.00  0.00    -0.040 A 
HETATM   28  C   UNK N   1      32.556  17.632   4.608  0.00  0.00     0.009 A 
HETATM   29  C   UNK N   1      32.488  17.206   3.276  0.00  0.00     0.001 A 
HETATM   30  C   UNK N   1      33.180  16.060   2.868  0.00  0.00     0.000 A 
HETATM   31  C   UNK N   1      33.941  15.339   3.792  0.00  0.00     0.001 A 
HETATM   32  C   UNK N   1      34.012  15.766   5.120  0.00  0.00     0.009 A 
ENDBRANCH  26  27
ENDBRANCH   2  26
TORSDOF 12
ENDMDL
MODEL 5
REMARK VINA RESULT:      -7.0      1.735      3.552
REMARK  12 active torsions:
REMARK  status: ('A' for Active; 'I' for Inactive)
REMARK       I    between atoms: C_1  and  N_2 
REMARK    1  A    between atoms: C_1  and  C_9 
REMARK    2  A    between atoms: N_2  and  N_4 
REMARK    3  A    between atoms: N_2  and  C_5 
REMARK    4  A    between atoms: C_5  and  C_6 
REMARK    5  A    between atoms: C_6  and  O_7 
REMARK    6  A    between atoms: C_9  and  C_10 
REMARK    7  A    between atoms: C_10  and  O_11 
REMARK    8  A    between atoms: C_10  and  C_12 
REMARK       I    between atoms: C_12  and  N_13 
REMARK    9  A    between atoms: N_13  and  C_15 
REMARK   10  A    between atoms: N_13  and  C_16 
REMARK   11  A    between atoms: C_15  and  C_23 
REMARK   12  A    between atoms: C_16  and  C_17 
ROOT
HETATM    1  C   UNK N   1      35.574  13.077  12.493  0.00  0.00     0.249 C 
HETATM    2  N   UNK N   1      35.303  11.777  12.835  0.00  0.00    -0.342 N 
HETATM    3  O   UNK N   1      34.909  13.978  12.985  0.00  0.00    -0.270 OA
ENDROOT
BRANCH   1   4
HETATM    4  C   UNK N   1      36.636  13.413  11.453  0.00  0.00     0.218 C 
BRANCH   4   5
HETATM    5  C   UNK N   1      36.596  14.876  10.970  0.00  0.00     0.146 C 
BRANCH   5   6
HETATM    6  C   UNK N   1      35.766  15.216   9.753  0.00  0.00     0.241 C 
HETATM    7  N   UNK N   1      35.043  16.381   9.672  0.00  0.00    -0.258 N 
HETATM    8  O   UNK N   1      35.729  14.391   8.853  0.00  0.00    -0.272 OA
BRANCH   7   9
HETATM    9  N   UNK N   1      35.137  17.300  10.706  0.00  0.00    -0.340 N 
HETATM   10  H   UNK N   1      34.319  17.629  11.218  0.00  0.00     0.177 HD
HETATM   11  H   UNK N   1      36.057  17.659  10.963  0.00  0.00     0.177 HD
ENDBRANCH   7   9
BRANCH   7  12
HETATM   12  C   UNK N   1      34.152  16.739   8.568  0.00  0.00     0.261 C 
BRANCH  12  13
HETATM   13  C   UNK N   1      34.463  17.977   7.772  0.00  0.00     0.160 C 
HETATM   14  O   UNK N   1      34.291  17.975   6.566  0.00  0.00    -0.649 OA
BRANCH  13  15
HETATM   15  O   UNK N   1      34.994  19.060   8.372  0.00  0.00    -0.775 OA
HETATM   16  H   UNK N   1      35.567  19.792   8.249  0.00  0.00     0.167 HD
ENDBRANCH  13  15
ENDBRANCH  12  13
ENDBRANCH   7  12
ENDBRANCH   5   6
ENDBRANCH   4   5
BRANCH   4  17
HETATM   17  O   UNK N   1      37.910  13.059  11.908  0.00  0.00    -0.386 OA
HETATM   18  H   UNK N   1      38.669  12.527  12.191  0.00  0.00     0.210 HD
ENDBRANCH   4  17
ENDBRANCH   1   4
BRANCH   2  19
HETATM   19  C   UNK N   1      35.969  10.684  12.154  0.00  0.00     0.164 C 
BRANCH  19  20
HETATM   20  C   UNK N   1      36.762   9.884  13.141  0.00  0.00    -0.040 A 
HETATM   21  C   UNK N   1      37.768  10.493  13.904  0.00  0.00     0.009 A 
HETATM   22  C   UNK N   1      38.462   9.757  14.869  0.00  0.00     0.001 A 
HETATM   23  C   UNK N   1      38.151   8.411  15.076  0.00  0.00     0.000 A 
HETATM   24  C   UNK N   1      37.150   7.799  14.313  0.00  0.00     0.001 A 
HETATM   25  C   UNK N   1      36.457   8.535  13.347  0.00  0.00     0.009 A 
ENDBRANCH  19  20
ENDBRANCH   2  19
BRANCH   2  26
HETATM   26  C   UNK N   1      34.213  11.459  13.746  0.00  0.00     0.164 C 
BRANCH  26  27
HETATM   27  C   UNK N   1      34.587  11.371  15.195  0.00  0.00    -0.040 A 
HETATM   28  C   UNK N   1      35.013  12.484  15.935  0.00  0.00     0.009 A 
HETATM   29  C   UNK N   1      35.352  12.337  17.286  0.00  0.00     0.001 A 
HETATM   30  C   UNK N   1      35.274  11.081  17.898  0.00  0.00     0.000 A 
HETATM   31  C   UNK N   1      34.856   9.970  17.160  0.00  0.00     0.001 A 
HETATM   32  C   UNK N   1      34.514  10.117  15.814  0.00  0.00     0.009 A 
ENDBRANCH  26  27
ENDBRANCH   2  26
TORSDOF 12
ENDMDL
MODEL 6
REMARK VINA RESULT:      -6.9      3.733      9.646
REMARK  12 active torsions:
REMARK  status: ('A' for Active; 'I' for Inactive)
REMARK       I    between atoms: C_1  and  N_2 
REMARK    1  A    between atoms: C_1  and  C_9 
REMARK    2  A    between atoms: N_2  and  N_4 
REMARK    3  A    between atoms: N_2  and  C_5 
REMARK    4  A    between atoms: C_5  and  C_6 
REMARK    5  A    between atoms: C_6  and  O_7 
REMARK    6  A    between atoms: C_9  and  C_10 
REMARK    7  A    between atoms: C_10  and  O_11 
REMARK    8  A    between atoms: C_10  and  C_12 
REMARK       I    between atoms: C_12  and  N_13 
REMARK    9  A    between atoms: N_13  and  C_15 
REMARK   10  A    between atoms: N_13  and  C_16 
REMARK   11  A    between atoms: C_15  and  C_23 
REMARK   12  A    between atoms: C_16  and  C_17 
ROOT
HETATM    1  C   UNK N   1      33.150  15.804   8.494  0.00  0.00     0.249 C 
HETATM    2  N   UNK N   1      32.391  16.331   7.483  0.00  0.00    -0.342 N 
HETATM    3  O   UNK N   1      32.647  14.996   9.264  0.00  0.00    -0.270 OA
ENDROOT
BRANCH   1   4
HETATM    4  C   UNK N   1      34.584  16.263   8.726  0.00  0.00     0.218 C 
BRANCH   4   5
HETATM    5  C   UNK N   1      34.904  16.597  10.196  0.00  0.00     0.146 C 
BRANCH   5   6
HETATM    6  C   UNK N   1      35.911  15.743  10.932  0.00  0.00     0.241 C 
HETATM    7  N   UNK N   1      35.533  14.637  11.655  0.00  0.00    -0.258 N 
HETATM    8  O   UNK N   1      37.080  16.097  10.894  0.00  0.00    -0.272 OA
BRANCH   7   9
HETATM    9  N   UNK N   1      34.200  14.258  11.647  0.00  0.00    -0.340 N 
HETATM   10  H   UNK N   1      33.911  13.284  11.564  0.00  0.00     0.177 HD
HETATM   11  H   UNK N   1      33.482  14.979  11.728  0.00  0.00     0.177 HD
ENDBRANCH   7   9
BRANCH   7  12
HETATM   12  C   UNK N   1      36.435  13.813  12.460  0.00  0.00     0.261 C 
BRANCH  12  13
HETATM   13  C   UNK N   1      36.184  13.717  13.940  0.00  0.00     0.160 C 
HETATM   14  O   UNK N   1      35.057  13.490  14.346  0.00  0.00    -0.649 OA
BRANCH  13  15
HETATM   15  O   UNK N   1      37.179  13.949  14.818  0.00  0.00    -0.775 OA
HETATM   16  H   UNK N   1      37.386  14.014  15.730  0.00  0.00     0.167 HD
ENDBRANCH  13  15
ENDBRANCH  12  13
ENDBRANCH   7  12
ENDBRANCH   5   6
ENDBRANCH   4   5
BRANCH   4  17
HETATM   17  O   UNK N   1      35.495  15.341   8.202  0.00  0.00    -0.386 OA
HETATM   18  H   UNK N   1      36.322  14.869   8.019  0.00  0.00     0.210 HD
ENDBRANCH   4  17
ENDBRANCH   1   4
BRANCH   2  19
HETATM   19  C   UNK N   1      32.912  17.401   6.654  0.00  0.00     0.164 C 
BRANCH  19  20
HETATM   20  C   UNK N   1      33.052  16.923   5.242  0.00  0.00    -0.040 A 
HETATM   21  C   UNK N   1      33.858  15.816   4.943  0.00  0.00     0.009 A 
HETATM   22  C   UNK N   1      33.934  15.335   3.633  0.00  0.00     0.001 A 
HETATM   23  C   UNK N   1      33.202  15.958   2.618  0.00  0.00     0.000 A 
HETATM   24  C   UNK N   1      32.400  17.065   2.912  0.00  0.00     0.001 A 
HETATM   25  C   UNK N   1      32.325  17.547   4.222  0.00  0.00     0.009 A 
ENDBRANCH  19  20
ENDBRANCH   2  19
BRANCH   2  26
HETATM   26  C   UNK N   1      30.989  15.968   7.337  0.00  0.00     0.164 C 
BRANCH  26  27
HETATM   27  C   UNK N   1      30.004  17.049   7.669  0.00  0.00    -0.040 A 
HETATM   28  C   UNK N   1      29.843  17.552   8.969  0.00  0.00     0.009 A 
HETATM   29  C   UNK N   1      28.904  18.560   9.218  0.00  0.00     0.001 A 
HETATM   30  C   UNK N   1      28.120  19.063   8.173  0.00  0.00     0.000 A 
HETATM   31  C   UNK N   1      28.275  18.559   6.879  0.00  0.00     0.001 A 
HETATM   32  C   UNK N   1      29.214  17.556   6.630  0.00  0.00     0.009 A 
ENDBRANCH  26  27
ENDBRANCH   2  26
TORSDOF 12
ENDMDL
MODEL 7
REMARK VINA RESULT:      -6.8     18.119     22.016
REMARK  12 active torsions:
REMARK  status: ('A' for Active; 'I' for Inactive)
REMARK       I    between atoms: C_1  and  N_2 
REMARK    1  A    between atoms: C_1  and  C_9 
REMARK    2  A    between atoms: N_2  and  N_4 
REMARK    3  A    between atoms: N_2  and  C_5 
REMARK    4  A    between atoms: C_5  and  C_6 
REMARK    5  A    between atoms: C_6  and  O_7 
REMARK    6  A    between atoms: C_9  and  C_10 
REMARK    7  A    between atoms: C_10  and  O_11 
REMARK    8  A    between atoms: C_10  and  C_12 
REMARK       I    between atoms: C_12  and  N_13 
REMARK    9  A    between atoms: N_13  and  C_15 
REMARK   10  A    between atoms: N_13  and  C_16 
REMARK   11  A    between atoms: C_15  and  C_23 
REMARK   12  A    between atoms: C_16  and  C_17 
ROOT
HETATM    1  C   UNK N   1      29.231  23.501  -4.885  0.00  0.00     0.249 C 
HETATM    2  N   UNK N   1      27.986  23.912  -5.282  0.00  0.00    -0.342 N 
HETATM    3  O   UNK N   1      30.094  23.296  -5.728  0.00  0.00    -0.270 OA
ENDROOT
BRANCH   1   4
HETATM    4  C   UNK N   1      29.539  23.220  -3.419  0.00  0.00     0.218 C 
BRANCH   4   5
HETATM    5  C   UNK N   1      30.088  21.804  -3.155  0.00  0.00     0.146 C 
BRANCH   5   6
HETATM    6  C   UNK N   1      31.585  21.607  -3.093  0.00  0.00     0.241 C 
HETATM    7  N   UNK N   1      32.288  21.056  -4.138  0.00  0.00    -0.258 N 
HETATM    8  O   UNK N   1      32.148  21.919  -2.055  0.00  0.00    -0.272 OA
BRANCH   7   9
HETATM    9  N   UNK N   1      31.611  20.741  -5.305  0.00  0.00    -0.340 N 
HETATM   10  H   UNK N   1      32.005  20.919  -6.228  0.00  0.00     0.177 HD
HETATM   11  H   UNK N   1      30.685  20.316  -5.239  0.00  0.00     0.177 HD
ENDBRANCH   7   9
BRANCH   7  12
HETATM   12  C   UNK N   1      33.719  20.755  -4.119  0.00  0.00     0.261 C 
BRANCH  12  13
HETATM   13  C   UNK N   1      34.146  19.314  -4.074  0.00  0.00     0.160 C 
HETATM   14  O   UNK N   1      35.289  19.014  -4.372  0.00  0.00    -0.649 OA
BRANCH  13  15
HETATM   15  O   UNK N   1      33.256  18.347  -3.776  0.00  0.00    -0.775 OA
HETATM   16  H   UNK N   1      33.165  17.439  -3.562  0.00  0.00     0.167 HD
ENDBRANCH  13  15
ENDBRANCH  12  13
ENDBRANCH   7  12
ENDBRANCH   5   6
ENDBRANCH   4   5
BRANCH   4  17
HETATM   17  O   UNK N   1      30.381  24.201  -2.887  0.00  0.00    -0.386 OA
HETATM   18  H   UNK N   1      31.053  24.638  -2.342  0.00  0.00     0.210 HD
ENDBRANCH   4  17
ENDBRANCH   1   4
BRANCH   2  19
HETATM   19  C   UNK N   1      26.904  24.013  -4.321  0.00  0.00     0.164 C 
BRANCH  19  20
HETATM   20  C   UNK N   1      26.328  25.395  -4.353  0.00  0.00    -0.040 A 
HETATM   21  C   UNK N   1      26.760  26.365  -3.438  0.00  0.00     0.009 A 
HETATM   22  C   UNK N   1      26.266  27.671  -3.513  0.00  0.00     0.001 A 
HETATM   23  C   UNK N   1      25.343  28.011  -4.505  0.00  0.00     0.000 A 
HETATM   24  C   UNK N   1      24.907  27.044  -5.418  0.00  0.00     0.001 A 
HETATM   25  C   UNK N   1      25.400  25.738  -5.342  0.00  0.00     0.009 A 
ENDBRANCH  19  20
ENDBRANCH   2  19
BRANCH   2  26
HETATM   26  C   UNK N   1      27.670  24.071  -6.693  0.00  0.00     0.164 C 
BRANCH  26  27
HETATM   27  C   UNK N   1      26.993  22.900  -7.340  0.00  0.00    -0.040 A 
HETATM   28  C   UNK N   1      27.698  21.773  -7.789  0.00  0.00     0.009 A 
HETATM   29  C   UNK N   1      27.011  20.711  -8.389  0.00  0.00     0.001 A 
HETATM   30  C   UNK N   1      25.622  20.774  -8.548  0.00  0.00     0.000 A 
HETATM   31  C   UNK N   1      24.919  21.899  -8.107  0.00  0.00     0.001 A 
HETATM   32  C   UNK N   1      25.604  22.956  -7.505  0.00  0.00     0.009 A 
ENDBRANCH  26  27
ENDBRANCH   2  26
TORSDOF 12
ENDMDL
MODEL 8
REMARK VINA RESULT:      -6.7     13.400     15.875
REMARK  12 active torsions:
REMARK  status: ('A' for Active; 'I' for Inactive)
REMARK       I    between atoms: C_1  and  N_2 
REMARK    1  A    between atoms: C_1  and  C_9 
REMARK    2  A    between atoms: N_2  and  N_4 
REMARK    3  A    between atoms: N_2  and  C_5 
REMARK    4  A    between atoms: C_5  and  C_6 
REMARK    5  A    between atoms: C_6  and  O_7 
REMARK    6  A    between atoms: C_9  and  C_10 
REMARK    7  A    between atoms: C_10  and  O_11 
REMARK    8  A    between atoms: C_10  and  C_12 
REMARK       I    between atoms: C_12  and  N_13 
REMARK    9  A    between atoms: N_13  and  C_15 
REMARK   10  A    between atoms: N_13  and  C_16 
REMARK   11  A    between atoms: C_15  and  C_23 
REMARK   12  A    between atoms: C_16  and  C_17 
ROOT
HETATM    1  C   UNK N   1      20.008  14.578   5.833  0.00  0.00     0.249 C 
HETATM    2  N   UNK N   1      21.205  14.382   6.473  0.00  0.00    -0.342 N 
HETATM    3  O   UNK N   1      19.348  13.609   5.484  0.00  0.00    -0.270 OA
ENDROOT
BRANCH   1   4
HETATM    4  C   UNK N   1      19.523  15.979   5.481  0.00  0.00     0.218 C 
BRANCH   4   5
HETATM    5  C   UNK N   1      19.902  16.432   4.058  0.00  0.00     0.146 C 
BRANCH   5   6
HETATM    6  C   UNK N   1      20.494  17.810   3.869  0.00  0.00     0.241 C 
HETATM    7  N   UNK N   1      19.958  18.715   2.984  0.00  0.00    -0.258 N 
HETATM    8  O   UNK N   1      21.501  18.079   4.507  0.00  0.00    -0.272 OA
BRANCH   7   9
HETATM    9  N   UNK N   1      18.800  18.375   2.302  0.00  0.00    -0.340 N 
HETATM   10  H   UNK N   1      17.925  18.168   2.783  0.00  0.00     0.177 HD
HETATM   11  H   UNK N   1      18.824  18.330   1.283  0.00  0.00     0.177 HD
ENDBRANCH   7   9
BRANCH   7  12
HETATM   12  C   UNK N   1      20.523  20.030   2.684  0.00  0.00     0.261 C 
BRANCH  12  13
HETATM   13  C   UNK N   1      20.630  20.450   1.245  0.00  0.00     0.160 C 
HETATM   14  O   UNK N   1      20.697  21.635   0.966  0.00  0.00    -0.649 OA
BRANCH  13  15
HETATM   15  O   UNK N   1      20.581  19.532   0.259  0.00  0.00    -0.775 OA
HETATM   16  H   UNK N   1      20.992  18.761  -0.081  0.00  0.00     0.167 HD
ENDBRANCH  13  15
ENDBRANCH  12  13
ENDBRANCH   7  12
ENDBRANCH   5   6
ENDBRANCH   4   5
BRANCH   4  17
HETATM   17  O   UNK N   1      18.149  16.104   5.708  0.00  0.00    -0.386 OA
HETATM   18  H   UNK N   1      17.289  16.110   6.155  0.00  0.00     0.210 HD
ENDBRANCH   4  17
ENDBRANCH   1   4
BRANCH   2  19
HETATM   19  C   UNK N   1      22.078  15.504   6.759  0.00  0.00     0.164 C 
BRANCH  19  20
HETATM   20  C   UNK N   1      23.378  15.328   6.037  0.00  0.00    -0.040 A 
HETATM   21  C   UNK N   1      24.571  15.162   6.753  0.00  0.00     0.009 A 
HETATM   22  C   UNK N   1      25.773  14.935   6.076  0.00  0.00     0.001 A 
HETATM   23  C   UNK N   1      25.784  14.870   4.680  0.00  0.00     0.000 A 
HETATM   24  C   UNK N   1      24.595  15.039   3.962  0.00  0.00     0.001 A 
HETATM   25  C   UNK N   1      23.393  15.268   4.640  0.00  0.00     0.009 A 
ENDBRANCH  19  20
ENDBRANCH   2  19
BRANCH   2  26
HETATM   26  C   UNK N   1      21.711  13.038   6.706  0.00  0.00     0.164 C 
BRANCH  26  27
HETATM   27  C   UNK N   1      21.934  12.672   8.143  0.00  0.00    -0.040 A 
HETATM   28  C   UNK N   1      21.069  13.081   9.170  0.00  0.00     0.009 A 
HETATM   29  C   UNK N   1      21.332  12.711  10.494  0.00  0.00     0.001 A 
HETATM   30  C   UNK N   1      22.458  11.938  10.798  0.00  0.00     0.000 A 
HETATM   31  C   UNK N   1      23.323  11.535   9.777  0.00  0.00     0.001 A 
HETATM   32  C   UNK N   1      23.060  11.901   8.456  0.00  0.00     0.009 A 
ENDBRANCH  26  27
ENDBRANCH   2  26
TORSDOF 12
ENDMDL
MODEL 9
REMARK VINA RESULT:      -6.7      1.628      4.498
REMARK  12 active torsions:
REMARK  status: ('A' for Active; 'I' for Inactive)
REMARK       I    between atoms: C_1  and  N_2 
REMARK    1  A    between atoms: C_1  and  C_9 
REMARK    2  A    between atoms: N_2  and  N_4 
REMARK    3  A    between atoms: N_2  and  C_5 
REMARK    4  A    between atoms: C_5  and  C_6 
REMARK    5  A    between atoms: C_6  and  O_7 
REMARK    6  A    between atoms: C_9  and  C_10 
REMARK    7  A    between atoms: C_10  and  O_11 
REMARK    8  A    between atoms: C_10  and  C_12 
REMARK       I    between atoms: C_12  and  N_13 
REMARK    9  A    between atoms: N_13  and  C_15 
REMARK   10  A    between atoms: N_13  and  C_16 
REMARK   11  A    between atoms: C_15  and  C_23 
REMARK   12  A    between atoms: C_16  and  C_17 
ROOT
HETATM    1  C   UNK N   1      35.541  12.313  13.108  0.00  0.00     0.249 C 
HETATM    2  N   UNK N   1      35.658  11.452  14.168  0.00  0.00    -0.342 N 
HETATM    3  O   UNK N   1      34.524  12.981  12.986  0.00  0.00    -0.270 OA
ENDROOT
BRANCH   1   4
HETATM    4  C   UNK N   1      36.623  12.397  12.037  0.00  0.00     0.218 C 
BRANCH   4   5
HETATM    5  C   UNK N   1      36.076  12.415  10.597  0.00  0.00     0.146 C 
BRANCH   5   6
HETATM    6  C   UNK N   1      36.076  13.722   9.837  0.00  0.00     0.241 C 
HETATM    7  N   UNK N   1      34.944  14.493   9.720  0.00  0.00    -0.258 N 
HETATM    8  O   UNK N   1      37.118  14.052   9.291  0.00  0.00    -0.272 OA
BRANCH   7   9
HETATM    9  N   UNK N   1      33.792  14.092  10.379  0.00  0.00    -0.340 N 
HETATM   10  H   UNK N   1      33.663  14.229  11.381  0.00  0.00     0.177 HD
HETATM   11  H   UNK N   1      33.049  13.644   9.843  0.00  0.00     0.177 HD
ENDBRANCH   7   9
BRANCH   7  12
HETATM   12  C   UNK N   1      34.844  15.721   8.933  0.00  0.00     0.261 C 
BRANCH  12  13
HETATM   13  C   UNK N   1      34.945  17.039   9.649  0.00  0.00     0.160 C 
HETATM   14  O   UNK N   1      35.041  18.069   9.006  0.00  0.00    -0.649 OA
BRANCH  13  15
HETATM   15  O   UNK N   1      34.999  17.083  10.995  0.00  0.00    -0.775 OA
HETATM   16  H   UNK N   1      34.714  16.657  11.781  0.00  0.00     0.167 HD
ENDBRANCH  13  15
ENDBRANCH  12  13
ENDBRANCH   7  12
ENDBRANCH   5   6
ENDBRANCH   4   5
BRANCH   4  17
HETATM   17  O   UNK N   1      37.477  13.478  12.273  0.00  0.00    -0.386 OA
HETATM   18  H   UNK N   1      37.989  14.161  12.733  0.00  0.00     0.210 HD
ENDBRANCH   4  17
ENDBRANCH   1   4
BRANCH   2  19
HETATM   19  C   UNK N   1      36.781  10.539  14.253  0.00  0.00     0.164 C 
BRANCH  19  20
HETATM   20  C   UNK N   1      36.306   9.133  14.049  0.00  0.00    -0.040 A 
HETATM   21  C   UNK N   1      35.832   8.719  12.797  0.00  0.00     0.009 A 
HETATM   22  C   UNK N   1      35.449   7.390  12.594  0.00  0.00     0.001 A 
HETATM   23  C   UNK N   1      35.542   6.470  13.643  0.00  0.00     0.000 A 
HETATM   24  C   UNK N   1      36.011   6.882  14.895  0.00  0.00     0.001 A 
HETATM   25  C   UNK N   1      36.392   8.212  15.098  0.00  0.00     0.009 A 
ENDBRANCH  19  20
ENDBRANCH   2  19
BRANCH   2  26
HETATM   26  C   UNK N   1      34.572  11.299  15.124  0.00  0.00     0.164 C 
BRANCH  26  27
HETATM   27  C   UNK N   1      34.878  11.739  16.525  0.00  0.00    -0.040 A 
HETATM   28  C   UNK N   1      35.172  10.833  17.555  0.00  0.00     0.009 A 
HETATM   29  C   UNK N   1      35.447  11.305  18.844  0.00  0.00     0.001 A 
HETATM   30  C   UNK N   1      35.422  12.679  19.109  0.00  0.00     0.000 A 
HETATM   31  C   UNK N   1      35.124  13.582  18.086  0.00  0.00     0.001 A 
HETATM   32  C   UNK N   1      34.854  13.112  16.799  0.00  0.00     0.009 A 
ENDBRANCH  26  27
ENDBRANCH   2  26
TORSDOF 12
ENDMDL
