MODEL 1
REMARK VINA RESULT:      -7.4      0.000      0.000
REMARK  6 active torsions:
REMARK  status: ('A' for Active; 'I' for Inactive)
REMARK    1  A    between atoms: C_4  and  O_5 
REMARK    2  A    between atoms: C_7  and  O_8 
REMARK    3  A    between atoms: C_12  and  C_14 
REMARK    4  A    between atoms: C_16  and  O_17 
REMARK    5  A    between atoms: C_18  and  O_19 
REMARK    6  A    between atoms: C_20  and  O_22 
ROOT
HETATM    1  O   UNK N   1      30.627  23.019  -1.393  0.00  0.00    -0.287 OA
HETATM    2  C   UNK N   1      30.150  23.017  -2.513  0.00  0.00     0.190 A 
HETATM    3  C   UNK N   1      30.639  22.158  -3.522  0.00  0.00     0.081 A 
HETATM    4  C   UNK N   1      31.705  21.247  -3.320  0.00  0.00     0.085 A 
HETATM    5  C   UNK N   1      32.131  20.431  -4.377  0.00  0.00     0.074 A 
HETATM    6  C   UNK N   1      31.514  20.509  -5.627  0.00  0.00     0.071 A 
HETATM    7  C   UNK N   1      30.028  22.219  -4.795  0.00  0.00     0.095 A 
HETATM    8  C   UNK N   1      30.466  21.399  -5.834  0.00  0.00     0.075 A 
HETATM    9  O   UNK N   1      29.030  23.057  -5.024  0.00  0.00    -0.309 OA
HETATM   10  C   UNK N   1      28.549  23.880  -4.099  0.00  0.00     0.090 A 
HETATM   11  C   UNK N   1      29.096  23.884  -2.809  0.00  0.00     0.094 A 
ENDROOT
BRANCH  10  12
HETATM   12  C   UNK N   1      27.446  24.773  -4.481  0.00  0.00     0.003 A 
HETATM   13  C   UNK N   1      26.839  24.588  -5.727  0.00  0.00     0.053 A 
HETATM   14  C   UNK N   1      25.799  25.413  -6.142  0.00  0.00     0.102 A 
HETATM   15  C   UNK N   1      25.353  26.444  -5.307  0.00  0.00     0.132 A 
HETATM   16  C   UNK N   1      25.955  26.639  -4.054  0.00  0.00     0.102 A 
HETATM   17  C   UNK N   1      27.001  25.805  -3.641  0.00  0.00     0.053 A 
BRANCH  14  18
HETATM   18  O   UNK N   1      25.233  25.212  -7.344  0.00  0.00    -0.358 OA
HETATM   19  H   UNK N   1      24.513  25.746  -7.618  0.00  0.00     0.217 HD
ENDBRANCH  14  18
BRANCH  15  20
HETATM   20  O   UNK N   1      24.349  27.245  -5.708  0.00  0.00    -0.356 OA
HETATM   21  H   UNK N   1      23.626  27.410  -5.135  0.00  0.00     0.218 HD
ENDBRANCH  15  20
BRANCH  16  22
HETATM   22  O   UNK N   1      25.534  27.626  -3.246  0.00  0.00    -0.358 OA
HETATM   23  H   UNK N   1      24.700  28.026  -3.390  0.00  0.00     0.217 HD
ENDBRANCH  16  22
ENDBRANCH  10  12
BRANCH   4  24
HETATM   24  O   UNK N   1      32.322  21.147  -2.131  0.00  0.00    -0.360 OA
HETATM   25  H   UNK N   1      33.148  20.711  -2.068  0.00  0.00     0.217 HD
ENDBRANCH   4  24
BRANCH   6  26
HETATM   26  O   UNK N   1      31.929  19.725  -6.634  0.00  0.00    -0.361 OA
HETATM   27  H   UNK N   1      32.028  18.802  -6.500  0.00  0.00     0.217 HD
ENDBRANCH   6  26
TORSDOF 6
ENDMDL
MODEL 2
REMARK VINA RESULT:      -7.3     11.912     14.776
REMARK  6 active torsions:
REMARK  status: ('A' for Active; 'I' for Inactive)
REMARK    1  A    between atoms: C_4  and  O_5 
REMARK    2  A    between atoms: C_7  and  O_8 
REMARK    3  A    between atoms: C_12  and  C_14 
REMARK    4  A    between atoms: C_16  and  O_17 
REMARK    5  A    between atoms: C_18  and  O_19 
REMARK    6  A    between atoms: C_20  and  O_22 
ROOT
HETATM    1  O   UNK N   1      35.135  18.960   8.366  0.00  0.00    -0.287 OA
HETATM    2  C   UNK N   1      34.401  17.997   8.241  0.00  0.00     0.190 A 
HETATM    3  C   UNK N   1      34.389  16.950   9.189  0.00  0.00     0.081 A 
HETATM    4  C   UNK N   1      35.215  16.932  10.339  0.00  0.00     0.085 A 
HETATM    5  C   UNK N   1      35.143  15.852  11.229  0.00  0.00     0.074 A 
HETATM    6  C   UNK N   1      34.264  14.793  10.991  0.00  0.00     0.071 A 
HETATM    7  C   UNK N   1      33.506  15.869   8.967  0.00  0.00     0.095 A 
HETATM    8  C   UNK N   1      33.449  14.804   9.864  0.00  0.00     0.075 A 
HETATM    9  O   UNK N   1      32.719  15.848   7.904  0.00  0.00    -0.309 OA
HETATM   10  C   UNK N   1      32.708  16.815   6.993  0.00  0.00     0.090 A 
HETATM   11  C   UNK N   1      33.551  17.924   7.135  0.00  0.00     0.094 A 
ENDROOT
BRANCH  10  12
HETATM   12  C   UNK N   1      31.797  16.670   5.849  0.00  0.00     0.003 A 
HETATM   13  C   UNK N   1      32.266  17.014   4.576  0.00  0.00     0.053 A 
HETATM   14  C   UNK N   1      31.442  16.907   3.461  0.00  0.00     0.102 A 
HETATM   15  C   UNK N   1      30.126  16.451   3.609  0.00  0.00     0.132 A 
HETATM   16  C   UNK N   1      29.646  16.102   4.880  0.00  0.00     0.102 A 
HETATM   17  C   UNK N   1      30.481  16.211   6.000  0.00  0.00     0.053 A 
BRANCH  14  18
HETATM   18  O   UNK N   1      31.917  17.244   2.251  0.00  0.00    -0.358 OA
HETATM   19  H   UNK N   1      32.093  16.579   1.614  0.00  0.00     0.217 HD
ENDBRANCH  14  18
BRANCH  15  20
HETATM   20  O   UNK N   1      29.327  16.349   2.532  0.00  0.00    -0.356 OA
HETATM   21  H   UNK N   1      28.408  16.515   2.614  0.00  0.00     0.218 HD
ENDBRANCH  15  20
BRANCH  16  22
HETATM   22  O   UNK N   1      28.385  15.664   5.032  0.00  0.00    -0.358 OA
HETATM   23  H   UNK N   1      28.051  15.485   5.889  0.00  0.00     0.217 HD
ENDBRANCH  16  22
ENDBRANCH  10  12
BRANCH   4  24
HETATM   24  O   UNK N   1      36.073  17.933  10.599  0.00  0.00    -0.360 OA
HETATM   25  H   UNK N   1      35.753  18.806  10.711  0.00  0.00     0.217 HD
ENDBRANCH   4  24
BRANCH   6  26
HETATM   26  O   UNK N   1      34.202  13.762  11.847  0.00  0.00    -0.361 OA
HETATM   27  H   UNK N   1      33.606  13.788  12.571  0.00  0.00     0.217 HD
ENDBRANCH   6  26
TORSDOF 6
ENDMDL
MODEL 3
REMARK VINA RESULT:      -6.9     13.693     14.345
REMARK  6 active torsions:
REMARK  status: ('A' for Active; 'I' for Inactive)
REMARK    1  A    between atoms: C_4  and  O_5 
REMARK    2  A    between atoms: C_7  and  O_8 
REMARK    3  A    between atoms: C_12  and  C_14 
REMARK    4  A    between atoms: C_16  and  O_17 
REMARK    5  A    between atoms: C_18  and  O_19 
REMARK    6  A    between atoms: C_20  and  O_22 
ROOT
HETATM    1  O   UNK N   1      20.715  17.338   8.462  0.00  0.00    -0.287 OA
HETATM    2  C   UNK N   1      20.789  16.877   7.338  0.00  0.00     0.190 A 
HETATM    3  C   UNK N   1      20.908  15.487   7.117  0.00  0.00     0.081 A 
HETATM    4  C   UNK N   1      20.955  14.533   8.162  0.00  0.00     0.085 A 
HETATM    5  C   UNK N   1      21.079  13.171   7.856  0.00  0.00     0.074 A 
HETATM    6  C   UNK N   1      21.156  12.747   6.528  0.00  0.00     0.071 A 
HETATM    7  C   UNK N   1      20.987  15.036   5.779  0.00  0.00     0.095 A 
HETATM    8  C   UNK N   1      21.109  13.677   5.495  0.00  0.00     0.075 A 
HETATM    9  O   UNK N   1      20.949  15.895   4.774  0.00  0.00    -0.309 OA
HETATM   10  C   UNK N   1      20.839  17.208   4.948  0.00  0.00     0.090 A 
HETATM   11  C   UNK N   1      20.754  17.741   6.241  0.00  0.00     0.094 A 
ENDROOT
BRANCH  10  12
HETATM   12  C   UNK N   1      20.820  18.060   3.751  0.00  0.00     0.003 A 
HETATM   13  C   UNK N   1      20.415  17.495   2.537  0.00  0.00     0.053 A 
HETATM   14  C   UNK N   1      20.389  18.254   1.373  0.00  0.00     0.102 A 
HETATM   15  C   UNK N   1      20.775  19.600   1.410  0.00  0.00     0.132 A 
HETATM   16  C   UNK N   1      21.182  20.177   2.622  0.00  0.00     0.102 A 
HETATM   17  C   UNK N   1      21.205  19.408   3.792  0.00  0.00     0.053 A 
BRANCH  14  18
HETATM   18  O   UNK N   1      19.996  17.687   0.220  0.00  0.00    -0.358 OA
HETATM   19  H   UNK N   1      19.300  18.070  -0.278  0.00  0.00     0.217 HD
ENDBRANCH  14  18
BRANCH  15  20
HETATM   20  O   UNK N   1      20.753  20.335   0.283  0.00  0.00    -0.356 OA
HETATM   21  H   UNK N   1      21.124  19.991  -0.506  0.00  0.00     0.218 HD
ENDBRANCH  15  20
BRANCH  16  22
HETATM   22  O   UNK N   1      21.554  21.467   2.668  0.00  0.00    -0.358 OA
HETATM   23  H   UNK N   1      21.895  21.829   3.462  0.00  0.00     0.217 HD
ENDBRANCH  16  22
ENDBRANCH  10  12
BRANCH   4  24
HETATM   24  O   UNK N   1      20.885  14.906   9.452  0.00  0.00    -0.360 OA
HETATM   25  H   UNK N   1      20.979  15.809   9.683  0.00  0.00     0.217 HD
ENDBRANCH   4  24
BRANCH   6  26
HETATM   26  O   UNK N   1      21.275  11.441   6.242  0.00  0.00    -0.361 OA
HETATM   27  H   UNK N   1      20.612  10.838   6.519  0.00  0.00     0.217 HD
ENDBRANCH   6  26
TORSDOF 6
ENDMDL
MODEL 4
REMARK VINA RESULT:      -6.9     11.149     14.784
REMARK  6 active torsions:
REMARK  status: ('A' for Active; 'I' for Inactive)
REMARK    1  A    between atoms: C_4  and  O_5 
REMARK    2  A    between atoms: C_7  and  O_8 
REMARK    3  A    between atoms: C_12  and  C_14 
REMARK    4  A    between atoms: C_16  and  O_17 
REMARK    5  A    between atoms: C_18  and  O_19 
REMARK    6  A    between atoms: C_20  and  O_22 
ROOT
HETATM    1  O   UNK N   1      30.509  15.283   3.637  0.00  0.00    -0.287 OA
HETATM    2  C   UNK N   1      30.435  15.999   4.618  0.00  0.00     0.190 A 
HETATM    3  C   UNK N   1      29.298  16.801   4.863  0.00  0.00     0.081 A 
HETATM    4  C   UNK N   1      28.173  16.839   4.003  0.00  0.00     0.085 A 
HETATM    5  C   UNK N   1      27.085  17.665   4.318  0.00  0.00     0.074 A 
HETATM    6  C   UNK N   1      27.102  18.451   5.472  0.00  0.00     0.071 A 
HETATM    7  C   UNK N   1      29.294  17.603   6.026  0.00  0.00     0.095 A 
HETATM    8  C   UNK N   1      28.202  18.419   6.322  0.00  0.00     0.075 A 
HETATM    9  O   UNK N   1      30.326  17.597   6.853  0.00  0.00    -0.309 OA
HETATM   10  C   UNK N   1      31.411  16.857   6.651  0.00  0.00     0.090 A 
HETATM   11  C   UNK N   1      31.498  16.032   5.523  0.00  0.00     0.094 A 
ENDROOT
BRANCH  10  12
HETATM   12  C   UNK N   1      32.497  16.947   7.637  0.00  0.00     0.003 A 
HETATM   13  C   UNK N   1      33.421  17.990   7.517  0.00  0.00     0.053 A 
HETATM   14  C   UNK N   1      34.475  18.114   8.416  0.00  0.00     0.102 A 
HETATM   15  C   UNK N   1      34.617  17.186   9.455  0.00  0.00     0.132 A 
HETATM   16  C   UNK N   1      33.695  16.136   9.584  0.00  0.00     0.102 A 
HETATM   17  C   UNK N   1      32.636  16.016   8.676  0.00  0.00     0.053 A 
BRANCH  14  18
HETATM   18  O   UNK N   1      35.348  19.126   8.278  0.00  0.00    -0.358 OA
HETATM   19  H   UNK N   1      35.794  19.466   9.029  0.00  0.00     0.217 HD
ENDBRANCH  14  18
BRANCH  15  20
HETATM   20  O   UNK N   1      35.637  17.303  10.323  0.00  0.00    -0.356 OA
HETATM   21  H   UNK N   1      36.219  18.036  10.266  0.00  0.00     0.218 HD
ENDBRANCH  15  20
BRANCH  16  22
HETATM   22  O   UNK N   1      33.824  15.240  10.577  0.00  0.00    -0.358 OA
HETATM   23  H   UNK N   1      33.084  14.734  10.851  0.00  0.00     0.217 HD
ENDBRANCH  16  22
ENDBRANCH  10  12
BRANCH   4  24
HETATM   24  O   UNK N   1      28.123  16.097   2.884  0.00  0.00    -0.360 OA
HETATM   25  H   UNK N   1      27.950  16.506   2.059  0.00  0.00     0.217 HD
ENDBRANCH   4  24
BRANCH   6  26
HETATM   26  O   UNK N   1      26.057  19.241   5.767  0.00  0.00    -0.361 OA
HETATM   27  H   UNK N   1      26.151  19.924   6.401  0.00  0.00     0.217 HD
ENDBRANCH   6  26
TORSDOF 6
ENDMDL
MODEL 5
REMARK VINA RESULT:      -6.9     21.231     24.799
REMARK  6 active torsions:
REMARK  status: ('A' for Active; 'I' for Inactive)
REMARK    1  A    between atoms: C_4  and  O_5 
REMARK    2  A    between atoms: C_7  and  O_8 
REMARK    3  A    between atoms: C_12  and  C_14 
REMARK    4  A    between atoms: C_16  and  O_17 
REMARK    5  A    between atoms: C_18  and  O_19 
REMARK    6  A    between atoms: C_20  and  O_22 
ROOT
HETATM    1  O   UNK N   1      33.661  10.450  12.930  0.00  0.00    -0.287 OA
HETATM    2  C   UNK N   1      34.316  11.217  13.611  0.00  0.00     0.190 A 
HETATM    3  C   UNK N   1      34.892  12.384  13.062  0.00  0.00     0.081 A 
HETATM    4  C   UNK N   1      34.760  12.750  11.700  0.00  0.00     0.085 A 
HETATM    5  C   UNK N   1      35.367  13.924  11.234  0.00  0.00     0.074 A 
HETATM    6  C   UNK N   1      36.100  14.736  12.102  0.00  0.00     0.071 A 
HETATM    7  C   UNK N   1      35.638  13.221  13.923  0.00  0.00     0.095 A 
HETATM    8  C   UNK N   1      36.234  14.385  13.440  0.00  0.00     0.075 A 
HETATM    9  O   UNK N   1      35.786  12.913  15.201  0.00  0.00    -0.309 OA
HETATM   10  C   UNK N   1      35.260  11.823  15.748  0.00  0.00     0.090 A 
HETATM   11  C   UNK N   1      34.504  10.939  14.967  0.00  0.00     0.094 A 
ENDROOT
BRANCH  10  12
HETATM   12  C   UNK N   1      35.506  11.585  17.177  0.00  0.00     0.003 A 
HETATM   13  C   UNK N   1      35.124  12.571  18.093  0.00  0.00     0.053 A 
HETATM   14  C   UNK N   1      35.344  12.401  19.455  0.00  0.00     0.102 A 
HETATM   15  C   UNK N   1      35.957  11.231  19.921  0.00  0.00     0.132 A 
HETATM   16  C   UNK N   1      36.344  10.235  19.011  0.00  0.00     0.102 A 
HETATM   17  C   UNK N   1      36.119  10.412  17.640  0.00  0.00     0.053 A 
BRANCH  14  18
HETATM   18  O   UNK N   1      34.967  13.364  20.313  0.00  0.00    -0.358 OA
HETATM   19  H   UNK N   1      35.383  13.436  21.150  0.00  0.00     0.217 HD
ENDBRANCH  14  18
BRANCH  15  20
HETATM   20  O   UNK N   1      36.174  11.066  21.238  0.00  0.00    -0.356 OA
HETATM   21  H   UNK N   1      37.034  10.859  21.548  0.00  0.00     0.218 HD
ENDBRANCH  15  20
BRANCH  16  22
HETATM   22  O   UNK N   1      36.933   9.110  19.448  0.00  0.00    -0.358 OA
HETATM   23  H   UNK N   1      36.411   8.370  19.687  0.00  0.00     0.217 HD
ENDBRANCH  16  22
ENDBRANCH  10  12
BRANCH   4  24
HETATM   24  O   UNK N   1      34.063  11.991  10.837  0.00  0.00    -0.360 OA
HETATM   25  H   UNK N   1      33.424  12.386  10.277  0.00  0.00     0.217 HD
ENDBRANCH   4  24
BRANCH   6  26
HETATM   26  O   UNK N   1      36.679  15.859  11.648  0.00  0.00    -0.361 OA
HETATM   27  H   UNK N   1      37.208  15.834  10.874  0.00  0.00     0.217 HD
ENDBRANCH   6  26
TORSDOF 6
ENDMDL
MODEL 6
REMARK VINA RESULT:      -6.9     13.157     15.714
REMARK  6 active torsions:
REMARK  status: ('A' for Active; 'I' for Inactive)
REMARK    1  A    between atoms: C_4  and  O_5 
REMARK    2  A    between atoms: C_7  and  O_8 
REMARK    3  A    between atoms: C_12  and  C_14 
REMARK    4  A    between atoms: C_16  and  O_17 
REMARK    5  A    between atoms: C_18  and  O_19 
REMARK    6  A    between atoms: C_20  and  O_22 
ROOT
HETATM    1  O   UNK N   1      35.362  17.896   9.722  0.00  0.00    -0.287 OA
HETATM    2  C   UNK N   1      34.490  17.092   9.448  0.00  0.00     0.190 A 
HETATM    3  C   UNK N   1      34.678  15.705   9.643  0.00  0.00     0.081 A 
HETATM    4  C   UNK N   1      35.872  15.146  10.160  0.00  0.00     0.085 A 
HETATM    5  C   UNK N   1      35.978  13.758  10.319  0.00  0.00     0.074 A 
HETATM    6  C   UNK N   1      34.915  12.922   9.972  0.00  0.00     0.071 A 
HETATM    7  C   UNK N   1      33.614  14.841   9.299  0.00  0.00     0.095 A 
HETATM    8  C   UNK N   1      33.738  13.462   9.464  0.00  0.00     0.075 A 
HETATM    9  O   UNK N   1      32.483  15.323   8.812  0.00  0.00    -0.309 OA
HETATM   10  C   UNK N   1      32.275  16.620   8.614  0.00  0.00     0.090 A 
HETATM   11  C   UNK N   1      33.277  17.548   8.929  0.00  0.00     0.094 A 
ENDROOT
BRANCH  10  12
HETATM   12  C   UNK N   1      30.980  17.032   8.055  0.00  0.00     0.003 A 
HETATM   13  C   UNK N   1      29.945  17.355   8.939  0.00  0.00     0.053 A 
HETATM   14  C   UNK N   1      28.696  17.738   8.462  0.00  0.00     0.102 A 
HETATM   15  C   UNK N   1      28.467  17.802   7.082  0.00  0.00     0.132 A 
HETATM   16  C   UNK N   1      29.498  17.480   6.187  0.00  0.00     0.102 A 
HETATM   17  C   UNK N   1      30.754  17.095   6.673  0.00  0.00     0.053 A 
BRANCH  14  18
HETATM   18  O   UNK N   1      27.720  18.044   9.333  0.00  0.00    -0.358 OA
HETATM   19  H   UNK N   1      27.825  17.848  10.244  0.00  0.00     0.217 HD
ENDBRANCH  14  18
BRANCH  15  20
HETATM   20  O   UNK N   1      27.259  18.170   6.620  0.00  0.00    -0.356 OA
HETATM   21  H   UNK N   1      26.608  18.489   7.214  0.00  0.00     0.218 HD
ENDBRANCH  15  20
BRANCH  16  22
HETATM   22  O   UNK N   1      29.288  17.538   4.861  0.00  0.00    -0.358 OA
HETATM   23  H   UNK N   1      29.044  18.349   4.460  0.00  0.00     0.217 HD
ENDBRANCH  16  22
ENDBRANCH  10  12
BRANCH   4  24
HETATM   24  O   UNK N   1      36.915  15.921  10.503  0.00  0.00    -0.360 OA
HETATM   25  H   UNK N   1      36.920  16.358  11.331  0.00  0.00     0.217 HD
ENDBRANCH   4  24
BRANCH   6  26
HETATM   26  O   UNK N   1      35.024  11.592  10.126  0.00  0.00    -0.361 OA
HETATM   27  H   UNK N   1      35.778  11.143   9.797  0.00  0.00     0.217 HD
ENDBRANCH   6  26
TORSDOF 6
ENDMDL
MODEL 7
REMARK VINA RESULT:      -6.7      1.427      7.262
REMARK  6 active torsions:
REMARK  status: ('A' for Active; 'I' for Inactive)
REMARK    1  A    between atoms: C_4  and  O_5 
REMARK    2  A    between atoms: C_7  and  O_8 
REMARK    3  A    between atoms: C_12  and  C_14 
REMARK    4  A    between atoms: C_16  and  O_17 
REMARK    5  A    between atoms: C_18  and  O_19 
REMARK    6  A    between atoms: C_20  and  O_22 
ROOT
HETATM    1  O   UNK N   1      25.140  24.742  -6.148  0.00  0.00    -0.287 OA
HETATM    2  C   UNK N   1      26.142  24.938  -5.485  0.00  0.00     0.190 A 
HETATM    3  C   UNK N   1      26.378  26.179  -4.853  0.00  0.00     0.081 A 
HETATM    4  C   UNK N   1      25.490  27.278  -4.940  0.00  0.00     0.085 A 
HETATM    5  C   UNK N   1      25.801  28.477  -4.285  0.00  0.00     0.074 A 
HETATM    6  C   UNK N   1      26.981  28.597  -3.548  0.00  0.00     0.071 A 
HETATM    7  C   UNK N   1      27.566  26.321  -4.101  0.00  0.00     0.095 A 
HETATM    8  C   UNK N   1      27.859  27.522  -3.457  0.00  0.00     0.075 A 
HETATM    9  O   UNK N   1      28.423  25.319  -3.998  0.00  0.00    -0.309 OA
HETATM   10  C   UNK N   1      28.232  24.140  -4.580  0.00  0.00     0.090 A 
HETATM   11  C   UNK N   1      27.080  23.913  -5.344  0.00  0.00     0.094 A 
ENDROOT
BRANCH  10  12
HETATM   12  C   UNK N   1      29.264  23.110  -4.400  0.00  0.00     0.003 A 
HETATM   13  C   UNK N   1      29.426  22.147  -5.402  0.00  0.00     0.053 A 
HETATM   14  C   UNK N   1      30.380  21.143  -5.277  0.00  0.00     0.102 A 
HETATM   15  C   UNK N   1      31.189  21.089  -4.135  0.00  0.00     0.132 A 
HETATM   16  C   UNK N   1      31.035  22.050  -3.124  0.00  0.00     0.102 A 
HETATM   17  C   UNK N   1      30.073  23.059  -3.256  0.00  0.00     0.053 A 
BRANCH  14  18
HETATM   18  O   UNK N   1      30.515  20.231  -6.255  0.00  0.00    -0.358 OA
HETATM   19  H   UNK N   1      31.370  19.955  -6.524  0.00  0.00     0.217 HD
ENDBRANCH  14  18
BRANCH  15  20
HETATM   20  O   UNK N   1      32.110  20.117  -4.011  0.00  0.00    -0.356 OA
HETATM   21  H   UNK N   1      32.916  20.290  -3.564  0.00  0.00     0.218 HD
ENDBRANCH  15  20
BRANCH  16  22
HETATM   22  O   UNK N   1      31.806  22.007  -2.025  0.00  0.00    -0.358 OA
HETATM   23  H   UNK N   1      32.440  21.325  -1.923  0.00  0.00     0.217 HD
ENDBRANCH  16  22
ENDBRANCH  10  12
BRANCH   4  24
HETATM   24  O   UNK N   1      24.346  27.198  -5.641  0.00  0.00    -0.360 OA
HETATM   25  H   UNK N   1      24.149  27.844  -6.290  0.00  0.00     0.217 HD
ENDBRANCH   4  24
BRANCH   6  26
HETATM   26  O   UNK N   1      27.273  29.749  -2.924  0.00  0.00    -0.361 OA
HETATM   27  H   UNK N   1      28.161  30.047  -2.881  0.00  0.00     0.217 HD
ENDBRANCH   6  26
TORSDOF 6
ENDMDL
MODEL 8
REMARK VINA RESULT:      -6.6     20.753     24.044
REMARK  6 active torsions:
REMARK  status: ('A' for Active; 'I' for Inactive)
REMARK    1  A    between atoms: C_4  and  O_5 
REMARK    2  A    between atoms: C_7  and  O_8 
REMARK    3  A    between atoms: C_12  and  C_14 
REMARK    4  A    between atoms: C_16  and  O_17 
REMARK    5  A    between atoms: C_18  and  O_19 
REMARK    6  A    between atoms: C_20  and  O_22 
ROOT
HETATM    1  O   UNK N   1      36.682   9.242  16.346  0.00  0.00    -0.287 OA
HETATM    2  C   UNK N   1      36.357  10.406  16.198  0.00  0.00     0.190 A 
HETATM    3  C   UNK N   1      35.930  11.197  17.288  0.00  0.00     0.081 A 
HETATM    4  C   UNK N   1      35.845  10.711  18.616  0.00  0.00     0.085 A 
HETATM    5  C   UNK N   1      35.409  11.562  19.640  0.00  0.00     0.074 A 
HETATM    6  C   UNK N   1      35.057  12.884  19.362  0.00  0.00     0.071 A 
HETATM    7  C   UNK N   1      35.570  12.539  17.029  0.00  0.00     0.095 A 
HETATM    8  C   UNK N   1      35.138  13.370  18.062  0.00  0.00     0.075 A 
HETATM    9  O   UNK N   1      35.634  13.029  15.802  0.00  0.00    -0.309 OA
HETATM   10  C   UNK N   1      36.028  12.312  14.756  0.00  0.00     0.090 A 
HETATM   11  C   UNK N   1      36.404  10.973  14.923  0.00  0.00     0.094 A 
ENDROOT
BRANCH  10  12
HETATM   12  C   UNK N   1      36.044  12.968  13.441  0.00  0.00     0.003 A 
HETATM   13  C   UNK N   1      34.874  13.587  12.990  0.00  0.00     0.053 A 
HETATM   14  C   UNK N   1      34.831  14.211  11.749  0.00  0.00     0.102 A 
HETATM   15  C   UNK N   1      35.971  14.222  10.935  0.00  0.00     0.132 A 
HETATM   16  C   UNK N   1      37.151  13.603  11.377  0.00  0.00     0.102 A 
HETATM   17  C   UNK N   1      37.188  12.977  12.629  0.00  0.00     0.053 A 
BRANCH  14  18
HETATM   18  O   UNK N   1      33.694  14.799  11.341  0.00  0.00    -0.358 OA
HETATM   19  H   UNK N   1      33.568  14.998  10.433  0.00  0.00     0.217 HD
ENDBRANCH  14  18
BRANCH  15  20
HETATM   20  O   UNK N   1      35.931  14.823   9.732  0.00  0.00    -0.356 OA
HETATM   21  H   UNK N   1      35.990  14.309   8.950  0.00  0.00     0.218 HD
ENDBRANCH  15  20
BRANCH  16  22
HETATM   22  O   UNK N   1      38.249  13.608  10.603  0.00  0.00    -0.358 OA
HETATM   23  H   UNK N   1      38.983  14.141  10.834  0.00  0.00     0.217 HD
ENDBRANCH  16  22
ENDBRANCH  10  12
BRANCH   4  24
HETATM   24  O   UNK N   1      36.175   9.444  18.919  0.00  0.00    -0.360 OA
HETATM   25  H   UNK N   1      35.946   8.749  18.335  0.00  0.00     0.217 HD
ENDBRANCH   4  24
BRANCH   6  26
HETATM   26  O   UNK N   1      34.639  13.693  20.349  0.00  0.00    -0.361 OA
HETATM   27  H   UNK N   1      34.690  13.410  21.241  0.00  0.00     0.217 HD
ENDBRANCH   6  26
TORSDOF 6
ENDMDL
MODEL 9
REMARK VINA RESULT:      -6.6     13.155     17.187
REMARK  6 active torsions:
REMARK  status: ('A' for Active; 'I' for Inactive)
REMARK    1  A    between atoms: C_4  and  O_5 
REMARK    2  A    between atoms: C_7  and  O_8 
REMARK    3  A    between atoms: C_12  and  C_14 
REMARK    4  A    between atoms: C_16  and  O_17 
REMARK    5  A    between atoms: C_18  and  O_19 
REMARK    6  A    between atoms: C_20  and  O_22 
ROOT
HETATM    1  O   UNK N   1      31.863  16.769   5.146  0.00  0.00    -0.287 OA
HETATM    2  C   UNK N   1      31.789  16.643   6.354  0.00  0.00     0.190 A 
HETATM    3  C   UNK N   1      30.655  17.079   7.074  0.00  0.00     0.081 A 
HETATM    4  C   UNK N   1      29.533  17.689   6.463  0.00  0.00     0.085 A 
HETATM    5  C   UNK N   1      28.448  18.096   7.251  0.00  0.00     0.074 A 
HETATM    6  C   UNK N   1      28.465  17.905   8.634  0.00  0.00     0.071 A 
HETATM    7  C   UNK N   1      30.651  16.894   8.475  0.00  0.00     0.095 A 
HETATM    8  C   UNK N   1      29.562  17.306   9.243  0.00  0.00     0.075 A 
HETATM    9  O   UNK N   1      31.681  16.330   9.084  0.00  0.00    -0.309 OA
HETATM   10  C   UNK N   1      32.763  15.911   8.438  0.00  0.00     0.090 A 
HETATM   11  C   UNK N   1      32.850  16.055   7.047  0.00  0.00     0.094 A 
ENDROOT
BRANCH  10  12
HETATM   12  C   UNK N   1      33.846  15.311   9.228  0.00  0.00     0.003 A 
HETATM   13  C   UNK N   1      34.881  16.138   9.677  0.00  0.00     0.053 A 
HETATM   14  C   UNK N   1      35.937  15.620  10.418  0.00  0.00     0.102 A 
HETATM   15  C   UNK N   1      35.970  14.253  10.722  0.00  0.00     0.132 A 
HETATM   16  C   UNK N   1      34.937  13.414  10.277  0.00  0.00     0.102 A 
HETATM   17  C   UNK N   1      33.876  13.942   9.531  0.00  0.00     0.053 A 
BRANCH  14  18
HETATM   18  O   UNK N   1      36.918  16.437  10.837  0.00  0.00    -0.358 OA
HETATM   19  H   UNK N   1      37.254  17.099  10.264  0.00  0.00     0.217 HD
ENDBRANCH  14  18
BRANCH  15  20
HETATM   20  O   UNK N   1      36.992  13.749  11.436  0.00  0.00    -0.356 OA
HETATM   21  H   UNK N   1      37.732  13.378  10.997  0.00  0.00     0.218 HD
ENDBRANCH  15  20
BRANCH  16  22
HETATM   22  O   UNK N   1      34.959  12.101  10.563  0.00  0.00    -0.358 OA
HETATM   23  H   UNK N   1      34.212  11.694  10.954  0.00  0.00     0.217 HD
ENDBRANCH  16  22
ENDBRANCH  10  12
BRANCH   4  24
HETATM   24  O   UNK N   1      29.483  17.890   5.135  0.00  0.00    -0.360 OA
HETATM   25  H   UNK N   1      29.231  17.190   4.565  0.00  0.00     0.217 HD
ENDBRANCH   4  24
BRANCH   6  26
HETATM   26  O   UNK N   1      27.422  18.298   9.383  0.00  0.00    -0.361 OA
HETATM   27  H   UNK N   1      27.327  17.979  10.259  0.00  0.00     0.217 HD
ENDBRANCH   6  26
TORSDOF 6
ENDMDL
