REMARK  13 active torsions:
REMARK  status: ('A' for Active; 'I' for Inactive)
REMARK    1  A    between atoms: C_1  and  C_2 
REMARK    2  A    between atoms: C_1  and  O_16 
REMARK    3  A    between atoms: C_2  and  C_3 
REMARK    4  A    between atoms: C_3  and  C_4 
REMARK    5  A    between atoms: C_4  and  C_5 
REMARK    6  A    between atoms: C_5  and  C_6 
REMARK    7  A    between atoms: C_6  and  C_7 
REMARK    8  A    between atoms: C_7  and  C_8 
REMARK    9  A    between atoms: C_8  and  C_9 
REMARK   10  A    between atoms: C_9  and  C_10 
REMARK   11  A    between atoms: C_10  and  C_11 
REMARK   12  A    between atoms: C_11  and  C_12 
REMARK   13  A    between atoms: C_12  and  C_13 
ROOT
HETATM    1  C   UNK N   1       1.856  -0.877  -0.040  0.00  0.00     0.000 C 
ENDROOT
BRANCH   1   2
HETATM    2  C   UNK N   1       2.873  -1.980   0.184  0.00  0.00     0.000 C 
BRANCH   2   3
HETATM    3  C   UNK N   1       4.168  -1.387   0.701  0.00  0.00     0.001 C 
BRANCH   3   4
HETATM    4  C   UNK N   1       5.104  -1.090  -0.455  0.00  0.00     0.010 C 
BRANCH   4   5
HETATM    5  C   UNK N   1       6.121  -0.026  -0.059  0.00  0.00     0.110 C 
BRANCH   5   6
HETATM    6  C   UNK N   1       5.545   1.363  -0.055  0.00  0.00     0.139 C 
HETATM    7  O   UNK N   1       4.362   1.556  -0.292  0.00  0.00    -0.650 OA
BRANCH   6   8
HETATM    8  O   UNK N   1       6.349   2.411   0.204  0.00  0.00    -0.776 OA
HETATM    9  H   UNK N   1       7.260   2.291   0.384  0.00  0.00     0.167 HD
ENDBRANCH   6   8
ENDBRANCH   5   6
ENDBRANCH   4   5
ENDBRANCH   3   4
ENDBRANCH   2   3
ENDBRANCH   1   2
BRANCH   1  10
HETATM   10  C   UNK N   1       0.475  -1.491  -0.113  0.00  0.00     0.000 C 
BRANCH  10  11
HETATM   11  C   UNK N   1      -0.582  -0.407  -0.069  0.00  0.00     0.000 C 
BRANCH  11  12
HETATM   12  C   UNK N   1      -1.942  -1.070  -0.018  0.00  0.00     0.000 C 
BRANCH  12  13
HETATM   13  C   UNK N   1      -3.043  -0.031  -0.001  0.00  0.00     0.000 C 
BRANCH  13  14
HETATM   14  C   UNK N   1      -4.374  -0.754   0.010  0.00  0.00     0.000 C 
BRANCH  14  15
HETATM   15  C   UNK N   1      -5.516   0.237   0.003  0.00  0.00    -0.000 C 
BRANCH  15  16
HETATM   16  C   UNK N   1      -6.824  -0.528   0.001  0.00  0.00    -0.005 C 
HETATM   17  C   UNK N   1      -7.985   0.442  -0.001  0.00  0.00     0.005 C 
ENDBRANCH  15  16
ENDBRANCH  14  15
ENDBRANCH  13  14
ENDBRANCH  12  13
ENDBRANCH  11  12
ENDBRANCH  10  11
ENDBRANCH   1  10
TORSDOF 13
