MODEL 1
REMARK VINA RESULT:      -4.4      0.000      0.000
REMARK  13 active torsions:
REMARK  status: ('A' for Active; 'I' for Inactive)
REMARK    1  A    between atoms: C_1  and  C_2 
REMARK    2  A    between atoms: C_1  and  O_16 
REMARK    3  A    between atoms: C_2  and  C_3 
REMARK    4  A    between atoms: C_3  and  C_4 
REMARK    5  A    between atoms: C_4  and  C_5 
REMARK    6  A    between atoms: C_5  and  C_6 
REMARK    7  A    between atoms: C_6  and  C_7 
REMARK    8  A    between atoms: C_7  and  C_8 
REMARK    9  A    between atoms: C_8  and  C_9 
REMARK   10  A    between atoms: C_9  and  C_10 
REMARK   11  A    between atoms: C_10  and  C_11 
REMARK   12  A    between atoms: C_11  and  C_12 
REMARK   13  A    between atoms: C_12  and  C_13 
ROOT
HETATM    1  C   UNK N   1      27.268  24.862  -6.532  0.00  0.00     0.000 C 
ENDROOT
BRANCH   1   2
HETATM    2  C   UNK N   1      27.849  24.006  -5.422  0.00  0.00     0.000 C 
BRANCH   2   3
HETATM    3  C   UNK N   1      26.898  23.979  -4.243  0.00  0.00     0.001 C 
BRANCH   3   4
HETATM    4  C   UNK N   1      27.679  23.949  -2.943  0.00  0.00     0.010 C 
BRANCH   4   5
HETATM    5  C   UNK N   1      29.177  24.004  -3.219  0.00  0.00     0.110 C 
BRANCH   5   6
HETATM    6  C   UNK N   1      29.935  22.881  -2.565  0.00  0.00     0.139 C 
HETATM    7  O   UNK N   1      30.452  23.025  -1.467  0.00  0.00    -0.650 OA
BRANCH   6   8
HETATM    8  O   UNK N   1      30.054  21.703  -3.205  0.00  0.00    -0.776 OA
HETATM    9  H   UNK N   1      30.833  21.483  -3.675  0.00  0.00     0.167 HD
ENDBRANCH   6   8
ENDBRANCH   5   6
ENDBRANCH   4   5
ENDBRANCH   3   4
ENDBRANCH   2   3
ENDBRANCH   1   2
BRANCH   1  10
HETATM   10  C   UNK N   1      25.822  25.168  -6.208  0.00  0.00     0.000 C 
BRANCH  10  11
HETATM   11  C   UNK N   1      25.446  26.536  -6.740  0.00  0.00     0.000 C 
BRANCH  11  12
HETATM   12  C   UNK N   1      24.713  27.286  -5.648  0.00  0.00     0.000 C 
BRANCH  12  13
HETATM   13  C   UNK N   1      25.480  27.217  -4.344  0.00  0.00     0.000 C 
BRANCH  13  14
HETATM   14  C   UNK N   1      26.068  28.585  -4.070  0.00  0.00     0.000 C 
BRANCH  14  15
HETATM   15  C   UNK N   1      27.529  28.623  -4.460  0.00  0.00    -0.000 C 
BRANCH  15  16
HETATM   16  C   UNK N   1      27.710  29.638  -5.570  0.00  0.00    -0.005 C 
HETATM   17  C   UNK N   1      28.146  28.939  -6.839  0.00  0.00     0.005 C 
ENDBRANCH  15  16
ENDBRANCH  14  15
ENDBRANCH  13  14
ENDBRANCH  12  13
ENDBRANCH  11  12
ENDBRANCH  10  11
ENDBRANCH   1  10
TORSDOF 13
ENDMDL
MODEL 2
REMARK VINA RESULT:      -4.4      1.289      2.191
REMARK  13 active torsions:
REMARK  status: ('A' for Active; 'I' for Inactive)
REMARK    1  A    between atoms: C_1  and  C_2 
REMARK    2  A    between atoms: C_1  and  O_16 
REMARK    3  A    between atoms: C_2  and  C_3 
REMARK    4  A    between atoms: C_3  and  C_4 
REMARK    5  A    between atoms: C_4  and  C_5 
REMARK    6  A    between atoms: C_5  and  C_6 
REMARK    7  A    between atoms: C_6  and  C_7 
REMARK    8  A    between atoms: C_7  and  C_8 
REMARK    9  A    between atoms: C_8  and  C_9 
REMARK   10  A    between atoms: C_9  and  C_10 
REMARK   11  A    between atoms: C_10  and  C_11 
REMARK   12  A    between atoms: C_11  and  C_12 
REMARK   13  A    between atoms: C_12  and  C_13 
ROOT
HETATM    1  C   UNK N   1      26.234  24.742  -3.895  0.00  0.00     0.000 C 
ENDROOT
BRANCH   1   2
HETATM    2  C   UNK N   1      27.575  24.136  -3.529  0.00  0.00     0.000 C 
BRANCH   2   3
HETATM    3  C   UNK N   1      28.552  24.323  -4.672  0.00  0.00     0.001 C 
BRANCH   3   4
HETATM    4  C   UNK N   1      29.677  23.311  -4.569  0.00  0.00     0.010 C 
BRANCH   4   5
HETATM    5  C   UNK N   1      30.742  23.795  -3.591  0.00  0.00     0.110 C 
BRANCH   5   6
HETATM    6  C   UNK N   1      30.913  22.880  -2.410  0.00  0.00     0.139 C 
HETATM    7  O   UNK N   1      31.748  21.988  -2.418  0.00  0.00    -0.650 OA
BRANCH   6   8
HETATM    8  O   UNK N   1      30.125  23.040  -1.331  0.00  0.00    -0.776 OA
HETATM    9  H   UNK N   1      30.357  23.633  -0.644  0.00  0.00     0.167 HD
ENDBRANCH   6   8
ENDBRANCH   5   6
ENDBRANCH   4   5
ENDBRANCH   3   4
ENDBRANCH   2   3
ENDBRANCH   1   2
BRANCH   1  10
HETATM   10  C   UNK N   1      26.082  24.725  -5.400  0.00  0.00     0.000 C 
BRANCH  10  11
HETATM   11  C   UNK N   1      25.281  25.926  -5.858  0.00  0.00     0.000 C 
BRANCH  11  12
HETATM   12  C   UNK N   1      25.863  26.415  -7.167  0.00  0.00     0.000 C 
BRANCH  12  13
HETATM   13  C   UNK N   1      27.232  27.022  -6.950  0.00  0.00     0.000 C 
BRANCH  13  14
HETATM   14  C   UNK N   1      27.072  28.248  -6.074  0.00  0.00     0.000 C 
BRANCH  14  15
HETATM   15  C   UNK N   1      28.043  28.203  -4.916  0.00  0.00    -0.000 C 
BRANCH  15  16
HETATM   16  C   UNK N   1      27.257  28.202  -3.621  0.00  0.00    -0.005 C 
HETATM   17  C   UNK N   1      26.409  29.452  -3.535  0.00  0.00     0.005 C 
ENDBRANCH  15  16
ENDBRANCH  14  15
ENDBRANCH  13  14
ENDBRANCH  12  13
ENDBRANCH  11  12
ENDBRANCH  10  11
ENDBRANCH   1  10
TORSDOF 13
ENDMDL
MODEL 3
REMARK VINA RESULT:      -4.4     10.889     14.059
REMARK  13 active torsions:
REMARK  status: ('A' for Active; 'I' for Inactive)
REMARK    1  A    between atoms: C_1  and  C_2 
REMARK    2  A    between atoms: C_1  and  O_16 
REMARK    3  A    between atoms: C_2  and  C_3 
REMARK    4  A    between atoms: C_3  and  C_4 
REMARK    5  A    between atoms: C_4  and  C_5 
REMARK    6  A    between atoms: C_5  and  C_6 
REMARK    7  A    between atoms: C_6  and  C_7 
REMARK    8  A    between atoms: C_7  and  C_8 
REMARK    9  A    between atoms: C_8  and  C_9 
REMARK   10  A    between atoms: C_9  and  C_10 
REMARK   11  A    between atoms: C_10  and  C_11 
REMARK   12  A    between atoms: C_11  and  C_12 
REMARK   13  A    between atoms: C_12  and  C_13 
ROOT
HETATM    1  C   UNK N   1      28.873  17.367   8.400  0.00  0.00     0.000 C 
ENDROOT
BRANCH   1   2
HETATM    2  C   UNK N   1      30.266  17.267   8.993  0.00  0.00     0.000 C 
BRANCH   2   3
HETATM    3  C   UNK N   1      31.261  17.965   8.089  0.00  0.00     0.001 C 
BRANCH   3   4
HETATM    4  C   UNK N   1      32.435  17.050   7.800  0.00  0.00     0.010 C 
BRANCH   4   5
HETATM    5  C   UNK N   1      33.650  17.862   7.364  0.00  0.00     0.110 C 
BRANCH   5   6
HETATM    6  C   UNK N   1      34.556  18.221   8.510  0.00  0.00     0.139 C 
HETATM    7  O   UNK N   1      35.311  19.179   8.440  0.00  0.00    -0.650 OA
BRANCH   6   8
HETATM    8  O   UNK N   1      34.541  17.469   9.626  0.00  0.00    -0.776 OA
HETATM    9  H   UNK N   1      35.230  16.863   9.812  0.00  0.00     0.167 HD
ENDBRANCH   6   8
ENDBRANCH   5   6
ENDBRANCH   4   5
ENDBRANCH   3   4
ENDBRANCH   2   3
ENDBRANCH   1   2
BRANCH   1  10
HETATM   10  C   UNK N   1      28.528  18.827   8.202  0.00  0.00     0.000 C 
BRANCH  10  11
HETATM   11  C   UNK N   1      27.917  19.038   6.832  0.00  0.00     0.000 C 
BRANCH  11  12
HETATM   12  C   UNK N   1      27.146  20.341   6.851  0.00  0.00     0.000 C 
BRANCH  12  13
HETATM   13  C   UNK N   1      27.339  21.096   5.553  0.00  0.00     0.000 C 
BRANCH  13  14
HETATM   14  C   UNK N   1      27.553  20.084   4.446  0.00  0.00     0.000 C 
BRANCH  14  15
HETATM   15  C   UNK N   1      26.600  20.341   3.301  0.00  0.00    -0.000 C 
BRANCH  15  16
HETATM   16  C   UNK N   1      25.341  19.528   3.525  0.00  0.00    -0.005 C 
HETATM   17  C   UNK N   1      25.700  18.073   3.733  0.00  0.00     0.005 C 
ENDBRANCH  15  16
ENDBRANCH  14  15
ENDBRANCH  13  14
ENDBRANCH  12  13
ENDBRANCH  11  12
ENDBRANCH  10  11
ENDBRANCH   1  10
TORSDOF 13
ENDMDL
MODEL 4
REMARK VINA RESULT:      -4.3     12.374     14.402
REMARK  13 active torsions:
REMARK  status: ('A' for Active; 'I' for Inactive)
REMARK    1  A    between atoms: C_1  and  C_2 
REMARK    2  A    between atoms: C_1  and  O_16 
REMARK    3  A    between atoms: C_2  and  C_3 
REMARK    4  A    between atoms: C_3  and  C_4 
REMARK    5  A    between atoms: C_4  and  C_5 
REMARK    6  A    between atoms: C_5  and  C_6 
REMARK    7  A    between atoms: C_6  and  C_7 
REMARK    8  A    between atoms: C_7  and  C_8 
REMARK    9  A    between atoms: C_8  and  C_9 
REMARK   10  A    between atoms: C_9  and  C_10 
REMARK   11  A    between atoms: C_10  and  C_11 
REMARK   12  A    between atoms: C_11  and  C_12 
REMARK   13  A    between atoms: C_12  and  C_13 
ROOT
HETATM    1  C   UNK N   1      31.010  15.367   6.070  0.00  0.00     0.000 C 
ENDROOT
BRANCH   1   2
HETATM    2  C   UNK N   1      31.612  15.705   7.421  0.00  0.00     0.000 C 
BRANCH   2   3
HETATM    3  C   UNK N   1      30.859  16.864   8.043  0.00  0.00     0.001 C 
BRANCH   3   4
HETATM    4  C   UNK N   1      31.812  18.004   8.344  0.00  0.00     0.010 C 
BRANCH   4   5
HETATM    5  C   UNK N   1      33.219  17.473   8.593  0.00  0.00     0.110 C 
BRANCH   5   6
HETATM    6  C   UNK N   1      34.274  18.227   7.832  0.00  0.00     0.139 C 
HETATM    7  O   UNK N   1      34.974  19.062   8.385  0.00  0.00    -0.650 OA
BRANCH   6   8
HETATM    8  O   UNK N   1      34.442  17.985   6.519  0.00  0.00    -0.776 OA
HETATM    9  H   UNK N   1      34.865  18.607   5.961  0.00  0.00     0.167 HD
ENDBRANCH   6   8
ENDBRANCH   5   6
ENDBRANCH   4   5
ENDBRANCH   3   4
ENDBRANCH   2   3
ENDBRANCH   1   2
BRANCH   1  10
HETATM   10  C   UNK N   1      31.782  16.097   4.993  0.00  0.00     0.000 C 
BRANCH  10  11
HETATM   11  C   UNK N   1      30.951  17.232   4.431  0.00  0.00     0.000 C 
BRANCH  11  12
HETATM   12  C   UNK N   1      29.734  16.640   3.752  0.00  0.00     0.000 C 
BRANCH  12  13
HETATM   13  C   UNK N   1      28.492  17.435   4.091  0.00  0.00     0.000 C 
BRANCH  13  14
HETATM   14  C   UNK N   1      28.829  18.372   5.233  0.00  0.00     0.000 C 
BRANCH  14  15
HETATM   15  C   UNK N   1      27.686  18.437   6.221  0.00  0.00    -0.000 C 
BRANCH  15  16
HETATM   16  C   UNK N   1      27.858  19.671   7.083  0.00  0.00    -0.005 C 
HETATM   17  C   UNK N   1      27.342  20.887   6.345  0.00  0.00     0.005 C 
ENDBRANCH  15  16
ENDBRANCH  14  15
ENDBRANCH  13  14
ENDBRANCH  12  13
ENDBRANCH  11  12
ENDBRANCH  10  11
ENDBRANCH   1  10
TORSDOF 13
ENDMDL
MODEL 5
REMARK VINA RESULT:      -4.3      1.560      2.826
REMARK  13 active torsions:
REMARK  status: ('A' for Active; 'I' for Inactive)
REMARK    1  A    between atoms: C_1  and  C_2 
REMARK    2  A    between atoms: C_1  and  O_16 
REMARK    3  A    between atoms: C_2  and  C_3 
REMARK    4  A    between atoms: C_3  and  C_4 
REMARK    5  A    between atoms: C_4  and  C_5 
REMARK    6  A    between atoms: C_5  and  C_6 
REMARK    7  A    between atoms: C_6  and  C_7 
REMARK    8  A    between atoms: C_7  and  C_8 
REMARK    9  A    between atoms: C_8  and  C_9 
REMARK   10  A    between atoms: C_9  and  C_10 
REMARK   11  A    between atoms: C_10  and  C_11 
REMARK   12  A    between atoms: C_11  and  C_12 
REMARK   13  A    between atoms: C_12  and  C_13 
ROOT
HETATM    1  C   UNK N   1      28.409  25.515  -4.043  0.00  0.00     0.000 C 
ENDROOT
BRANCH   1   2
HETATM    2  C   UNK N   1      28.716  24.597  -5.211  0.00  0.00     0.000 C 
BRANCH   2   3
HETATM    3  C   UNK N   1      29.026  23.204  -4.702  0.00  0.00     0.001 C 
BRANCH   3   4
HETATM    4  C   UNK N   1      30.496  22.891  -4.902  0.00  0.00     0.010 C 
BRANCH   4   5
HETATM    5  C   UNK N   1      31.326  23.474  -3.764  0.00  0.00     0.110 C 
BRANCH   5   6
HETATM    6  C   UNK N   1      31.221  22.676  -2.494  0.00  0.00     0.139 C 
HETATM    7  O   UNK N   1      31.897  21.673  -2.322  0.00  0.00    -0.650 OA
BRANCH   6   8
HETATM    8  O   UNK N   1      30.361  23.068  -1.535  0.00  0.00    -0.776 OA
HETATM    9  H   UNK N   1      30.564  23.782  -0.964  0.00  0.00     0.167 HD
ENDBRANCH   6   8
ENDBRANCH   5   6
ENDBRANCH   4   5
ENDBRANCH   3   4
ENDBRANCH   2   3
ENDBRANCH   1   2
BRANCH   1  10
HETATM   10  C   UNK N   1      29.024  26.872  -4.311  0.00  0.00     0.000 C 
BRANCH  10  11
HETATM   11  C   UNK N   1      28.061  27.970  -3.910  0.00  0.00     0.000 C 
BRANCH  11  12
HETATM   12  C   UNK N   1      26.847  27.330  -3.272  0.00  0.00     0.000 C 
BRANCH  12  13
HETATM   13  C   UNK N   1      25.573  27.965  -3.789  0.00  0.00     0.000 C 
BRANCH  13  14
HETATM   14  C   UNK N   1      25.550  27.817  -5.296  0.00  0.00     0.000 C 
BRANCH  14  15
HETATM   15  C   UNK N   1      25.038  26.449  -5.687  0.00  0.00    -0.000 C 
BRANCH  15  16
HETATM   16  C   UNK N   1      25.752  26.005  -6.948  0.00  0.00    -0.005 C 
HETATM   17  C   UNK N   1      26.820  27.012  -7.314  0.00  0.00     0.005 C 
ENDBRANCH  15  16
ENDBRANCH  14  15
ENDBRANCH  13  14
ENDBRANCH  12  13
ENDBRANCH  11  12
ENDBRANCH  10  11
ENDBRANCH   1  10
TORSDOF 13
ENDMDL
MODEL 6
REMARK VINA RESULT:      -4.2     23.160     26.407
REMARK  13 active torsions:
REMARK  status: ('A' for Active; 'I' for Inactive)
REMARK    1  A    between atoms: C_1  and  C_2 
REMARK    2  A    between atoms: C_1  and  O_16 
REMARK    3  A    between atoms: C_2  and  C_3 
REMARK    4  A    between atoms: C_3  and  C_4 
REMARK    5  A    between atoms: C_4  and  C_5 
REMARK    6  A    between atoms: C_5  and  C_6 
REMARK    7  A    between atoms: C_6  and  C_7 
REMARK    8  A    between atoms: C_7  and  C_8 
REMARK    9  A    between atoms: C_8  and  C_9 
REMARK   10  A    between atoms: C_9  and  C_10 
REMARK   11  A    between atoms: C_10  and  C_11 
REMARK   12  A    between atoms: C_11  and  C_12 
REMARK   13  A    between atoms: C_12  and  C_13 
ROOT
HETATM    1  C   UNK N   1      35.455  13.674  17.396  0.00  0.00     0.000 C 
ENDROOT
BRANCH   1   2
HETATM    2  C   UNK N   1      36.435  14.831  17.348  0.00  0.00     0.000 C 
BRANCH   2   3
HETATM    3  C   UNK N   1      37.047  14.929  15.966  0.00  0.00     0.001 C 
BRANCH   3   4
HETATM    4  C   UNK N   1      36.849  13.626  15.214  0.00  0.00     0.010 C 
BRANCH   4   5
HETATM    5  C   UNK N   1      36.460  13.899  13.766  0.00  0.00     0.110 C 
BRANCH   5   6
HETATM    6  C   UNK N   1      35.066  13.442  13.437  0.00  0.00     0.139 C 
HETATM    7  O   UNK N   1      34.423  12.763  14.224  0.00  0.00    -0.650 OA
BRANCH   6   8
HETATM    8  O   UNK N   1      34.523  13.778  12.253  0.00  0.00    -0.776 OA
HETATM    9  H   UNK N   1      33.629  14.049  12.188  0.00  0.00     0.167 HD
ENDBRANCH   6   8
ENDBRANCH   5   6
ENDBRANCH   4   5
ENDBRANCH   3   4
ENDBRANCH   2   3
ENDBRANCH   1   2
BRANCH   1  10
HETATM   10  C   UNK N   1      35.133  13.364  18.842  0.00  0.00     0.000 C 
BRANCH  10  11
HETATM   11  C   UNK N   1      35.340  11.889  19.119  0.00  0.00     0.000 C 
BRANCH  11  12
HETATM   12  C   UNK N   1      35.753  11.216  17.828  0.00  0.00     0.000 C 
BRANCH  12  13
HETATM   13  C   UNK N   1      34.876  10.014  17.547  0.00  0.00     0.000 C 
BRANCH  13  14
HETATM   14  C   UNK N   1      34.707   9.894  16.046  0.00  0.00     0.000 C 
BRANCH  14  15
HETATM   15  C   UNK N   1      35.825   9.067  15.451  0.00  0.00    -0.000 C 
BRANCH  15  16
HETATM   16  C   UNK N   1      36.572   9.915  14.441  0.00  0.00    -0.005 C 
HETATM   17  C   UNK N   1      38.019  10.055  14.861  0.00  0.00     0.005 C 
ENDBRANCH  15  16
ENDBRANCH  14  15
ENDBRANCH  13  14
ENDBRANCH  12  13
ENDBRANCH  11  12
ENDBRANCH  10  11
ENDBRANCH   1  10
TORSDOF 13
ENDMDL
MODEL 7
REMARK VINA RESULT:      -4.2      1.287      2.256
REMARK  13 active torsions:
REMARK  status: ('A' for Active; 'I' for Inactive)
REMARK    1  A    between atoms: C_1  and  C_2 
REMARK    2  A    between atoms: C_1  and  O_16 
REMARK    3  A    between atoms: C_2  and  C_3 
REMARK    4  A    between atoms: C_3  and  C_4 
REMARK    5  A    between atoms: C_4  and  C_5 
REMARK    6  A    between atoms: C_5  and  C_6 
REMARK    7  A    between atoms: C_6  and  C_7 
REMARK    8  A    between atoms: C_7  and  C_8 
REMARK    9  A    between atoms: C_8  and  C_9 
REMARK   10  A    between atoms: C_9  and  C_10 
REMARK   11  A    between atoms: C_10  and  C_11 
REMARK   12  A    between atoms: C_11  and  C_12 
REMARK   13  A    between atoms: C_12  and  C_13 
ROOT
HETATM    1  C   UNK N   1      26.321  25.514  -4.294  0.00  0.00     0.000 C 
ENDROOT
BRANCH   1   2
HETATM    2  C   UNK N   1      26.626  24.284  -5.128  0.00  0.00     0.000 C 
BRANCH   2   3
HETATM    3  C   UNK N   1      28.054  23.841  -4.886  0.00  0.00     0.001 C 
BRANCH   3   4
HETATM    4  C   UNK N   1      28.485  24.212  -3.480  0.00  0.00     0.010 C 
BRANCH   4   5
HETATM    5  C   UNK N   1      29.992  24.432  -3.423  0.00  0.00     0.110 C 
BRANCH   5   6
HETATM    6  C   UNK N   1      30.721  23.320  -2.720  0.00  0.00     0.139 C 
HETATM    7  O   UNK N   1      31.578  22.666  -3.294  0.00  0.00    -0.650 OA
BRANCH   6   8
HETATM    8  O   UNK N   1      30.415  23.036  -1.440  0.00  0.00    -0.776 OA
HETATM    9  H   UNK N   1      30.853  22.349  -0.978  0.00  0.00     0.167 HD
ENDBRANCH   6   8
ENDBRANCH   5   6
ENDBRANCH   4   5
ENDBRANCH   3   4
ENDBRANCH   2   3
ENDBRANCH   1   2
BRANCH   1  10
HETATM   10  C   UNK N   1      25.407  26.427  -5.082  0.00  0.00     0.000 C 
BRANCH  10  11
HETATM   11  C   UNK N   1      25.449  27.829  -4.511  0.00  0.00     0.000 C 
BRANCH  11  12
HETATM   12  C   UNK N   1      26.898  28.228  -4.335  0.00  0.00     0.000 C 
BRANCH  12  13
HETATM   13  C   UNK N   1      27.245  29.393  -5.237  0.00  0.00     0.000 C 
BRANCH  13  14
HETATM   14  C   UNK N   1      27.905  28.844  -6.484  0.00  0.00     0.000 C 
BRANCH  14  15
HETATM   15  C   UNK N   1      28.767  27.649  -6.146  0.00  0.00    -0.000 C 
BRANCH  15  16
HETATM   16  C   UNK N   1      28.653  26.635  -7.266  0.00  0.00    -0.005 C 
HETATM   17  C   UNK N   1      27.450  26.953  -8.126  0.00  0.00     0.005 C 
ENDBRANCH  15  16
ENDBRANCH  14  15
ENDBRANCH  13  14
ENDBRANCH  12  13
ENDBRANCH  11  12
ENDBRANCH  10  11
ENDBRANCH   1  10
TORSDOF 13
ENDMDL
MODEL 8
REMARK VINA RESULT:      -4.1     19.570     23.896
REMARK  13 active torsions:
REMARK  status: ('A' for Active; 'I' for Inactive)
REMARK    1  A    between atoms: C_1  and  C_2 
REMARK    2  A    between atoms: C_1  and  O_16 
REMARK    3  A    between atoms: C_2  and  C_3 
REMARK    4  A    between atoms: C_3  and  C_4 
REMARK    5  A    between atoms: C_4  and  C_5 
REMARK    6  A    between atoms: C_5  and  C_6 
REMARK    7  A    between atoms: C_6  and  C_7 
REMARK    8  A    between atoms: C_7  and  C_8 
REMARK    9  A    between atoms: C_8  and  C_9 
REMARK   10  A    between atoms: C_9  and  C_10 
REMARK   11  A    between atoms: C_10  and  C_11 
REMARK   12  A    between atoms: C_11  and  C_12 
REMARK   13  A    between atoms: C_12  and  C_13 
ROOT
HETATM    1  C   UNK N   1      35.916  11.451  11.679  0.00  0.00     0.000 C 
ENDROOT
BRANCH   1   2
HETATM    2  C   UNK N   1      36.568  12.821  11.688  0.00  0.00     0.000 C 
BRANCH   2   3
HETATM    3  C   UNK N   1      36.022  13.642  12.839  0.00  0.00     0.001 C 
BRANCH   3   4
HETATM    4  C   UNK N   1      35.905  15.098  12.431  0.00  0.00     0.010 C 
BRANCH   4   5
HETATM    5  C   UNK N   1      35.892  15.229  10.913  0.00  0.00     0.110 C 
BRANCH   5   6
HETATM    6  C   UNK N   1      35.132  16.435  10.434  0.00  0.00     0.139 C 
HETATM    7  O   UNK N   1      35.674  17.526  10.341  0.00  0.00    -0.650 OA
BRANCH   6   8
HETATM    8  O   UNK N   1      33.831  16.311  10.113  0.00  0.00    -0.776 OA
HETATM    9  H   UNK N   1      33.566  16.042   9.256  0.00  0.00     0.167 HD
ENDBRANCH   6   8
ENDBRANCH   5   6
ENDBRANCH   4   5
ENDBRANCH   3   4
ENDBRANCH   2   3
ENDBRANCH   1   2
BRANCH   1  10
HETATM   10  C   UNK N   1      36.342  10.697  12.919  0.00  0.00     0.000 C 
BRANCH  10  11
HETATM   11  C   UNK N   1      35.263   9.718  13.333  0.00  0.00     0.000 C 
BRANCH  11  12
HETATM   12  C   UNK N   1      33.949  10.465  13.416  0.00  0.00     0.000 C 
BRANCH  12  13
HETATM   13  C   UNK N   1      33.833  11.197  14.736  0.00  0.00     0.000 C 
BRANCH  13  14
HETATM   14  C   UNK N   1      34.431  10.320  15.816  0.00  0.00     0.000 C 
BRANCH  14  15
HETATM   15  C   UNK N   1      35.192  11.158  16.818  0.00  0.00    -0.000 C 
BRANCH  15  16
HETATM   16  C   UNK N   1      35.161  12.604  16.366  0.00  0.00    -0.005 C 
HETATM   17  C   UNK N   1      35.140  13.518  17.572  0.00  0.00     0.005 C 
ENDBRANCH  15  16
ENDBRANCH  14  15
ENDBRANCH  13  14
ENDBRANCH  12  13
ENDBRANCH  11  12
ENDBRANCH  10  11
ENDBRANCH   1  10
TORSDOF 13
ENDMDL
MODEL 9
REMARK VINA RESULT:      -4.1     21.018     25.186
REMARK  13 active torsions:
REMARK  status: ('A' for Active; 'I' for Inactive)
REMARK    1  A    between atoms: C_1  and  C_2 
REMARK    2  A    between atoms: C_1  and  O_16 
REMARK    3  A    between atoms: C_2  and  C_3 
REMARK    4  A    between atoms: C_3  and  C_4 
REMARK    5  A    between atoms: C_4  and  C_5 
REMARK    6  A    between atoms: C_5  and  C_6 
REMARK    7  A    between atoms: C_6  and  C_7 
REMARK    8  A    between atoms: C_7  and  C_8 
REMARK    9  A    between atoms: C_8  and  C_9 
REMARK   10  A    between atoms: C_9  and  C_10 
REMARK   11  A    between atoms: C_10  and  C_11 
REMARK   12  A    between atoms: C_11  and  C_12 
REMARK   13  A    between atoms: C_12  and  C_13 
ROOT
HETATM    1  C   UNK N   1      34.998  13.107  16.156  0.00  0.00     0.000 C 
ENDROOT
BRANCH   1   2
HETATM    2  C   UNK N   1      36.311  13.752  15.756  0.00  0.00     0.000 C 
BRANCH   2   3
HETATM    3  C   UNK N   1      36.361  13.927  14.252  0.00  0.00     0.001 C 
BRANCH   3   4
HETATM    4  C   UNK N   1      35.147  13.282  13.611  0.00  0.00     0.010 C 
BRANCH   4   5
HETATM    5  C   UNK N   1      35.236  13.366  12.092  0.00  0.00     0.110 C 
BRANCH   5   6
HETATM    6  C   UNK N   1      34.739  14.677  11.548  0.00  0.00     0.139 C 
HETATM    7  O   UNK N   1      35.502  15.613  11.362  0.00  0.00    -0.650 OA
BRANCH   6   8
HETATM    8  O   UNK N   1      33.430  14.823  11.270  0.00  0.00    -0.776 OA
HETATM    9  H   UNK N   1      33.145  15.195  10.460  0.00  0.00     0.167 HD
ENDBRANCH   6   8
ENDBRANCH   5   6
ENDBRANCH   4   5
ENDBRANCH   3   4
ENDBRANCH   2   3
ENDBRANCH   1   2
BRANCH   1  10
HETATM   10  C   UNK N   1      35.216  12.286  17.408  0.00  0.00     0.000 C 
BRANCH  10  11
HETATM   11  C   UNK N   1      35.654  10.882  17.043  0.00  0.00     0.000 C 
BRANCH  11  12
HETATM   12  C   UNK N   1      34.491  10.179  16.375  0.00  0.00     0.000 C 
BRANCH  12  13
HETATM   13  C   UNK N   1      34.959   9.413  15.156  0.00  0.00     0.000 C 
BRANCH  13  14
HETATM   14  C   UNK N   1      36.392   9.810  14.870  0.00  0.00     0.000 C 
BRANCH  14  15
HETATM   15  C   UNK N   1      36.677   9.738  13.386  0.00  0.00    -0.000 C 
BRANCH  15  16
HETATM   16  C   UNK N   1      37.806  10.695  13.061  0.00  0.00    -0.005 C 
HETATM   17  C   UNK N   1      38.560  11.047  14.324  0.00  0.00     0.005 C 
ENDBRANCH  15  16
ENDBRANCH  14  15
ENDBRANCH  13  14
ENDBRANCH  12  13
ENDBRANCH  11  12
ENDBRANCH  10  11
ENDBRANCH   1  10
TORSDOF 13
ENDMDL
