REMARK  8 active torsions:
REMARK  status: ('A' for Active; 'I' for Inactive)
REMARK    1  A    between atoms: C_1  and  N_8 
REMARK    2  A    between atoms: C_11  and  C_12 
REMARK    3  A    between atoms: C_14  and  C_15 
REMARK    4  A    between atoms: C_15  and  C_16 
REMARK    5  A    between atoms: C_16  and  O_17 
REMARK    6  A    between atoms: C_20  and  C_23 
REMARK    7  A    between atoms: C_21  and  O_22 
REMARK    8  A    between atoms: C_27  and  N_28 
ROOT
HETATM    1  C   UNK N   1       0.385  -1.151  -0.403  0.00  0.00     0.025 A 
HETATM    2  C   UNK N   1      -0.338  -2.328  -0.625  0.00  0.00     0.024 A 
HETATM    3  C   UNK N   1      -1.745  -2.309  -0.613  0.00  0.00    -0.046 A 
HETATM    4  C   UNK N   1      -2.431  -1.104  -0.375  0.00  0.00     0.022 A 
HETATM    5  C   UNK N   1      -1.724   0.090  -0.147  0.00  0.00     0.009 A 
HETATM    6  C   UNK N   1      -0.311   0.049  -0.161  0.00  0.00     0.089 A 
ENDROOT
BRANCH   1   7
HETATM    7  C   UNK N   1       1.873  -1.129  -0.387  0.00  0.00     0.048 A 
HETATM    8  N   UNK N   1       2.677  -2.194  -0.121  0.00  0.00    -0.354 N 
HETATM    9  C   UNK N   1       3.917  -1.668  -0.028  0.00  0.00     0.059 A 
HETATM   10  H   UNK N   1       2.413  -3.137  -0.018  0.00  0.00     0.166 HD
HETATM   11  C   UNK N   1       5.106  -2.303   0.313  0.00  0.00     0.035 A 
HETATM   12  C   UNK N   1       3.894  -0.329  -0.259  0.00  0.00     0.062 A 
HETATM   13  C   UNK N   1       6.263  -1.498   0.410  0.00  0.00     0.050 A 
HETATM   14  C   UNK N   1       6.182  -0.106   0.154  0.00  0.00     0.099 A 
HETATM   15  N   UNK N   1       4.988   0.460  -0.179  0.00  0.00    -0.341 N 
ATOM     16  HN  UNK N   1       4.922   1.460  -0.366  1.00  0.00     0.167 HD
HETATM   17  C   UNK N   1       2.620   0.046  -0.494  0.00  0.00     0.062 A 
BRANCH  14  18
HETATM   18  N   UNK N   1       7.328   0.704   0.269  0.00  0.00    -0.385 N 
HETATM   19  H   UNK N   1       8.219   0.293   0.348  0.00  0.00     0.157 HD
HETATM   20  H   UNK N   1       7.237   1.684   0.269  0.00  0.00     0.157 HD
ENDBRANCH  14  18
ENDBRANCH   1   7
BRANCH   6  21
HETATM   21  O   UNK N   1       0.391   1.167   0.095  0.00  0.00    -0.359 OA
HETATM   22  H   UNK N   1       1.311   1.133   0.273  0.00  0.00     0.217 HD
ENDBRANCH   6  21
BRANCH   3  23
HETATM   23  C   UNK N   1      -2.530  -3.542  -0.950  0.00  0.00     0.148 C 
BRANCH  23  24
HETATM   24  C   UNK N   1      -2.114  -4.750  -0.168  0.00  0.00     0.143 C 
HETATM   25  O   UNK N   1      -2.902  -5.285   0.592  0.00  0.00    -0.650 OA
BRANCH  24  26
HETATM   26  O   UNK N   1      -0.891  -5.283  -0.351  0.00  0.00    -0.776 OA
HETATM   27  H   UNK N   1      -0.786  -6.205  -0.477  0.00  0.00     0.167 HD
ENDBRANCH  24  26
ENDBRANCH  23  24
ENDBRANCH   3  23
BRANCH   5  28
HETATM   28  C   UNK N   1      -2.441   1.395   0.060  0.00  0.00    -0.021 A 
HETATM   29  C   UNK N   1      -3.838   1.489   0.140  0.00  0.00     0.012 A 
HETATM   30  C   UNK N   1      -4.450   2.749   0.276  0.00  0.00     0.003 A 
HETATM   31  C   UNK N   1      -3.674   3.920   0.312  0.00  0.00     0.036 A 
HETATM   32  C   UNK N   1      -2.279   3.833   0.229  0.00  0.00     0.103 A 
HETATM   33  C   UNK N   1      -1.699   2.582   0.111  0.00  0.00     0.048 A 
BRANCH  32  34
HETATM   34  N   UNK N   1      -1.451   4.992   0.233  0.00  0.00    -0.116 N 
HETATM   35  O   UNK N   1      -1.985   6.193   0.256  0.00  0.00    -0.532 OA
HETATM   36  O   UNK N   1      -0.261   4.881   0.174  0.00  0.00    -0.532 OA
ENDBRANCH  32  34
ENDBRANCH   5  28
TORSDOF 8
