MODEL 1
REMARK VINA RESULT:      -8.2      0.000      0.000
REMARK  8 active torsions:
REMARK  status: ('A' for Active; 'I' for Inactive)
REMARK    1  A    between atoms: C_1  and  N_8 
REMARK    2  A    between atoms: C_11  and  C_12 
REMARK    3  A    between atoms: C_14  and  C_15 
REMARK    4  A    between atoms: C_15  and  C_16 
REMARK    5  A    between atoms: C_16  and  O_17 
REMARK    6  A    between atoms: C_20  and  C_23 
REMARK    7  A    between atoms: C_21  and  O_22 
REMARK    8  A    between atoms: C_27  and  N_28 
ROOT
HETATM    1  C   UNK N   1      23.970  18.342   4.045  0.00  0.00     0.025 A 
HETATM    2  C   UNK N   1      23.293  19.272   3.248  0.00  0.00     0.024 A 
HETATM    3  C   UNK N   1      21.934  19.549   3.482  0.00  0.00    -0.046 A 
HETATM    4  C   UNK N   1      21.248  18.889   4.518  0.00  0.00     0.022 A 
HETATM    5  C   UNK N   1      21.908  17.949   5.328  0.00  0.00     0.009 A 
HETATM    6  C   UNK N   1      23.274  17.683   5.076  0.00  0.00     0.089 A 
ENDROOT
BRANCH   1   7
HETATM    7  C   UNK N   1      25.402  18.004   3.821  0.00  0.00     0.048 A 
HETATM    8  N   UNK N   1      25.868  16.831   3.313  0.00  0.00    -0.354 N 
HETATM    9  C   UNK N   1      27.206  16.900   3.473  0.00  0.00     0.059 A 
HETATM   10  H   UNK N   1      25.345  16.096   2.919  0.00  0.00     0.166 HD
HETATM   11  C   UNK N   1      28.164  15.929   3.200  0.00  0.00     0.035 A 
HETATM   12  C   UNK N   1      27.568  18.085   4.030  0.00  0.00     0.062 A 
HETATM   13  C   UNK N   1      29.504  16.233   3.531  0.00  0.00     0.050 A 
HETATM   14  C   UNK N   1      29.825  17.488   4.107  0.00  0.00     0.099 A 
HETATM   15  N   UNK N   1      28.842  18.401   4.349  0.00  0.00    -0.341 N 
ATOM     16  HN  UNK N   1      29.065  19.306   4.762  1.00  0.00     0.167 HD
HETATM   17  C   UNK N   1      26.454  18.811   4.260  0.00  0.00     0.062 A 
BRANCH  14  18
HETATM   18  N   UNK N   1      31.155  17.788   4.458  0.00  0.00    -0.385 N 
HETATM   19  H   UNK N   1      31.897  17.499   3.879  0.00  0.00     0.157 HD
HETATM   20  H   UNK N   1      31.342  18.290   5.284  0.00  0.00     0.157 HD
ENDBRANCH  14  18
ENDBRANCH   1   7
BRANCH   6  21
HETATM   21  O   UNK N   1      23.919  16.759   5.809  0.00  0.00    -0.359 OA
HETATM   22  H   UNK N   1      23.452  16.082   6.259  0.00  0.00     0.217 HD
ENDBRANCH   6  21
BRANCH   3  23
HETATM   23  C   UNK N   1      21.225  20.617   2.702  0.00  0.00     0.148 C 
BRANCH  23  24
HETATM   24  C   UNK N   1      20.909  20.220   1.292  0.00  0.00     0.143 C 
HETATM   25  O   UNK N   1      21.316  20.894   0.363  0.00  0.00    -0.650 OA
BRANCH  24  26
HETATM   26  O   UNK N   1      20.228  19.084   1.049  0.00  0.00    -0.776 OA
HETATM   27  H   UNK N   1      20.675  18.263   0.986  0.00  0.00     0.167 HD
ENDBRANCH  24  26
ENDBRANCH  23  24
ENDBRANCH   3  23
BRANCH   5  28
HETATM   28  C   UNK N   1      21.204  17.271   6.471  0.00  0.00    -0.021 A 
HETATM   29  C   UNK N   1      21.022  15.882   6.533  0.00  0.00     0.012 A 
HETATM   30  C   UNK N   1      20.303  15.315   7.601  0.00  0.00     0.003 A 
HETATM   31  C   UNK N   1      19.744  16.132   8.599  0.00  0.00     0.036 A 
HETATM   32  C   UNK N   1      19.919  17.520   8.541  0.00  0.00     0.103 A 
HETATM   33  C   UNK N   1      20.644  18.053   7.489  0.00  0.00     0.048 A 
BRANCH  32  34
HETATM   34  N   UNK N   1      19.349  18.392   9.512  0.00  0.00    -0.116 N 
HETATM   35  O   UNK N   1      18.135  18.179   9.968  0.00  0.00    -0.532 OA
HETATM   36  O   UNK N   1      19.958  19.350   9.891  0.00  0.00    -0.532 OA
ENDBRANCH  32  34
ENDBRANCH   5  28
TORSDOF 8
ENDMDL
MODEL 2
REMARK VINA RESULT:      -7.6     12.849     13.959
REMARK  8 active torsions:
REMARK  status: ('A' for Active; 'I' for Inactive)
REMARK    1  A    between atoms: C_1  and  N_8 
REMARK    2  A    between atoms: C_11  and  C_12 
REMARK    3  A    between atoms: C_14  and  C_15 
REMARK    4  A    between atoms: C_15  and  C_16 
REMARK    5  A    between atoms: C_16  and  O_17 
REMARK    6  A    between atoms: C_20  and  C_23 
REMARK    7  A    between atoms: C_21  and  O_22 
REMARK    8  A    between atoms: C_27  and  N_28 
ROOT
HETATM    1  C   UNK N   1      28.894  22.847  -6.112  0.00  0.00     0.025 A 
HETATM    2  C   UNK N   1      28.041  22.187  -7.003  0.00  0.00     0.024 A 
HETATM    3  C   UNK N   1      27.008  22.892  -7.649  0.00  0.00    -0.046 A 
HETATM    4  C   UNK N   1      26.828  24.264  -7.400  0.00  0.00     0.022 A 
HETATM    5  C   UNK N   1      27.673  24.947  -6.506  0.00  0.00     0.009 A 
HETATM    6  C   UNK N   1      28.703  24.221  -5.866  0.00  0.00     0.089 A 
ENDROOT
BRANCH   1   7
HETATM    7  C   UNK N   1      29.986  22.138  -5.392  0.00  0.00     0.048 A 
HETATM    8  N   UNK N   1      30.331  22.330  -4.090  0.00  0.00    -0.354 N 
HETATM    9  C   UNK N   1      31.474  21.630  -3.934  0.00  0.00     0.059 A 
HETATM   10  H   UNK N   1      29.853  22.862  -3.413  0.00  0.00     0.166 HD
HETATM   11  C   UNK N   1      32.299  21.551  -2.818  0.00  0.00     0.035 A 
HETATM   12  C   UNK N   1      31.816  20.997  -5.088  0.00  0.00     0.062 A 
HETATM   13  C   UNK N   1      33.488  20.798  -2.945  0.00  0.00     0.050 A 
HETATM   14  C   UNK N   1      33.792  20.155  -4.171  0.00  0.00     0.099 A 
HETATM   15  N   UNK N   1      32.943  20.266  -5.231  0.00  0.00    -0.341 N 
ATOM     16  HN  UNK N   1      33.154  19.805  -6.116  1.00  0.00     0.167 HD
HETATM   17  C   UNK N   1      30.896  21.291  -6.029  0.00  0.00     0.062 A 
BRANCH  14  18
HETATM   18  N   UNK N   1      34.985  19.420  -4.309  0.00  0.00    -0.385 N 
HETATM   19  H   UNK N   1      34.960  18.437  -4.348  0.00  0.00     0.157 HD
HETATM   20  H   UNK N   1      35.847  19.892  -4.369  0.00  0.00     0.157 HD
ENDBRANCH  14  18
ENDBRANCH   1   7
BRANCH   6  21
HETATM   21  O   UNK N   1      29.500  24.838  -4.976  0.00  0.00    -0.359 OA
HETATM   22  H   UNK N   1      29.166  25.145  -4.155  0.00  0.00     0.217 HD
ENDBRANCH   6  21
BRANCH   3  23
HETATM   23  C   UNK N   1      26.152  22.219  -8.681  0.00  0.00     0.148 C 
BRANCH  23  24
HETATM   24  C   UNK N   1      25.017  21.433  -8.099  0.00  0.00     0.143 C 
HETATM   25  O   UNK N   1      25.213  20.314  -7.659  0.00  0.00    -0.650 OA
BRANCH  24  26
HETATM   26  O   UNK N   1      23.793  21.986  -8.005  0.00  0.00    -0.776 OA
HETATM   27  H   UNK N   1      23.062  21.481  -7.710  0.00  0.00     0.167 HD
ENDBRANCH  24  26
ENDBRANCH  23  24
ENDBRANCH   3  23
BRANCH   5  28
HETATM   28  C   UNK N   1      27.527  26.424  -6.266  0.00  0.00    -0.021 A 
HETATM   29  C   UNK N   1      28.064  27.390  -7.128  0.00  0.00     0.012 A 
HETATM   30  C   UNK N   1      27.942  28.756  -6.814  0.00  0.00     0.003 A 
HETATM   31  C   UNK N   1      27.302  29.163  -5.631  0.00  0.00     0.036 A 
HETATM   32  C   UNK N   1      26.766  28.203  -4.765  0.00  0.00     0.103 A 
HETATM   33  C   UNK N   1      26.885  26.866  -5.102  0.00  0.00     0.048 A 
BRANCH  32  34
HETATM   34  N   UNK N   1      26.133  28.563  -3.541  0.00  0.00    -0.116 N 
HETATM   35  O   UNK N   1      26.317  29.757  -3.021  0.00  0.00    -0.532 OA
HETATM   36  O   UNK N   1      25.460  27.766  -2.954  0.00  0.00    -0.532 OA
ENDBRANCH  32  34
ENDBRANCH   5  28
TORSDOF 8
ENDMDL
MODEL 3
REMARK VINA RESULT:      -7.6      3.971      7.502
REMARK  8 active torsions:
REMARK  status: ('A' for Active; 'I' for Inactive)
REMARK    1  A    between atoms: C_1  and  N_8 
REMARK    2  A    between atoms: C_11  and  C_12 
REMARK    3  A    between atoms: C_14  and  C_15 
REMARK    4  A    between atoms: C_15  and  C_16 
REMARK    5  A    between atoms: C_16  and  O_17 
REMARK    6  A    between atoms: C_20  and  C_23 
REMARK    7  A    between atoms: C_21  and  O_22 
REMARK    8  A    between atoms: C_27  and  N_28 
ROOT
HETATM    1  C   UNK N   1      29.877  17.249   5.693  0.00  0.00     0.025 A 
HETATM    2  C   UNK N   1      29.887  17.525   7.065  0.00  0.00     0.024 A 
HETATM    3  C   UNK N   1      28.902  18.358   7.628  0.00  0.00    -0.046 A 
HETATM    4  C   UNK N   1      27.904  18.919   6.811  0.00  0.00     0.022 A 
HETATM    5  C   UNK N   1      27.877  18.658   5.429  0.00  0.00     0.009 A 
HETATM    6  C   UNK N   1      28.877  17.820   4.883  0.00  0.00     0.089 A 
ENDROOT
BRANCH   1   7
HETATM    7  C   UNK N   1      30.910  16.390   5.053  0.00  0.00     0.048 A 
HETATM    8  N   UNK N   1      31.949  16.834   4.294  0.00  0.00    -0.354 N 
HETATM    9  C   UNK N   1      32.494  15.713   3.776  0.00  0.00     0.059 A 
HETATM   10  H   UNK N   1      32.237  17.765   4.154  0.00  0.00     0.166 HD
HETATM   11  C   UNK N   1      33.535  15.597   2.861  0.00  0.00     0.035 A 
HETATM   12  C   UNK N   1      31.841  14.607   4.220  0.00  0.00     0.062 A 
HETATM   13  C   UNK N   1      33.866  14.295   2.422  0.00  0.00     0.050 A 
HETATM   14  C   UNK N   1      33.154  13.176   2.922  0.00  0.00     0.099 A 
HETATM   15  N   UNK N   1      32.144  13.352   3.820  0.00  0.00    -0.341 N 
ATOM     16  HN  UNK N   1      31.629  12.552   4.185  1.00  0.00     0.167 HD
HETATM   17  C   UNK N   1      30.838  14.996   5.032  0.00  0.00     0.062 A 
BRANCH  14  18
HETATM   18  N   UNK N   1      33.466  11.879   2.472  0.00  0.00    -0.385 N 
HETATM   19  H   UNK N   1      33.261  11.612   1.547  0.00  0.00     0.157 HD
HETATM   20  H   UNK N   1      33.893  11.237   3.085  0.00  0.00     0.157 HD
ENDBRANCH  14  18
ENDBRANCH   1   7
BRANCH   6  21
HETATM   21  O   UNK N   1      28.900  17.586   3.559  0.00  0.00    -0.359 OA
HETATM   22  H   UNK N   1      29.090  18.271   2.948  0.00  0.00     0.217 HD
ENDBRANCH   6  21
BRANCH   3  23
HETATM   23  C   UNK N   1      28.842  18.578   9.110  0.00  0.00     0.148 C 
BRANCH  23  24
HETATM   24  C   UNK N   1      28.634  17.319   9.895  0.00  0.00     0.143 C 
HETATM   25  O   UNK N   1      27.578  16.717   9.812  0.00  0.00    -0.650 OA
BRANCH  24  26
HETATM   26  O   UNK N   1      29.634  16.819  10.644  0.00  0.00    -0.776 OA
HETATM   27  H   UNK N   1      30.308  17.378  10.977  0.00  0.00     0.167 HD
ENDBRANCH  24  26
ENDBRANCH  23  24
ENDBRANCH   3  23
BRANCH   5  28
HETATM   28  C   UNK N   1      26.790  19.210   4.551  0.00  0.00    -0.021 A 
HETATM   29  C   UNK N   1      27.017  20.222   3.607  0.00  0.00     0.012 A 
HETATM   30  C   UNK N   1      25.943  20.736   2.857  0.00  0.00     0.003 A 
HETATM   31  C   UNK N   1      24.637  20.257   3.058  0.00  0.00     0.036 A 
HETATM   32  C   UNK N   1      24.403  19.249   4.001  0.00  0.00     0.103 A 
HETATM   33  C   UNK N   1      25.477  18.749   4.716  0.00  0.00     0.048 A 
BRANCH  32  34
HETATM   34  N   UNK N   1      23.095  18.751   4.261  0.00  0.00    -0.116 N 
HETATM   35  O   UNK N   1      22.125  18.938   3.393  0.00  0.00    -0.532 OA
HETATM   36  O   UNK N   1      22.858  18.191   5.292  0.00  0.00    -0.532 OA
ENDBRANCH  32  34
ENDBRANCH   5  28
TORSDOF 8
ENDMDL
MODEL 4
REMARK VINA RESULT:      -7.6     12.727     14.851
REMARK  8 active torsions:
REMARK  status: ('A' for Active; 'I' for Inactive)
REMARK    1  A    between atoms: C_1  and  N_8 
REMARK    2  A    between atoms: C_11  and  C_12 
REMARK    3  A    between atoms: C_14  and  C_15 
REMARK    4  A    between atoms: C_15  and  C_16 
REMARK    5  A    between atoms: C_16  and  O_17 
REMARK    6  A    between atoms: C_20  and  C_23 
REMARK    7  A    between atoms: C_21  and  O_22 
REMARK    8  A    between atoms: C_27  and  N_28 
ROOT
HETATM    1  C   UNK N   1      27.562  24.454  -6.648  0.00  0.00     0.025 A 
HETATM    2  C   UNK N   1      26.634  23.735  -7.408  0.00  0.00     0.024 A 
HETATM    3  C   UNK N   1      26.852  22.374  -7.692  0.00  0.00    -0.046 A 
HETATM    4  C   UNK N   1      28.007  21.731  -7.212  0.00  0.00     0.022 A 
HETATM    5  C   UNK N   1      28.955  22.435  -6.448  0.00  0.00     0.009 A 
HETATM    6  C   UNK N   1      28.718  23.802  -6.176  0.00  0.00     0.089 A 
ENDROOT
BRANCH   1   7
HETATM    7  C   UNK N   1      27.382  25.899  -6.341  0.00  0.00     0.048 A 
HETATM    8  N   UNK N   1      28.153  26.912  -6.823  0.00  0.00    -0.354 N 
HETATM    9  C   UNK N   1      27.749  28.002  -6.135  0.00  0.00     0.059 A 
HETATM   10  H   UNK N   1      28.850  26.861  -7.516  0.00  0.00     0.166 HD
HETATM   11  C   UNK N   1      28.265  29.292  -6.173  0.00  0.00     0.035 A 
HETATM   12  C   UNK N   1      26.742  27.689  -5.279  0.00  0.00     0.062 A 
HETATM   13  C   UNK N   1      27.701  30.239  -5.289  0.00  0.00     0.050 A 
HETATM   14  C   UNK N   1      26.648  29.858  -4.420  0.00  0.00     0.099 A 
HETATM   15  N   UNK N   1      26.182  28.578  -4.429  0.00  0.00    -0.341 N 
ATOM     16  HN  UNK N   1      25.424  28.297  -3.808  1.00  0.00     0.167 HD
HETATM   17  C   UNK N   1      26.480  26.370  -5.385  0.00  0.00     0.062 A 
BRANCH  14  18
HETATM   18  N   UNK N   1      26.096  30.793  -3.523  0.00  0.00    -0.385 N 
HETATM   19  H   UNK N   1      25.794  30.505  -2.631  0.00  0.00     0.157 HD
HETATM   20  H   UNK N   1      26.015  31.737  -3.788  0.00  0.00     0.157 HD
ENDBRANCH  14  18
ENDBRANCH   1   7
BRANCH   6  21
HETATM   21  O   UNK N   1      29.627  24.511  -5.483  0.00  0.00    -0.359 OA
HETATM   22  H   UNK N   1      29.724  25.435  -5.613  0.00  0.00     0.217 HD
ENDBRANCH   6  21
BRANCH   3  23
HETATM   23  C   UNK N   1      25.816  21.568  -8.418  0.00  0.00     0.148 C 
BRANCH  23  24
HETATM   24  C   UNK N   1      24.512  21.469  -7.687  0.00  0.00     0.143 C 
HETATM   25  O   UNK N   1      24.452  20.870  -6.628  0.00  0.00    -0.650 OA
BRANCH  24  26
HETATM   26  O   UNK N   1      23.421  22.093  -8.168  0.00  0.00    -0.776 OA
HETATM   27  H   UNK N   1      23.248  22.988  -7.951  0.00  0.00     0.167 HD
ENDBRANCH  24  26
ENDBRANCH  23  24
ENDBRANCH   3  23
BRANCH   5  28
HETATM   28  C   UNK N   1      30.170  21.752  -5.886  0.00  0.00    -0.021 A 
HETATM   29  C   UNK N   1      30.887  20.776  -6.594  0.00  0.00     0.012 A 
HETATM   30  C   UNK N   1      31.982  20.132  -5.988  0.00  0.00     0.003 A 
HETATM   31  C   UNK N   1      32.352  20.442  -4.668  0.00  0.00     0.036 A 
HETATM   32  C   UNK N   1      31.638  21.413  -3.955  0.00  0.00     0.103 A 
HETATM   33  C   UNK N   1      30.575  22.044  -4.577  0.00  0.00     0.048 A 
BRANCH  32  34
HETATM   34  N   UNK N   1      31.957  21.743  -2.607  0.00  0.00    -0.116 N 
HETATM   35  O   UNK N   1      33.008  21.213  -2.021  0.00  0.00    -0.532 OA
HETATM   36  O   UNK N   1      31.246  22.475  -1.982  0.00  0.00    -0.532 OA
ENDBRANCH  32  34
ENDBRANCH   5  28
TORSDOF 8
ENDMDL
MODEL 5
REMARK VINA RESULT:      -7.5     11.849     16.184
REMARK  8 active torsions:
REMARK  status: ('A' for Active; 'I' for Inactive)
REMARK    1  A    between atoms: C_1  and  N_8 
REMARK    2  A    between atoms: C_11  and  C_12 
REMARK    3  A    between atoms: C_14  and  C_15 
REMARK    4  A    between atoms: C_15  and  C_16 
REMARK    5  A    between atoms: C_16  and  O_17 
REMARK    6  A    between atoms: C_20  and  C_23 
REMARK    7  A    between atoms: C_21  and  O_22 
REMARK    8  A    between atoms: C_27  and  N_28 
ROOT
HETATM    1  C   UNK N   1      36.630  13.088  12.377  0.00  0.00     0.025 A 
HETATM    2  C   UNK N   1      37.780  12.688  11.688  0.00  0.00     0.024 A 
HETATM    3  C   UNK N   1      37.909  12.951  10.311  0.00  0.00    -0.046 A 
HETATM    4  C   UNK N   1      36.878  13.616   9.622  0.00  0.00     0.022 A 
HETATM    5  C   UNK N   1      35.713  14.024  10.295  0.00  0.00     0.009 A 
HETATM    6  C   UNK N   1      35.602  13.749  11.677  0.00  0.00     0.089 A 
ENDROOT
BRANCH   1   7
HETATM    7  C   UNK N   1      36.443  12.813  13.828  0.00  0.00     0.048 A 
HETATM    8  N   UNK N   1      36.173  11.596  14.374  0.00  0.00    -0.354 N 
HETATM    9  C   UNK N   1      35.898  11.859  15.669  0.00  0.00     0.059 A 
HETATM   10  H   UNK N   1      36.175  10.720  13.924  0.00  0.00     0.166 HD
HETATM   11  C   UNK N   1      35.475  10.983  16.662  0.00  0.00     0.035 A 
HETATM   12  C   UNK N   1      36.023  13.187  15.931  0.00  0.00     0.062 A 
HETATM   13  C   UNK N   1      35.183  11.535  17.930  0.00  0.00     0.050 A 
HETATM   14  C   UNK N   1      35.336  12.927  18.149  0.00  0.00     0.099 A 
HETATM   15  N   UNK N   1      35.757  13.737  17.136  0.00  0.00    -0.341 N 
ATOM     16  HN  UNK N   1      35.870  14.739  17.286  1.00  0.00     0.167 HD
HETATM   17  C   UNK N   1      36.371  13.820  14.793  0.00  0.00     0.062 A 
BRANCH  14  18
HETATM   18  N   UNK N   1      35.027  13.486  19.404  0.00  0.00    -0.385 N 
HETATM   19  H   UNK N   1      34.091  13.666  19.649  0.00  0.00     0.157 HD
HETATM   20  H   UNK N   1      35.751  13.695  20.038  0.00  0.00     0.157 HD
ENDBRANCH  14  18
ENDBRANCH   1   7
BRANCH   6  21
HETATM   21  O   UNK N   1      34.482  14.091  12.338  0.00  0.00    -0.359 OA
HETATM   22  H   UNK N   1      33.657  14.150  11.896  0.00  0.00     0.217 HD
ENDBRANCH   6  21
BRANCH   3  23
HETATM   23  C   UNK N   1      39.178  12.618   9.584  0.00  0.00     0.148 C 
BRANCH  23  24
HETATM   24  C   UNK N   1      39.084  12.801   8.100  0.00  0.00     0.143 C 
HETATM   25  O   UNK N   1      39.532  13.808   7.581  0.00  0.00    -0.650 OA
BRANCH  24  26
HETATM   26  O   UNK N   1      38.562  11.825   7.333  0.00  0.00    -0.776 OA
HETATM   27  H   UNK N   1      38.345  11.988   6.437  0.00  0.00     0.167 HD
ENDBRANCH  24  26
ENDBRANCH  23  24
ENDBRANCH   3  23
BRANCH   5  28
HETATM   28  C   UNK N   1      34.625  14.780   9.585  0.00  0.00    -0.021 A 
HETATM   29  C   UNK N   1      33.322  14.280   9.443  0.00  0.00     0.012 A 
HETATM   30  C   UNK N   1      32.365  15.011   8.715  0.00  0.00     0.003 A 
HETATM   31  C   UNK N   1      32.708  16.232   8.110  0.00  0.00     0.036 A 
HETATM   32  C   UNK N   1      34.007  16.735   8.245  0.00  0.00     0.103 A 
HETATM   33  C   UNK N   1      34.927  16.005   8.978  0.00  0.00     0.048 A 
BRANCH  32  34
HETATM   34  N   UNK N   1      34.411  17.953   7.627  0.00  0.00    -0.116 N 
HETATM   35  O   UNK N   1      34.904  18.935   8.348  0.00  0.00    -0.532 OA
HETATM   36  O   UNK N   1      34.266  18.107   6.449  0.00  0.00    -0.532 OA
ENDBRANCH  32  34
ENDBRANCH   5  28
TORSDOF 8
ENDMDL
MODEL 6
REMARK VINA RESULT:      -7.5      4.731      9.910
REMARK  8 active torsions:
REMARK  status: ('A' for Active; 'I' for Inactive)
REMARK    1  A    between atoms: C_1  and  N_8 
REMARK    2  A    between atoms: C_11  and  C_12 
REMARK    3  A    between atoms: C_14  and  C_15 
REMARK    4  A    between atoms: C_15  and  C_16 
REMARK    5  A    between atoms: C_16  and  O_17 
REMARK    6  A    between atoms: C_20  and  C_23 
REMARK    7  A    between atoms: C_21  and  O_22 
REMARK    8  A    between atoms: C_27  and  N_28 
ROOT
HETATM    1  C   UNK N   1      27.893  18.229   5.467  0.00  0.00     0.025 A 
HETATM    2  C   UNK N   1      28.014  18.463   6.841  0.00  0.00     0.024 A 
HETATM    3  C   UNK N   1      29.170  18.056   7.531  0.00  0.00    -0.046 A 
HETATM    4  C   UNK N   1      30.210  17.407   6.840  0.00  0.00     0.022 A 
HETATM    5  C   UNK N   1      30.108  17.158   5.460  0.00  0.00     0.009 A 
HETATM    6  C   UNK N   1      28.937  17.574   4.786  0.00  0.00     0.089 A 
ENDROOT
BRANCH   1   7
HETATM    7  C   UNK N   1      26.680  18.625   4.701  0.00  0.00     0.048 A 
HETATM    8  N   UNK N   1      26.603  19.658   3.819  0.00  0.00    -0.354 N 
HETATM    9  C   UNK N   1      25.289  19.757   3.526  0.00  0.00     0.059 A 
HETATM   10  H   UNK N   1      27.341  20.210   3.473  0.00  0.00     0.166 HD
HETATM   11  C   UNK N   1      24.645  20.703   2.737  0.00  0.00     0.035 A 
HETATM   12  C   UNK N   1      24.574  18.802   4.176  0.00  0.00     0.062 A 
HETATM   13  C   UNK N   1      23.237  20.623   2.653  0.00  0.00     0.050 A 
HETATM   14  C   UNK N   1      22.542  19.602   3.349  0.00  0.00     0.099 A 
HETATM   15  N   UNK N   1      23.228  18.700   4.106  0.00  0.00    -0.341 N 
ATOM     16  HN  UNK N   1      22.736  17.962   4.608  1.00  0.00     0.167 HD
HETATM   17  C   UNK N   1      25.420  18.064   4.924  0.00  0.00     0.062 A 
BRANCH  14  18
HETATM   18  N   UNK N   1      21.137  19.530   3.285  0.00  0.00    -0.385 N 
HETATM   19  H   UNK N   1      20.631  20.188   2.755  0.00  0.00     0.157 HD
HETATM   20  H   UNK N   1      20.660  18.818   3.770  0.00  0.00     0.157 HD
ENDBRANCH  14  18
ENDBRANCH   1   7
BRANCH   6  21
HETATM   21  O   UNK N   1      28.795  17.313   3.475  0.00  0.00    -0.359 OA
HETATM   22  H   UNK N   1      28.048  17.618   2.997  0.00  0.00     0.217 HD
ENDBRANCH   6  21
BRANCH   3  23
HETATM   23  C   UNK N   1      29.355  18.392   8.981  0.00  0.00     0.148 C 
BRANCH  23  24
HETATM   24  C   UNK N   1      28.869  17.324   9.911  0.00  0.00     0.143 C 
HETATM   25  O   UNK N   1      27.722  16.919   9.828  0.00  0.00    -0.650 OA
BRANCH  24  26
HETATM   26  O   UNK N   1      29.715  16.765  10.797  0.00  0.00    -0.776 OA
HETATM   27  H   UNK N   1      29.433  16.062  11.348  0.00  0.00     0.167 HD
ENDBRANCH  24  26
ENDBRANCH  23  24
ENDBRANCH   3  23
BRANCH   5  28
HETATM   28  C   UNK N   1      31.231  16.511   4.698  0.00  0.00    -0.021 A 
HETATM   29  C   UNK N   1      32.050  17.218   3.806  0.00  0.00     0.012 A 
HETATM   30  C   UNK N   1      33.046  16.540   3.079  0.00  0.00     0.003 A 
HETATM   31  C   UNK N   1      33.215  15.152   3.223  0.00  0.00     0.036 A 
HETATM   32  C   UNK N   1      32.398  14.440   4.109  0.00  0.00     0.103 A 
HETATM   33  C   UNK N   1      31.436  15.131   4.824  0.00  0.00     0.048 A 
BRANCH  32  34
HETATM   34  N   UNK N   1      32.512  13.029   4.270  0.00  0.00    -0.116 N 
HETATM   35  O   UNK N   1      31.981  12.431   5.313  0.00  0.00    -0.532 OA
HETATM   36  O   UNK N   1      33.130  12.381   3.475  0.00  0.00    -0.532 OA
ENDBRANCH  32  34
ENDBRANCH   5  28
TORSDOF 8
ENDMDL
MODEL 7
REMARK VINA RESULT:      -7.4      2.367      2.827
REMARK  8 active torsions:
REMARK  status: ('A' for Active; 'I' for Inactive)
REMARK    1  A    between atoms: C_1  and  N_8 
REMARK    2  A    between atoms: C_11  and  C_12 
REMARK    3  A    between atoms: C_14  and  C_15 
REMARK    4  A    between atoms: C_15  and  C_16 
REMARK    5  A    between atoms: C_16  and  O_17 
REMARK    6  A    between atoms: C_20  and  C_23 
REMARK    7  A    between atoms: C_21  and  O_22 
REMARK    8  A    between atoms: C_27  and  N_28 
ROOT
HETATM    1  C   UNK N   1      24.148  17.437   4.649  0.00  0.00     0.025 A 
HETATM    2  C   UNK N   1      23.488  18.157   3.646  0.00  0.00     0.024 A 
HETATM    3  C   UNK N   1      22.087  18.287   3.672  0.00  0.00    -0.046 A 
HETATM    4  C   UNK N   1      21.344  17.690   4.707  0.00  0.00     0.022 A 
HETATM    5  C   UNK N   1      21.987  16.961   5.723  0.00  0.00     0.009 A 
HETATM    6  C   UNK N   1      23.394  16.840   5.677  0.00  0.00     0.089 A 
ENDROOT
BRANCH   1   7
HETATM    7  C   UNK N   1      25.626  17.258   4.650  0.00  0.00     0.048 A 
HETATM    8  N   UNK N   1      26.453  17.521   5.697  0.00  0.00    -0.354 N 
HETATM    9  C   UNK N   1      27.697  17.400   5.185  0.00  0.00     0.059 A 
HETATM   10  H   UNK N   1      26.202  17.749   6.621  0.00  0.00     0.166 HD
HETATM   11  C   UNK N   1      28.918  17.644   5.803  0.00  0.00     0.035 A 
HETATM   12  C   UNK N   1      27.649  17.043   3.875  0.00  0.00     0.062 A 
HETATM   13  C   UNK N   1      30.081  17.511   5.012  0.00  0.00     0.050 A 
HETATM   14  C   UNK N   1      29.972  17.132   3.650  0.00  0.00     0.099 A 
HETATM   15  N   UNK N   1      28.747  16.902   3.100  0.00  0.00    -0.341 N 
ATOM     16  HN  UNK N   1      28.661  16.628   2.122  1.00  0.00     0.167 HD
HETATM   17  C   UNK N   1      26.356  16.940   3.503  0.00  0.00     0.062 A 
BRANCH  14  18
HETATM   18  N   UNK N   1      31.126  17.016   2.852  0.00  0.00    -0.385 N 
HETATM   19  H   UNK N   1      31.966  17.447   3.131  0.00  0.00     0.157 HD
HETATM   20  H   UNK N   1      31.092  16.502   2.013  0.00  0.00     0.157 HD
ENDBRANCH  14  18
ENDBRANCH   1   7
BRANCH   6  21
HETATM   21  O   UNK N   1      24.032  16.114   6.612  0.00  0.00    -0.359 OA
HETATM   22  H   UNK N   1      24.613  15.418   6.374  0.00  0.00     0.217 HD
ENDBRANCH   6  21
BRANCH   3  23
HETATM   23  C   UNK N   1      21.379  19.140   2.662  0.00  0.00     0.148 C 
BRANCH  23  24
HETATM   24  C   UNK N   1      21.152  20.548   3.119  0.00  0.00     0.143 C 
HETATM   25  O   UNK N   1      20.204  20.810   3.838  0.00  0.00    -0.650 OA
BRANCH  24  26
HETATM   26  O   UNK N   1      22.031  21.513   2.789  0.00  0.00    -0.776 OA
HETATM   27  H   UNK N   1      21.890  22.050   2.034  0.00  0.00     0.167 HD
ENDBRANCH  24  26
ENDBRANCH  23  24
ENDBRANCH   3  23
BRANCH   5  28
HETATM   28  C   UNK N   1      21.212  16.359   6.862  0.00  0.00    -0.021 A 
HETATM   29  C   UNK N   1      20.415  17.124   7.726  0.00  0.00     0.012 A 
HETATM   30  C   UNK N   1      19.762  16.508   8.809  0.00  0.00     0.003 A 
HETATM   31  C   UNK N   1      19.917  15.132   9.047  0.00  0.00     0.036 A 
HETATM   32  C   UNK N   1      20.715  14.363   8.191  0.00  0.00     0.103 A 
HETATM   33  C   UNK N   1      21.335  14.989   7.124  0.00  0.00     0.048 A 
BRANCH  32  34
HETATM   34  N   UNK N   1      20.926  12.971   8.407  0.00  0.00    -0.116 N 
HETATM   35  O   UNK N   1      21.051  12.496   9.626  0.00  0.00    -0.532 OA
HETATM   36  O   UNK N   1      21.032  12.227   7.475  0.00  0.00    -0.532 OA
ENDBRANCH  32  34
ENDBRANCH   5  28
TORSDOF 8
ENDMDL
MODEL 8
REMARK VINA RESULT:      -7.4      9.349     13.698
REMARK  8 active torsions:
REMARK  status: ('A' for Active; 'I' for Inactive)
REMARK    1  A    between atoms: C_1  and  N_8 
REMARK    2  A    between atoms: C_11  and  C_12 
REMARK    3  A    between atoms: C_14  and  C_15 
REMARK    4  A    between atoms: C_15  and  C_16 
REMARK    5  A    between atoms: C_16  and  O_17 
REMARK    6  A    between atoms: C_20  and  C_23 
REMARK    7  A    between atoms: C_21  and  O_22 
REMARK    8  A    between atoms: C_27  and  N_28 
ROOT
HETATM    1  C   UNK N   1      33.713  15.087   8.666  0.00  0.00     0.025 A 
HETATM    2  C   UNK N   1      34.531  14.588   7.647  0.00  0.00     0.024 A 
HETATM    3  C   UNK N   1      35.614  13.744   7.955  0.00  0.00    -0.046 A 
HETATM    4  C   UNK N   1      35.879  13.400   9.293  0.00  0.00     0.022 A 
HETATM    5  C   UNK N   1      35.071  13.892  10.334  0.00  0.00     0.009 A 
HETATM    6  C   UNK N   1      33.990  14.740  10.002  0.00  0.00     0.089 A 
ENDROOT
BRANCH   1   7
HETATM    7  C   UNK N   1      32.570  15.998   8.387  0.00  0.00     0.048 A 
HETATM    8  N   UNK N   1      32.256  17.114   9.099  0.00  0.00    -0.354 N 
HETATM    9  C   UNK N   1      31.057  17.501   8.613  0.00  0.00     0.059 A 
HETATM   10  H   UNK N   1      32.785  17.543   9.810  0.00  0.00     0.166 HD
HETATM   11  C   UNK N   1      30.239  18.539   9.044  0.00  0.00     0.035 A 
HETATM   12  C   UNK N   1      30.651  16.675   7.613  0.00  0.00     0.062 A 
HETATM   13  C   UNK N   1      28.988  18.684   8.404  0.00  0.00     0.050 A 
HETATM   14  C   UNK N   1      28.617  17.797   7.363  0.00  0.00     0.099 A 
HETATM   15  N   UNK N   1      29.462  16.798   6.981  0.00  0.00    -0.341 N 
ATOM     16  HN  UNK N   1      29.203  16.157   6.232  1.00  0.00     0.167 HD
HETATM   17  C   UNK N   1      31.584  15.717   7.439  0.00  0.00     0.062 A 
BRANCH  14  18
HETATM   18  N   UNK N   1      27.363  17.924   6.736  0.00  0.00    -0.385 N 
HETATM   19  H   UNK N   1      26.536  17.871   7.267  0.00  0.00     0.157 HD
HETATM   20  H   UNK N   1      27.314  18.068   5.763  0.00  0.00     0.157 HD
ENDBRANCH  14  18
ENDBRANCH   1   7
BRANCH   6  21
HETATM   21  O   UNK N   1      33.225  15.258  10.980  0.00  0.00    -0.359 OA
HETATM   22  H   UNK N   1      32.419  15.696  10.786  0.00  0.00     0.217 HD
ENDBRANCH   6  21
BRANCH   3  23
HETATM   23  C   UNK N   1      36.435  13.123   6.865  0.00  0.00     0.148 C 
BRANCH  23  24
HETATM   24  C   UNK N   1      37.615  13.951   6.457  0.00  0.00     0.143 C 
HETATM   25  O   UNK N   1      37.492  14.804   5.595  0.00  0.00    -0.650 OA
BRANCH  24  26
HETATM   26  O   UNK N   1      38.796  13.796   7.084  0.00  0.00    -0.776 OA
HETATM   27  H   UNK N   1      38.842  13.783   8.020  0.00  0.00     0.167 HD
ENDBRANCH  24  26
ENDBRANCH  23  24
ENDBRANCH   3  23
BRANCH   5  28
HETATM   28  C   UNK N   1      35.310  13.494  11.764  0.00  0.00    -0.021 A 
HETATM   29  C   UNK N   1      36.187  14.190  12.608  0.00  0.00     0.012 A 
HETATM   30  C   UNK N   1      36.411  13.731  13.919  0.00  0.00     0.003 A 
HETATM   31  C   UNK N   1      35.779  12.567  14.386  0.00  0.00     0.036 A 
HETATM   32  C   UNK N   1      34.905  11.865  13.547  0.00  0.00     0.103 A 
HETATM   33  C   UNK N   1      34.689  12.344  12.267  0.00  0.00     0.048 A 
BRANCH  32  34
HETATM   34  N   UNK N   1      34.261  10.665  13.964  0.00  0.00    -0.116 N 
HETATM   35  O   UNK N   1      33.141  10.713  14.650  0.00  0.00    -0.532 OA
HETATM   36  O   UNK N   1      34.759   9.603  13.729  0.00  0.00    -0.532 OA
ENDBRANCH  32  34
ENDBRANCH   5  28
TORSDOF 8
ENDMDL
MODEL 9
REMARK VINA RESULT:      -7.3      3.813      6.844
REMARK  8 active torsions:
REMARK  status: ('A' for Active; 'I' for Inactive)
REMARK    1  A    between atoms: C_1  and  N_8 
REMARK    2  A    between atoms: C_11  and  C_12 
REMARK    3  A    between atoms: C_14  and  C_15 
REMARK    4  A    between atoms: C_15  and  C_16 
REMARK    5  A    between atoms: C_16  and  O_17 
REMARK    6  A    between atoms: C_20  and  C_23 
REMARK    7  A    between atoms: C_21  and  O_22 
REMARK    8  A    between atoms: C_27  and  N_28 
ROOT
HETATM    1  C   UNK N   1      28.693  16.697   5.879  0.00  0.00     0.025 A 
HETATM    2  C   UNK N   1      28.158  15.408   5.973  0.00  0.00     0.024 A 
HETATM    3  C   UNK N   1      26.878  15.131   5.457  0.00  0.00    -0.046 A 
HETATM    4  C   UNK N   1      26.130  16.154   4.846  0.00  0.00     0.022 A 
HETATM    5  C   UNK N   1      26.647  17.457   4.743  0.00  0.00     0.009 A 
HETATM    6  C   UNK N   1      27.933  17.715   5.269  0.00  0.00     0.089 A 
ENDROOT
BRANCH   1   7
HETATM    7  C   UNK N   1      30.033  17.039   6.428  0.00  0.00     0.048 A 
HETATM    8  N   UNK N   1      31.155  17.266   5.692  0.00  0.00    -0.354 N 
HETATM    9  C   UNK N   1      32.148  17.343   6.603  0.00  0.00     0.059 A 
HETATM   10  H   UNK N   1      31.226  17.353   4.714  0.00  0.00     0.166 HD
HETATM   11  C   UNK N   1      33.515  17.480   6.388  0.00  0.00     0.035 A 
HETATM   12  C   UNK N   1      31.662  17.201   7.864  0.00  0.00     0.062 A 
HETATM   13  C   UNK N   1      34.353  17.460   7.526  0.00  0.00     0.050 A 
HETATM   14  C   UNK N   1      33.790  17.314   8.818  0.00  0.00     0.099 A 
HETATM   15  N   UNK N   1      32.442  17.185   8.967  0.00  0.00    -0.341 N 
ATOM     16  HN  UNK N   1      32.030  17.081   9.894  1.00  0.00     0.167 HD
HETATM   17  C   UNK N   1      30.328  17.012   7.793  0.00  0.00     0.062 A 
BRANCH  14  18
HETATM   18  N   UNK N   1      34.623  17.272   9.954  0.00  0.00    -0.385 N 
HETATM   19  H   UNK N   1      35.242  18.014  10.140  0.00  0.00     0.157 HD
HETATM   20  H   UNK N   1      34.583  16.500  10.562  0.00  0.00     0.157 HD
ENDBRANCH  14  18
ENDBRANCH   1   7
BRANCH   6  21
HETATM   21  O   UNK N   1      28.436  18.961   5.222  0.00  0.00    -0.359 OA
HETATM   22  H   UNK N   1      27.876  19.712   5.258  0.00  0.00     0.217 HD
ENDBRANCH   6  21
BRANCH   3  23
HETATM   23  C   UNK N   1      26.338  13.732   5.461  0.00  0.00     0.148 C 
BRANCH  23  24
HETATM   24  C   UNK N   1      25.214  13.526   6.430  0.00  0.00     0.143 C 
HETATM   25  O   UNK N   1      24.127  13.147   6.032  0.00  0.00    -0.650 OA
BRANCH  24  26
HETATM   26  O   UNK N   1      25.423  13.699   7.749  0.00  0.00    -0.776 OA
HETATM   27  H   UNK N   1      25.644  14.542   8.091  0.00  0.00     0.167 HD
ENDBRANCH  24  26
ENDBRANCH  23  24
ENDBRANCH   3  23
BRANCH   5  28
HETATM   28  C   UNK N   1      25.881  18.549   4.049  0.00  0.00    -0.021 A 
HETATM   29  C   UNK N   1      26.508  19.635   3.421  0.00  0.00     0.012 A 
HETATM   30  C   UNK N   1      25.731  20.654   2.840  0.00  0.00     0.003 A 
HETATM   31  C   UNK N   1      24.328  20.605   2.901  0.00  0.00     0.036 A 
HETATM   32  C   UNK N   1      23.696  19.526   3.530  0.00  0.00     0.103 A 
HETATM   33  C   UNK N   1      24.481  18.528   4.080  0.00  0.00     0.048 A 
BRANCH  32  34
HETATM   34  N   UNK N   1      22.278  19.444   3.641  0.00  0.00    -0.116 N 
HETATM   35  O   UNK N   1      21.525  20.481   3.346  0.00  0.00    -0.532 OA
HETATM   36  O   UNK N   1      21.763  18.442   4.045  0.00  0.00    -0.532 OA
ENDBRANCH  32  34
ENDBRANCH   5  28
TORSDOF 8
ENDMDL
