REMARK  5 active torsions:
REMARK  status: ('A' for Active; 'I' for Inactive)
REMARK       I    between atoms: C_1  and  N_26 
REMARK    1  A    between atoms: O_2  and  C_12 
REMARK    2  A    between atoms: C_4  and  C_5 
REMARK    3  A    between atoms: C_4  and  O_18 
REMARK    4  A    between atoms: C_17  and  O_18 
REMARK    5  A    between atoms: N_26  and  C_27 
ROOT
HETATM    1  C   UNK N   1      -0.127   1.544   0.357  0.00  0.00     0.686 A 
HETATM    2  C   UNK N   1      -4.429   0.584   0.090  0.00  0.00     0.182 A 
HETATM    3  N   UNK N   1      -0.037   0.177   0.457  0.00  0.00    -0.168 N 
ATOM      4  HN  UNK N   1       0.879  -0.261   0.559  1.00  0.00     0.186 HD
HETATM    5  C   UNK N   1      -1.159  -0.607   0.424  0.00  0.00     0.188 A 
HETATM    6  C   UNK N   1      -2.386   0.020   0.295  0.00  0.00     0.130 A 
HETATM    7  N   UNK N   1      -3.617  -0.502   0.224  0.00  0.00    -0.346 N 
ATOM      8  HN  UNK N   1      -3.884  -1.485   0.261  1.00  0.00     0.167 HD
HETATM    9  N   UNK N   1      -3.726   1.748   0.077  0.00  0.00    -0.336 N 
HETATM   10  C   UNK N   1      -2.453   1.355   0.208  0.00  0.00     0.153 A 
HETATM   11  N   UNK N   1      -1.358   2.139   0.235  0.00  0.00    -0.174 N 
ATOM     12  HN  UNK N   1      -1.441   3.153   0.166  1.00  0.00     0.186 HD
HETATM   13  N   UNK N   1       1.058   2.328   0.371  0.00  0.00    -0.192 N 
HETATM   14  H   UNK N   1      -4.073   2.666  -0.008  0.00  0.00     0.168 HD
HETATM   15  H   UNK N   1       1.895   1.896   0.655  0.00  0.00     0.184 HD
ENDROOT
BRANCH  13  16
HETATM   16  C   UNK N   1       1.107   3.701  -0.000  0.00  0.00     0.049 A 
HETATM   17  C   UNK N   1       2.263   4.444   0.262  0.00  0.00     0.033 A 
HETATM   18  C   UNK N   1       2.325   5.796  -0.096  0.00  0.00     0.039 A 
HETATM   19  C   UNK N   1       1.234   6.406  -0.726  0.00  0.00     0.065 A 
HETATM   20  C   UNK N   1       0.087   5.666  -1.006  0.00  0.00     0.039 A 
HETATM   21  C   UNK N   1       0.026   4.322  -0.647  0.00  0.00     0.033 A 
BRANCH  19  22
HETATM   22  O   UNK N   1       1.289   7.704  -1.062  0.00  0.00    -0.361 OA
HETATM   23  H   UNK N   1       2.093   8.125  -1.296  0.00  0.00     0.217 HD
ENDBRANCH  19  22
ENDBRANCH  13  16
BRANCH   5  24
HETATM   24  O   UNK N   1      -1.087  -1.950   0.487  0.00  0.00    -0.333 OA
BRANCH  24  25
HETATM   25  C   UNK N   1       0.111  -2.620   0.497  0.00  0.00     0.182 C 
BRANCH  25  26
HETATM   26  C   UNK N   1       0.247  -3.448  -0.779  0.00  0.00     0.010 C 
HETATM   27  C   UNK N   1       1.491  -4.332  -0.701  0.00  0.00     0.007 C 
HETATM   28  C   UNK N   1       1.338  -5.388   0.397  0.00  0.00     0.000 C 
HETATM   29  C   UNK N   1       0.089  -6.235   0.157  0.00  0.00     0.000 C 
HETATM   30  C   UNK N   1      -1.157  -5.357   0.075  0.00  0.00     0.000 C 
HETATM   31  C   UNK N   1      -0.991  -4.317  -1.030  0.00  0.00     0.007 C 
ENDBRANCH  25  26
ENDBRANCH  24  25
ENDBRANCH   5  24
TORSDOF 5
