MODEL 1
REMARK VINA RESULT:      -7.6      0.000      0.000
REMARK  5 active torsions:
REMARK  status: ('A' for Active; 'I' for Inactive)
REMARK       I    between atoms: C_1  and  N_26 
REMARK    1  A    between atoms: O_2  and  C_12 
REMARK    2  A    between atoms: C_4  and  C_5 
REMARK    3  A    between atoms: C_4  and  O_18 
REMARK    4  A    between atoms: C_17  and  O_18 
REMARK    5  A    between atoms: N_26  and  C_27 
ROOT
HETATM    1  C   UNK N   1      28.535  18.276   5.413  0.00  0.00     0.686 A 
HETATM    2  C   UNK N   1      28.655  17.980   9.818  0.00  0.00     0.182 A 
HETATM    3  N   UNK N   1      29.711  17.578   5.538  0.00  0.00    -0.168 N 
ATOM      4  HN  UNK N   1      30.233  17.316   4.701  1.00  0.00     0.186 HD
HETATM    5  C   UNK N   1      30.196  17.230   6.770  0.00  0.00     0.188 A 
HETATM    6  C   UNK N   1      29.470  17.610   7.885  0.00  0.00     0.130 A 
HETATM    7  N   UNK N   1      29.708  17.390   9.185  0.00  0.00    -0.346 N 
ATOM      8  HN  UNK N   1      30.495  16.895   9.603  1.00  0.00     0.167 HD
HETATM    9  N   UNK N   1      27.787  18.549   8.940  0.00  0.00    -0.336 N 
HETATM   10  C   UNK N   1      28.330  18.298   7.743  0.00  0.00     0.153 A 
HETATM   11  N   UNK N   1      27.838  18.644   6.537  0.00  0.00    -0.174 N 
ATOM     12  HN  UNK N   1      26.967  19.168   6.460  1.00  0.00     0.186 HD
HETATM   13  N   UNK N   1      28.046  18.601   4.119  0.00  0.00    -0.192 N 
HETATM   14  H   UNK N   1      26.953  19.034   9.139  0.00  0.00     0.168 HD
HETATM   15  H   UNK N   1      28.658  18.500   3.355  0.00  0.00     0.184 HD
ENDROOT
BRANCH  13  16
HETATM   16  C   UNK N   1      26.726  19.066   3.862  0.00  0.00     0.049 A 
HETATM   17  C   UNK N   1      26.538  20.347   3.331  0.00  0.00     0.033 A 
HETATM   18  C   UNK N   1      25.245  20.818   3.074  0.00  0.00     0.039 A 
HETATM   19  C   UNK N   1      24.137  20.005   3.339  0.00  0.00     0.065 A 
HETATM   20  C   UNK N   1      24.319  18.722   3.850  0.00  0.00     0.039 A 
HETATM   21  C   UNK N   1      25.606  18.256   4.108  0.00  0.00     0.033 A 
BRANCH  19  22
HETATM   22  O   UNK N   1      22.896  20.458   3.101  0.00  0.00    -0.361 OA
HETATM   23  H   UNK N   1      22.133  19.971   3.341  0.00  0.00     0.217 HD
ENDBRANCH  19  22
ENDBRANCH  13  16
BRANCH   5  24
HETATM   24  O   UNK N   1      31.330  16.517   6.910  0.00  0.00    -0.333 OA
BRANCH  24  25
HETATM   25  C   UNK N   1      31.905  15.841   5.862  0.00  0.00     0.182 C 
BRANCH  25  26
HETATM   26  C   UNK N   1      33.217  16.517   5.473  0.00  0.00     0.010 C 
HETATM   27  C   UNK N   1      34.236  15.469   5.028  0.00  0.00     0.007 C 
HETATM   28  C   UNK N   1      33.785  14.790   3.733  0.00  0.00     0.000 C 
HETATM   29  C   UNK N   1      33.563  15.827   2.632  0.00  0.00     0.000 C 
HETATM   30  C   UNK N   1      32.548  16.879   3.072  0.00  0.00     0.000 C 
HETATM   31  C   UNK N   1      33.018  17.552   4.359  0.00  0.00     0.007 C 
ENDBRANCH  25  26
ENDBRANCH  24  25
ENDBRANCH   5  24
TORSDOF 5
ENDMDL
MODEL 2
REMARK VINA RESULT:      -7.6      7.519     10.306
REMARK  5 active torsions:
REMARK  status: ('A' for Active; 'I' for Inactive)
REMARK       I    between atoms: C_1  and  N_26 
REMARK    1  A    between atoms: O_2  and  C_12 
REMARK    2  A    between atoms: C_4  and  C_5 
REMARK    3  A    between atoms: C_4  and  O_18 
REMARK    4  A    between atoms: C_17  and  O_18 
REMARK    5  A    between atoms: N_26  and  C_27 
ROOT
HETATM    1  C   UNK N   1      34.299  14.623  10.564  0.00  0.00     0.686 A 
HETATM    2  C   UNK N   1      38.500  13.330  10.142  0.00  0.00     0.182 A 
HETATM    3  N   UNK N   1      34.554  14.327  11.880  0.00  0.00    -0.168 N 
ATOM      4  HN  UNK N   1      33.817  14.451  12.576  1.00  0.00     0.186 HD
HETATM    5  C   UNK N   1      35.781  13.865  12.274  0.00  0.00     0.188 A 
HETATM    6  C   UNK N   1      36.754  13.698  11.303  0.00  0.00     0.130 A 
HETATM    7  N   UNK N   1      38.021  13.281  11.417  0.00  0.00    -0.346 N 
ATOM      8  HN  UNK N   1      38.513  12.994  12.262  1.00  0.00     0.167 HD
HETATM    9  N   UNK N   1      37.561  13.766   9.260  0.00  0.00    -0.336 N 
HETATM   10  C   UNK N   1      36.483  13.985  10.023  0.00  0.00     0.153 A 
HETATM   11  N   UNK N   1      35.281  14.444   9.622  0.00  0.00    -0.174 N 
ATOM     12  HN  UNK N   1      35.105  14.654   8.640  1.00  0.00     0.186 HD
HETATM   13  N   UNK N   1      33.022  15.123  10.192  0.00  0.00    -0.192 N 
HETATM   14  H   UNK N   1      37.652  13.890   8.288  0.00  0.00     0.168 HD
HETATM   15  H   UNK N   1      32.290  15.053  10.845  0.00  0.00     0.184 HD
ENDROOT
BRANCH  13  16
HETATM   16  C   UNK N   1      32.738  15.718   8.930  0.00  0.00     0.049 A 
HETATM   17  C   UNK N   1      32.123  14.955   7.932  0.00  0.00     0.033 A 
HETATM   18  C   UNK N   1      31.839  15.526   6.686  0.00  0.00     0.039 A 
HETATM   19  C   UNK N   1      32.161  16.866   6.438  0.00  0.00     0.065 A 
HETATM   20  C   UNK N   1      32.757  17.636   7.435  0.00  0.00     0.039 A 
HETATM   21  C   UNK N   1      33.041  17.065   8.673  0.00  0.00     0.033 A 
BRANCH  19  22
HETATM   22  O   UNK N   1      31.897  17.412   5.242  0.00  0.00    -0.361 OA
HETATM   23  H   UNK N   1      32.473  17.311   4.509  0.00  0.00     0.217 HD
ENDBRANCH  19  22
ENDBRANCH  13  16
BRANCH   5  24
HETATM   24  O   UNK N   1      36.059  13.601  13.564  0.00  0.00    -0.333 OA
BRANCH  24  25
HETATM   25  C   UNK N   1      35.846  12.364  14.122  0.00  0.00     0.182 C 
BRANCH  25  26
HETATM   26  C   UNK N   1      34.552  12.383  14.933  0.00  0.00     0.010 C 
HETATM   27  C   UNK N   1      33.842  11.034  14.819  0.00  0.00     0.007 C 
HETATM   28  C   UNK N   1      34.666   9.929  15.484  0.00  0.00     0.000 C 
HETATM   29  C   UNK N   1      34.941  10.272  16.948  0.00  0.00     0.000 C 
HETATM   30  C   UNK N   1      35.647  11.620  17.069  0.00  0.00     0.000 C 
HETATM   31  C   UNK N   1      34.808  12.710  16.408  0.00  0.00     0.007 C 
ENDBRANCH  25  26
ENDBRANCH  24  25
ENDBRANCH   5  24
TORSDOF 5
ENDMDL
MODEL 3
REMARK VINA RESULT:      -7.4      7.355     10.097
REMARK  5 active torsions:
REMARK  status: ('A' for Active; 'I' for Inactive)
REMARK       I    between atoms: C_1  and  N_26 
REMARK    1  A    between atoms: O_2  and  C_12 
REMARK    2  A    between atoms: C_4  and  C_5 
REMARK    3  A    between atoms: C_4  and  O_18 
REMARK    4  A    between atoms: C_17  and  O_18 
REMARK    5  A    between atoms: N_26  and  C_27 
ROOT
HETATM    1  C   UNK N   1      34.338  15.311  10.066  0.00  0.00     0.686 A 
HETATM    2  C   UNK N   1      38.277  13.315  10.086  0.00  0.00     0.182 A 
HETATM    3  N   UNK N   1      34.513  15.219  11.425  0.00  0.00    -0.168 N 
ATOM      4  HN  UNK N   1      33.792  15.581  12.051  1.00  0.00     0.186 HD
HETATM    5  C   UNK N   1      35.639  14.647  11.954  0.00  0.00     0.188 A 
HETATM    6  C   UNK N   1      36.591  14.157  11.077  0.00  0.00     0.130 A 
HETATM    7  N   UNK N   1      37.769  13.571  11.324  0.00  0.00    -0.346 N 
ATOM      8  HN  UNK N   1      38.190  13.366  12.230  1.00  0.00     0.167 HD
HETATM    9  N   UNK N   1      37.440  13.728   9.096  0.00  0.00    -0.336 N 
HETATM   10  C   UNK N   1      36.397  14.248   9.754  0.00  0.00     0.153 A 
HETATM   11  N   UNK N   1      35.297  14.812   9.220  0.00  0.00    -0.174 N 
ATOM     12  HN  UNK N   1      35.178  14.868   8.209  1.00  0.00     0.186 HD
HETATM   13  N   UNK N   1      33.169  15.932   9.549  0.00  0.00    -0.192 N 
HETATM   14  H   UNK N   1      37.571  13.659   8.122  0.00  0.00     0.168 HD
HETATM   15  H   UNK N   1      32.421  16.097  10.167  0.00  0.00     0.184 HD
ENDROOT
BRANCH  13  16
HETATM   16  C   UNK N   1      33.013  16.328   8.191  0.00  0.00     0.049 A 
HETATM   17  C   UNK N   1      33.741  17.420   7.705  0.00  0.00     0.033 A 
HETATM   18  C   UNK N   1      33.597  17.822   6.372  0.00  0.00     0.039 A 
HETATM   19  C   UNK N   1      32.732  17.126   5.518  0.00  0.00     0.065 A 
HETATM   20  C   UNK N   1      32.019  16.027   5.993  0.00  0.00     0.039 A 
HETATM   21  C   UNK N   1      32.161  15.630   7.320  0.00  0.00     0.033 A 
BRANCH  19  22
HETATM   22  O   UNK N   1      32.587  17.516   4.243  0.00  0.00    -0.361 OA
HETATM   23  H   UNK N   1      32.621  16.909   3.529  0.00  0.00     0.217 HD
ENDBRANCH  19  22
ENDBRANCH  13  16
BRANCH   5  24
HETATM   24  O   UNK N   1      35.842  14.578  13.283  0.00  0.00    -0.333 OA
BRANCH  24  25
HETATM   25  C   UNK N   1      35.520  13.464  14.017  0.00  0.00     0.182 C 
BRANCH  25  26
HETATM   26  C   UNK N   1      36.629  13.176  15.026  0.00  0.00     0.010 C 
HETATM   27  C   UNK N   1      36.345  13.903  16.340  0.00  0.00     0.007 C 
HETATM   28  C   UNK N   1      35.092  13.337  17.013  0.00  0.00     0.000 C 
HETATM   29  C   UNK N   1      35.241  11.835  17.250  0.00  0.00     0.000 C 
HETATM   30  C   UNK N   1      35.528  11.103  15.942  0.00  0.00     0.000 C 
HETATM   31  C   UNK N   1      36.785  11.673  15.289  0.00  0.00     0.007 C 
ENDBRANCH  25  26
ENDBRANCH  24  25
ENDBRANCH   5  24
TORSDOF 5
ENDMDL
MODEL 4
REMARK VINA RESULT:      -7.1      8.118     12.146
REMARK  5 active torsions:
REMARK  status: ('A' for Active; 'I' for Inactive)
REMARK       I    between atoms: C_1  and  N_26 
REMARK    1  A    between atoms: O_2  and  C_12 
REMARK    2  A    between atoms: C_4  and  C_5 
REMARK    3  A    between atoms: C_4  and  O_18 
REMARK    4  A    between atoms: C_17  and  O_18 
REMARK    5  A    between atoms: N_26  and  C_27 
ROOT
HETATM    1  C   UNK N   1      36.010  13.894  12.974  0.00  0.00     0.686 A 
HETATM    2  C   UNK N   1      38.330  12.892   9.353  0.00  0.00     0.182 A 
HETATM    3  N   UNK N   1      35.810  15.060  12.275  0.00  0.00    -0.168 N 
ATOM      4  HN  UNK N   1      35.248  15.804  12.689  1.00  0.00     0.186 HD
HETATM    5  C   UNK N   1      36.358  15.239  11.033  0.00  0.00     0.188 A 
HETATM    6  C   UNK N   1      37.124  14.214  10.507  0.00  0.00     0.130 A 
HETATM    7  N   UNK N   1      37.752  14.126   9.328  0.00  0.00    -0.346 N 
ATOM      8  HN  UNK N   1      37.789  14.822   8.584  1.00  0.00     0.167 HD
HETATM    9  N   UNK N   1      38.069  12.230  10.511  0.00  0.00    -0.336 N 
HETATM   10  C   UNK N   1      37.314  13.088  11.208  0.00  0.00     0.153 A 
HETATM   11  N   UNK N   1      36.778  12.896  12.429  0.00  0.00    -0.174 N 
ATOM     12  HN  UNK N   1      36.940  12.027  12.938  1.00  0.00     0.186 HD
HETATM   13  N   UNK N   1      35.408  13.730  14.251  0.00  0.00    -0.192 N 
HETATM   14  H   UNK N   1      38.368  11.330  10.777  0.00  0.00     0.168 HD
HETATM   15  H   UNK N   1      35.035  14.526  14.692  0.00  0.00     0.184 HD
ENDROOT
BRANCH  13  16
HETATM   16  C   UNK N   1      35.315  12.483  14.930  0.00  0.00     0.049 A 
HETATM   17  C   UNK N   1      36.225  12.184  15.950  0.00  0.00     0.033 A 
HETATM   18  C   UNK N   1      36.145  10.961  16.626  0.00  0.00     0.039 A 
HETATM   19  C   UNK N   1      35.149  10.037  16.291  0.00  0.00     0.065 A 
HETATM   20  C   UNK N   1      34.228  10.337  15.288  0.00  0.00     0.039 A 
HETATM   21  C   UNK N   1      34.310  11.553  14.615  0.00  0.00     0.033 A 
BRANCH  19  22
HETATM   22  O   UNK N   1      35.077   8.861  16.932  0.00  0.00    -0.361 OA
HETATM   23  H   UNK N   1      34.914   8.804  17.854  0.00  0.00     0.217 HD
ENDBRANCH  19  22
ENDBRANCH  13  16
BRANCH   5  24
HETATM   24  O   UNK N   1      36.145  16.362  10.321  0.00  0.00    -0.333 OA
BRANCH  24  25
HETATM   25  C   UNK N   1      34.888  16.765   9.945  0.00  0.00     0.182 C 
BRANCH  25  26
HETATM   26  C   UNK N   1      34.667  16.446   8.468  0.00  0.00     0.010 C 
HETATM   27  C   UNK N   1      33.699  15.272   8.323  0.00  0.00     0.007 C 
HETATM   28  C   UNK N   1      32.303  15.655   8.821  0.00  0.00     0.000 C 
HETATM   29  C   UNK N   1      31.782  16.879   8.069  0.00  0.00     0.000 C 
HETATM   30  C   UNK N   1      32.746  18.055   8.207  0.00  0.00     0.000 C 
HETATM   31  C   UNK N   1      34.129  17.658   7.698  0.00  0.00     0.007 C 
ENDBRANCH  25  26
ENDBRANCH  24  25
ENDBRANCH   5  24
TORSDOF 5
ENDMDL
MODEL 5
REMARK VINA RESULT:      -7.1      7.871      9.211
REMARK  5 active torsions:
REMARK  status: ('A' for Active; 'I' for Inactive)
REMARK       I    between atoms: C_1  and  N_26 
REMARK    1  A    between atoms: O_2  and  C_12 
REMARK    2  A    between atoms: C_4  and  C_5 
REMARK    3  A    between atoms: C_4  and  O_18 
REMARK    4  A    between atoms: C_17  and  O_18 
REMARK    5  A    between atoms: N_26  and  C_27 
ROOT
HETATM    1  C   UNK N   1      21.118  16.454   5.469  0.00  0.00     0.686 A 
HETATM    2  C   UNK N   1      19.118  17.068   9.357  0.00  0.00     0.182 A 
HETATM    3  N   UNK N   1      21.048  15.143   5.871  0.00  0.00    -0.168 N 
ATOM      4  HN  UNK N   1      21.423  14.410   5.268  1.00  0.00     0.186 HD
HETATM    5  C   UNK N   1      20.484  14.803   7.071  0.00  0.00     0.188 A 
HETATM    6  C   UNK N   1      19.993  15.822   7.870  0.00  0.00     0.130 A 
HETATM    7  N   UNK N   1      19.391  15.766   9.064  0.00  0.00    -0.346 N 
ATOM      8  HN  UNK N   1      19.183  14.940   9.624  1.00  0.00     0.167 HD
HETATM    9  N   UNK N   1      19.537  17.911   8.376  0.00  0.00    -0.336 N 
HETATM   10  C   UNK N   1      20.080  17.095   7.463  0.00  0.00     0.153 A 
HETATM   11  N   UNK N   1      20.628  17.444   6.284  0.00  0.00    -0.174 N 
ATOM     12  HN  UNK N   1      20.679  18.423   6.002  1.00  0.00     0.186 HD
HETATM   13  N   UNK N   1      21.689  16.771   4.207  0.00  0.00    -0.192 N 
HETATM   14  H   UNK N   1      19.460  18.892   8.344  0.00  0.00     0.168 HD
HETATM   15  H   UNK N   1      22.202  16.072   3.742  0.00  0.00     0.184 HD
ENDROOT
BRANCH  13  16
HETATM   16  C   UNK N   1      21.564  18.040   3.575  0.00  0.00     0.049 A 
HETATM   17  C   UNK N   1      20.374  18.367   2.916  0.00  0.00     0.033 A 
HETATM   18  C   UNK N   1      20.238  19.611   2.288  0.00  0.00     0.039 A 
HETATM   19  C   UNK N   1      21.288  20.535   2.326  0.00  0.00     0.065 A 
HETATM   20  C   UNK N   1      22.469  20.222   2.997  0.00  0.00     0.039 A 
HETATM   21  C   UNK N   1      22.604  18.984   3.618  0.00  0.00     0.033 A 
BRANCH  19  22
HETATM   22  O   UNK N   1      21.162  21.725   1.717  0.00  0.00    -0.361 OA
HETATM   23  H   UNK N   1      20.364  21.991   1.305  0.00  0.00     0.217 HD
ENDBRANCH  19  22
ENDBRANCH  13  16
BRANCH   5  24
HETATM   24  O   UNK N   1      20.376  13.521   7.466  0.00  0.00    -0.333 OA
BRANCH  24  25
HETATM   25  C   UNK N   1      21.474  12.745   7.743  0.00  0.00     0.182 C 
BRANCH  25  26
HETATM   26  C   UNK N   1      22.416  13.502   8.677  0.00  0.00     0.010 C 
HETATM   27  C   UNK N   1      21.870  13.480  10.104  0.00  0.00     0.007 C 
HETATM   28  C   UNK N   1      21.877  12.055  10.665  0.00  0.00     0.000 C 
HETATM   29  C   UNK N   1      23.286  11.467  10.618  0.00  0.00     0.000 C 
HETATM   30  C   UNK N   1      23.838  11.489   9.195  0.00  0.00     0.000 C 
HETATM   31  C   UNK N   1      23.833  12.916   8.655  0.00  0.00     0.007 C 
ENDBRANCH  25  26
ENDBRANCH  24  25
ENDBRANCH   5  24
TORSDOF 5
ENDMDL
MODEL 6
REMARK VINA RESULT:      -7.1      8.841     12.572
REMARK  5 active torsions:
REMARK  status: ('A' for Active; 'I' for Inactive)
REMARK       I    between atoms: C_1  and  N_26 
REMARK    1  A    between atoms: O_2  and  C_12 
REMARK    2  A    between atoms: C_4  and  C_5 
REMARK    3  A    between atoms: C_4  and  O_18 
REMARK    4  A    between atoms: C_17  and  O_18 
REMARK    5  A    between atoms: N_26  and  C_27 
ROOT
HETATM    1  C   UNK N   1      36.802  13.599  12.807  0.00  0.00     0.686 A 
HETATM    2  C   UNK N   1      34.560  15.859   9.746  0.00  0.00     0.182 A 
HETATM    3  N   UNK N   1      37.542  13.241  11.707  0.00  0.00    -0.168 N 
ATOM      4  HN  UNK N   1      38.340  12.614  11.819  1.00  0.00     0.186 HD
HETATM    5  C   UNK N   1      37.224  13.710  10.461  0.00  0.00     0.188 A 
HETATM    6  C   UNK N   1      36.130  14.549  10.342  0.00  0.00     0.130 A 
HETATM    7  N   UNK N   1      35.618  15.150   9.261  0.00  0.00    -0.346 N 
ATOM      8  HN  UNK N   1      35.945  15.091   8.297  1.00  0.00     0.167 HD
HETATM    9  N   UNK N   1      34.417  15.705  11.090  0.00  0.00    -0.336 N 
HETATM   10  C   UNK N   1      35.416  14.880  11.426  0.00  0.00     0.153 A 
HETATM   11  N   UNK N   1      35.719  14.430  12.659  0.00  0.00    -0.174 N 
ATOM     12  HN  UNK N   1      35.157  14.700  13.466  1.00  0.00     0.186 HD
HETATM   13  N   UNK N   1      37.172  13.114  14.090  0.00  0.00    -0.192 N 
HETATM   14  H   UNK N   1      33.737  16.107  11.678  0.00  0.00     0.168 HD
HETATM   15  H   UNK N   1      37.821  12.376  14.136  0.00  0.00     0.184 HD
ENDROOT
BRANCH  13  16
HETATM   16  C   UNK N   1      36.661  13.632  15.314  0.00  0.00     0.049 A 
HETATM   17  C   UNK N   1      35.655  12.933  15.989  0.00  0.00     0.033 A 
HETATM   18  C   UNK N   1      35.142  13.431  17.193  0.00  0.00     0.039 A 
HETATM   19  C   UNK N   1      35.641  14.624  17.729  0.00  0.00     0.065 A 
HETATM   20  C   UNK N   1      36.656  15.314  17.069  0.00  0.00     0.039 A 
HETATM   21  C   UNK N   1      37.163  14.819  15.871  0.00  0.00     0.033 A 
BRANCH  19  22
HETATM   22  O   UNK N   1      35.143  15.107  18.878  0.00  0.00    -0.361 OA
HETATM   23  H   UNK N   1      34.408  15.687  18.898  0.00  0.00     0.217 HD
ENDBRANCH  19  22
ENDBRANCH  13  16
BRANCH   5  24
HETATM   24  O   UNK N   1      37.958  13.396   9.377  0.00  0.00    -0.333 OA
BRANCH  24  25
HETATM   25  C   UNK N   1      39.197  12.813   9.474  0.00  0.00     0.182 C 
BRANCH  25  26
HETATM   26  C   UNK N   1      39.351  11.748   8.391  0.00  0.00     0.010 C 
HETATM   27  C   UNK N   1      39.564  12.409   7.030  0.00  0.00     0.007 C 
HETATM   28  C   UNK N   1      40.902  13.153   6.993  0.00  0.00     0.000 C 
HETATM   29  C   UNK N   1      42.054  12.204   7.317  0.00  0.00     0.000 C 
HETATM   30  C   UNK N   1      41.845  11.537   8.675  0.00  0.00     0.000 C 
HETATM   31  C   UNK N   1      40.512  10.792   8.691  0.00  0.00     0.007 C 
ENDBRANCH  25  26
ENDBRANCH  24  25
ENDBRANCH   5  24
TORSDOF 5
ENDMDL
MODEL 7
REMARK VINA RESULT:      -6.9     10.904     14.322
REMARK  5 active torsions:
REMARK  status: ('A' for Active; 'I' for Inactive)
REMARK       I    between atoms: C_1  and  N_26 
REMARK    1  A    between atoms: O_2  and  C_12 
REMARK    2  A    between atoms: C_4  and  C_5 
REMARK    3  A    between atoms: C_4  and  O_18 
REMARK    4  A    between atoms: C_17  and  O_18 
REMARK    5  A    between atoms: N_26  and  C_27 
ROOT
HETATM    1  C   UNK N   1      29.130  23.505  -4.528  0.00  0.00     0.686 A 
HETATM    2  C   UNK N   1      25.714  23.097  -7.296  0.00  0.00     0.182 A 
HETATM    3  N   UNK N   1      28.257  24.362  -3.902  0.00  0.00    -0.168 N 
ATOM      4  HN  UNK N   1      28.548  24.843  -3.051  1.00  0.00     0.186 HD
HETATM    5  C   UNK N   1      27.003  24.582  -4.406  0.00  0.00     0.188 A 
HETATM    6  C   UNK N   1      26.645  23.922  -5.568  0.00  0.00     0.130 A 
HETATM    7  N   UNK N   1      25.495  23.947  -6.254  0.00  0.00    -0.346 N 
ATOM      8  HN  UNK N   1      24.652  24.479  -6.044  1.00  0.00     0.167 HD
HETATM    9  N   UNK N   1      26.961  22.557  -7.262  0.00  0.00    -0.336 N 
HETATM   10  C   UNK N   1      27.514  23.097  -6.168  0.00  0.00     0.153 A 
HETATM   11  N   UNK N   1      28.749  22.867  -5.682  0.00  0.00    -0.174 N 
ATOM     12  HN  UNK N   1      29.388  22.233  -6.161  1.00  0.00     0.186 HD
HETATM   13  N   UNK N   1      30.415  23.280  -3.967  0.00  0.00    -0.192 N 
HETATM   14  H   UNK N   1      27.365  21.919  -7.894  0.00  0.00     0.168 HD
HETATM   15  H   UNK N   1      30.726  23.892  -3.262  0.00  0.00     0.184 HD
ENDROOT
BRANCH  13  16
HETATM   16  C   UNK N   1      31.281  22.222  -4.363  0.00  0.00     0.049 A 
HETATM   17  C   UNK N   1      32.497  22.525  -4.986  0.00  0.00     0.033 A 
HETATM   18  C   UNK N   1      33.358  21.495  -5.383  0.00  0.00     0.039 A 
HETATM   19  C   UNK N   1      33.010  20.159  -5.148  0.00  0.00     0.065 A 
HETATM   20  C   UNK N   1      31.809  19.853  -4.511  0.00  0.00     0.039 A 
HETATM   21  C   UNK N   1      30.952  20.879  -4.119  0.00  0.00     0.033 A 
BRANCH  19  22
HETATM   22  O   UNK N   1      33.831  19.171  -5.535  0.00  0.00    -0.361 OA
HETATM   23  H   UNK N   1      33.549  18.278  -5.583  0.00  0.00     0.217 HD
ENDBRANCH  19  22
ENDBRANCH  13  16
BRANCH   5  24
HETATM   24  O   UNK N   1      26.124  25.393  -3.788  0.00  0.00    -0.333 OA
BRANCH  24  25
HETATM   25  C   UNK N   1      26.471  26.642  -3.335  0.00  0.00     0.182 C 
BRANCH  25  26
HETATM   26  C   UNK N   1      25.594  27.694  -4.010  0.00  0.00     0.010 C 
HETATM   27  C   UNK N   1      26.099  29.096  -3.668  0.00  0.00     0.007 C 
HETATM   28  C   UNK N   1      27.483  29.337  -4.278  0.00  0.00     0.000 C 
HETATM   29  C   UNK N   1      27.446  29.132  -5.792  0.00  0.00     0.000 C 
HETATM   30  C   UNK N   1      26.939  27.735  -6.140  0.00  0.00     0.000 C 
HETATM   31  C   UNK N   1      25.556  27.515  -5.532  0.00  0.00     0.007 C 
ENDBRANCH  25  26
ENDBRANCH  24  25
ENDBRANCH   5  24
TORSDOF 5
ENDMDL
MODEL 8
REMARK VINA RESULT:      -6.8      2.381      4.198
REMARK  5 active torsions:
REMARK  status: ('A' for Active; 'I' for Inactive)
REMARK       I    between atoms: C_1  and  N_26 
REMARK    1  A    between atoms: O_2  and  C_12 
REMARK    2  A    between atoms: C_4  and  C_5 
REMARK    3  A    between atoms: C_4  and  O_18 
REMARK    4  A    between atoms: C_17  and  O_18 
REMARK    5  A    between atoms: N_26  and  C_27 
ROOT
HETATM    1  C   UNK N   1      29.225  17.266   5.289  0.00  0.00     0.686 A 
HETATM    2  C   UNK N   1      32.917  16.579   2.966  0.00  0.00     0.182 A 
HETATM    3  N   UNK N   1      29.991  16.711   6.285  0.00  0.00    -0.168 N 
ATOM      4  HN  UNK N   1      29.595  16.592   7.218  1.00  0.00     0.186 HD
HETATM    5  C   UNK N   1      31.279  16.312   6.043  0.00  0.00     0.188 A 
HETATM    6  C   UNK N   1      31.781  16.478   4.764  0.00  0.00     0.130 A 
HETATM    7  N   UNK N   1      32.992  16.191   4.270  0.00  0.00    -0.346 N 
ATOM      8  HN  UNK N   1      33.786  15.777   4.758  1.00  0.00     0.167 HD
HETATM    9  N   UNK N   1      31.697  17.093   2.656  0.00  0.00    -0.336 N 
HETATM   10  C   UNK N   1      31.014  17.013   3.805  0.00  0.00     0.153 A 
HETATM   11  N   UNK N   1      29.748  17.414   4.029  0.00  0.00    -0.174 N 
ATOM     12  HN  UNK N   1      29.189  17.818   3.278  1.00  0.00     0.186 HD
HETATM   13  N   UNK N   1      27.900  17.691   5.578  0.00  0.00    -0.192 N 
HETATM   14  H   UNK N   1      31.388  17.443   1.789  0.00  0.00     0.168 HD
HETATM   15  H   UNK N   1      27.493  17.394   6.423  0.00  0.00     0.184 HD
ENDROOT
BRANCH  13  16
HETATM   16  C   UNK N   1      27.126  18.519   4.718  0.00  0.00     0.049 A 
HETATM   17  C   UNK N   1      26.002  17.985   4.078  0.00  0.00     0.033 A 
HETATM   18  C   UNK N   1      25.231  18.788   3.227  0.00  0.00     0.039 A 
HETATM   19  C   UNK N   1      25.578  20.128   3.023  0.00  0.00     0.065 A 
HETATM   20  C   UNK N   1      26.685  20.669   3.672  0.00  0.00     0.039 A 
HETATM   21  C   UNK N   1      27.452  19.870   4.515  0.00  0.00     0.033 A 
BRANCH  19  22
HETATM   22  O   UNK N   1      24.845  20.896   2.201  0.00  0.00    -0.361 OA
HETATM   23  H   UNK N   1      24.553  21.752   2.447  0.00  0.00     0.217 HD
ENDBRANCH  19  22
ENDBRANCH  13  16
BRANCH   5  24
HETATM   24  O   UNK N   1      32.055  15.797   7.015  0.00  0.00    -0.333 OA
BRANCH  24  25
HETATM   25  C   UNK N   1      32.599  16.574   8.008  0.00  0.00     0.182 C 
BRANCH  25  26
HETATM   26  C   UNK N   1      34.050  16.904   7.665  0.00  0.00     0.010 C 
HETATM   27  C   UNK N   1      34.720  17.611   8.843  0.00  0.00     0.007 C 
HETATM   28  C   UNK N   1      34.840  16.669  10.044  0.00  0.00     0.000 C 
HETATM   29  C   UNK N   1      35.613  15.408   9.662  0.00  0.00     0.000 C 
HETATM   30  C   UNK N   1      34.951  14.698   8.483  0.00  0.00     0.000 C 
HETATM   31  C   UNK N   1      34.848  15.648   7.293  0.00  0.00     0.007 C 
ENDBRANCH  25  26
ENDBRANCH  24  25
ENDBRANCH   5  24
TORSDOF 5
ENDMDL
MODEL 9
REMARK VINA RESULT:      -6.7      9.311     12.060
REMARK  5 active torsions:
REMARK  status: ('A' for Active; 'I' for Inactive)
REMARK       I    between atoms: C_1  and  N_26 
REMARK    1  A    between atoms: O_2  and  C_12 
REMARK    2  A    between atoms: C_4  and  C_5 
REMARK    3  A    between atoms: C_4  and  O_18 
REMARK    4  A    between atoms: C_17  and  O_18 
REMARK    5  A    between atoms: N_26  and  C_27 
ROOT
HETATM    1  C   UNK N   1      34.898  13.301  11.897  0.00  0.00     0.686 A 
HETATM    2  C   UNK N   1      37.069  14.793  15.441  0.00  0.00     0.182 A 
HETATM    3  N   UNK N   1      34.542  12.315  12.784  0.00  0.00    -0.168 N 
ATOM      4  HN  UNK N   1      33.937  11.554  12.474  1.00  0.00     0.186 HD
HETATM    5  C   UNK N   1      34.989  12.336  14.078  0.00  0.00     0.188 A 
HETATM    6  C   UNK N   1      35.816  13.377  14.462  0.00  0.00     0.130 A 
HETATM    7  N   UNK N   1      36.373  13.641  15.651  0.00  0.00    -0.346 N 
ATOM      8  HN  UNK N   1      36.294  13.103  16.513  1.00  0.00     0.167 HD
HETATM    9  N   UNK N   1      36.948  15.236  14.161  0.00  0.00    -0.336 N 
HETATM   10  C   UNK N   1      36.159  14.324  13.579  0.00  0.00     0.153 A 
HETATM   11  N   UNK N   1      35.724  14.319  12.305  0.00  0.00    -0.174 N 
ATOM     12  HN  UNK N   1      36.002  15.055  11.656  1.00  0.00     0.186 HD
HETATM   13  N   UNK N   1      34.398  13.263  10.567  0.00  0.00    -0.192 N 
HETATM   14  H   UNK N   1      37.350  16.039  13.756  0.00  0.00     0.168 HD
HETATM   15  H   UNK N   1      33.978  12.430  10.255  0.00  0.00     0.184 HD
ENDROOT
BRANCH  13  16
HETATM   16  C   UNK N   1      34.470  14.356   9.659  0.00  0.00     0.049 A 
HETATM   17  C   UNK N   1      33.974  15.606  10.046  0.00  0.00     0.033 A 
HETATM   18  C   UNK N   1      34.037  16.690   9.163  0.00  0.00     0.039 A 
HETATM   19  C   UNK N   1      34.604  16.530   7.894  0.00  0.00     0.065 A 
HETATM   20  C   UNK N   1      35.116  15.292   7.510  0.00  0.00     0.039 A 
HETATM   21  C   UNK N   1      35.051  14.214   8.388  0.00  0.00     0.033 A 
BRANCH  19  22
HETATM   22  O   UNK N   1      34.657  17.567   7.043  0.00  0.00    -0.361 OA
HETATM   23  H   UNK N   1      33.920  17.825   6.525  0.00  0.00     0.217 HD
ENDBRANCH  19  22
ENDBRANCH  13  16
BRANCH   5  24
HETATM   24  O   UNK N   1      34.623  11.396  14.969  0.00  0.00    -0.333 OA
BRANCH  24  25
HETATM   25  C   UNK N   1      35.184  10.144  14.986  0.00  0.00     0.182 C 
BRANCH  25  26
HETATM   26  C   UNK N   1      36.254  10.075  16.073  0.00  0.00     0.010 C 
HETATM   27  C   UNK N   1      35.670  10.518  17.414  0.00  0.00     0.007 C 
HETATM   28  C   UNK N   1      34.605   9.528  17.895  0.00  0.00     0.000 C 
HETATM   29  C   UNK N   1      35.190   8.120  18.001  0.00  0.00     0.000 C 
HETATM   30  C   UNK N   1      35.778   7.673  16.665  0.00  0.00     0.000 C 
HETATM   31  C   UNK N   1      36.843   8.665  16.206  0.00  0.00     0.007 C 
ENDBRANCH  25  26
ENDBRANCH  24  25
ENDBRANCH   5  24
TORSDOF 5
ENDMDL
