MODEL 1
REMARK VINA RESULT:      -6.7      0.000      0.000
REMARK  7 active torsions:
REMARK  status: ('A' for Active; 'I' for Inactive)
REMARK    1  A    between atoms: C_2  and  C_3 
REMARK       I    between atoms: C_6  and  N_7 
REMARK    2  A    between atoms: C_10  and  N_11 
REMARK    3  A    between atoms: C_12  and  C_13 
REMARK    4  A    between atoms: C_14  and  C_15 
REMARK    5  A    between atoms: C_15  and  C_16 
REMARK    6  A    between atoms: C_18  and  O_19 
REMARK    7  A    between atoms: C_23  and  O_24 
ROOT
HETATM    1  C   UNK N   1      22.270  19.595   3.322  0.00  0.00     0.048 A 
HETATM    2  N   UNK N   1      21.855  20.432   2.360  0.00  0.00    -0.194 N 
ATOM      3  HN  UNK N   1      22.442  21.221   2.091  1.00  0.00     0.184 HD
HETATM    4  C   UNK N   1      20.675  20.245   1.749  0.00  0.00     0.677 A 
HETATM    5  N   UNK N   1      20.379  21.007   0.611  0.00  0.00    -0.234 N 
HETATM    6  N   UNK N   1      19.876  19.204   2.103  0.00  0.00    -0.176 N 
ATOM      7  HN  UNK N   1      18.995  19.056   1.610  1.00  0.00     0.186 HD
HETATM    8  C   UNK N   1      20.232  18.361   3.103  0.00  0.00     0.135 A 
HETATM    9  C   UNK N   1      21.457  18.531   3.725  0.00  0.00     0.085 A 
HETATM   10  H   UNK N   1      19.504  20.946   0.164  0.00  0.00     0.174 HD
HETATM   11  H   UNK N   1      21.061  21.618   0.250  0.00  0.00     0.174 HD
ENDROOT
BRANCH   9  12
HETATM   12  C   UNK N   1      21.901  17.522   4.603  0.00  0.00    -0.061 C 
HETATM   13  C   UNK N   1      22.290  16.636   5.278  0.00  0.00    -0.096 C 
BRANCH  13  14
HETATM   14  C   UNK N   1      22.748  15.613   6.142  0.00  0.00     0.135 C 
BRANCH  14  15
HETATM   15  C   UNK N   1      21.792  15.341   7.254  0.00  0.00    -0.011 A 
HETATM   16  C   UNK N   1      21.052  16.450   7.584  0.00  0.00     0.047 A 
HETATM   17  C   UNK N   1      20.085  16.413   8.581  0.00  0.00     0.068 A 
HETATM   18  C   UNK N   1      19.880  15.255   9.310  0.00  0.00     0.039 A 
HETATM   19  C   UNK N   1      20.586  14.122   8.993  0.00  0.00     0.040 A 
HETATM   20  C   UNK N   1      21.522  14.112   7.950  0.00  0.00     0.075 A 
BRANCH  17  21
HETATM   21  O   UNK N   1      19.316  17.484   8.829  0.00  0.00    -0.356 OA
HETATM   22  C   UNK N   1      18.029  17.360   9.298  0.00  0.00     0.210 C 
ENDBRANCH  17  21
BRANCH  20  23
HETATM   23  O   UNK N   1      22.086  12.925   7.643  0.00  0.00    -0.355 OA
HETATM   24  C   UNK N   1      21.342  11.985   6.940  0.00  0.00     0.210 C 
ENDBRANCH  20  23
ENDBRANCH  14  15
ENDBRANCH  13  14
ENDBRANCH   9  12
BRANCH   1  25
HETATM   25  C   UNK N   1      23.693  19.577   3.561  0.00  0.00     0.055 C 
HETATM   26  C   UNK N   1      24.143  20.769   2.699  0.00  0.00     0.011 C 
ENDBRANCH   1  25
BRANCH   8  27
HETATM   27  N   UNK N   1      19.447  17.217   3.374  0.00  0.00    -0.384 N 
HETATM   28  H   UNK N   1      19.245  16.539   2.689  0.00  0.00     0.157 HD
HETATM   29  H   UNK N   1      19.087  17.094   4.282  0.00  0.00     0.157 HD
ENDBRANCH   8  27
TORSDOF 7
ENDMDL
MODEL 2
REMARK VINA RESULT:      -6.7      8.749     10.679
REMARK  7 active torsions:
REMARK  status: ('A' for Active; 'I' for Inactive)
REMARK    1  A    between atoms: C_2  and  C_3 
REMARK       I    between atoms: C_6  and  N_7 
REMARK    2  A    between atoms: C_10  and  N_11 
REMARK    3  A    between atoms: C_12  and  C_13 
REMARK    4  A    between atoms: C_14  and  C_15 
REMARK    5  A    between atoms: C_15  and  C_16 
REMARK    6  A    between atoms: C_18  and  O_19 
REMARK    7  A    between atoms: C_23  and  O_24 
ROOT
HETATM    1  C   UNK N   1      28.282  18.626   7.236  0.00  0.00     0.048 A 
HETATM    2  N   UNK N   1      27.441  19.435   7.897  0.00  0.00    -0.194 N 
ATOM      3  HN  UNK N   1      27.362  19.359   8.912  1.00  0.00     0.184 HD
HETATM    4  C   UNK N   1      26.702  20.342   7.241  0.00  0.00     0.677 A 
HETATM    5  N   UNK N   1      26.004  21.305   7.982  0.00  0.00    -0.234 N 
HETATM    6  N   UNK N   1      26.788  20.449   5.888  0.00  0.00    -0.176 N 
ATOM      7  HN  UNK N   1      26.244  21.163   5.405  1.00  0.00     0.186 HD
HETATM    8  C   UNK N   1      27.588  19.621   5.174  0.00  0.00     0.135 A 
HETATM    9  C   UNK N   1      28.372  18.697   5.842  0.00  0.00     0.085 A 
HETATM   10  H   UNK N   1      25.405  21.954   7.548  0.00  0.00     0.174 HD
HETATM   11  H   UNK N   1      26.117  21.334   8.959  0.00  0.00     0.174 HD
ENDROOT
BRANCH   9  12
HETATM   12  C   UNK N   1      29.351  18.000   5.106  0.00  0.00    -0.061 C 
HETATM   13  C   UNK N   1      30.220  17.432   4.544  0.00  0.00    -0.096 C 
BRANCH  13  14
HETATM   14  C   UNK N   1      31.216  16.730   3.824  0.00  0.00     0.135 C 
BRANCH  14  15
HETATM   15  C   UNK N   1      32.335  16.280   4.701  0.00  0.00    -0.011 A 
HETATM   16  C   UNK N   1      32.960  17.332   5.325  0.00  0.00     0.047 A 
HETATM   17  C   UNK N   1      34.018  17.135   6.204  0.00  0.00     0.068 A 
HETATM   18  C   UNK N   1      34.506  15.861   6.433  0.00  0.00     0.039 A 
HETATM   19  C   UNK N   1      33.893  14.785   5.843  0.00  0.00     0.040 A 
HETATM   20  C   UNK N   1      32.783  14.947   5.002  0.00  0.00     0.075 A 
BRANCH  17  21
HETATM   21  O   UNK N   1      34.557  18.169   6.867  0.00  0.00    -0.356 OA
HETATM   22  C   UNK N   1      34.432  18.301   8.230  0.00  0.00     0.210 C 
ENDBRANCH  17  21
BRANCH  20  23
HETATM   23  O   UNK N   1      32.182  13.824   4.556  0.00  0.00    -0.355 OA
HETATM   24  C   UNK N   1      32.898  12.950   3.747  0.00  0.00     0.210 C 
ENDBRANCH  20  23
ENDBRANCH  14  15
ENDBRANCH  13  14
ENDBRANCH   9  12
BRANCH   1  25
HETATM   25  C   UNK N   1      29.349  18.059   8.024  0.00  0.00     0.055 C 
HETATM   26  C   UNK N   1      28.627  17.836   9.365  0.00  0.00     0.011 C 
ENDBRANCH   1  25
BRANCH   8  27
HETATM   27  N   UNK N   1      27.756  19.828   3.785  0.00  0.00    -0.384 N 
HETATM   28  H   UNK N   1      27.428  20.635   3.327  0.00  0.00     0.157 HD
HETATM   29  H   UNK N   1      28.219  19.138   3.257  0.00  0.00     0.157 HD
ENDBRANCH   8  27
TORSDOF 7
ENDMDL
MODEL 3
REMARK VINA RESULT:      -6.4     17.247     19.470
REMARK  7 active torsions:
REMARK  status: ('A' for Active; 'I' for Inactive)
REMARK    1  A    between atoms: C_2  and  C_3 
REMARK       I    between atoms: C_6  and  N_7 
REMARK    2  A    between atoms: C_10  and  N_11 
REMARK    3  A    between atoms: C_12  and  C_13 
REMARK    4  A    between atoms: C_14  and  C_15 
REMARK    5  A    between atoms: C_15  and  C_16 
REMARK    6  A    between atoms: C_18  and  O_19 
REMARK    7  A    between atoms: C_23  and  O_24 
ROOT
HETATM    1  C   UNK N   1      35.323  11.305  17.549  0.00  0.00     0.048 A 
HETATM    2  N   UNK N   1      35.127  10.789  18.771  0.00  0.00    -0.194 N 
ATOM      3  HN  UNK N   1      35.036   9.779  18.883  1.00  0.00     0.184 HD
HETATM    4  C   UNK N   1      35.047  11.584  19.848  0.00  0.00     0.677 A 
HETATM    5  N   UNK N   1      35.060  10.998  21.120  0.00  0.00    -0.234 N 
HETATM    6  N   UNK N   1      35.155  12.934  19.714  0.00  0.00    -0.176 N 
ATOM      7  HN  UNK N   1      35.124  13.525  20.545  1.00  0.00     0.186 HD
HETATM    8  C   UNK N   1      35.306  13.502  18.494  0.00  0.00     0.135 A 
HETATM    9  C   UNK N   1      35.411  12.690  17.378  0.00  0.00     0.085 A 
HETATM   10  H   UNK N   1      34.946  11.537  21.936  0.00  0.00     0.174 HD
HETATM   11  H   UNK N   1      35.186  10.026  21.200  0.00  0.00     0.174 HD
ENDROOT
BRANCH   9  12
HETATM   12  C   UNK N   1      35.783  13.285  16.156  0.00  0.00    -0.061 C 
HETATM   13  C   UNK N   1      36.027  13.765  15.106  0.00  0.00    -0.096 C 
BRANCH  13  14
HETATM   14  C   UNK N   1      36.378  14.364  13.873  0.00  0.00     0.135 C 
BRANCH  14  15
HETATM   15  C   UNK N   1      36.068  13.485  12.709  0.00  0.00    -0.011 A 
HETATM   16  C   UNK N   1      36.754  12.297  12.759  0.00  0.00     0.047 A 
HETATM   17  C   UNK N   1      36.598  11.321  11.782  0.00  0.00     0.068 A 
HETATM   18  C   UNK N   1      35.774  11.549  10.694  0.00  0.00     0.039 A 
HETATM   19  C   UNK N   1      35.056  12.717  10.622  0.00  0.00     0.040 A 
HETATM   20  C   UNK N   1      35.145  13.692  11.625  0.00  0.00     0.075 A 
BRANCH  17  21
HETATM   21  O   UNK N   1      37.213  10.134  11.896  0.00  0.00    -0.356 OA
HETATM   22  C   UNK N   1      37.509   9.585  13.121  0.00  0.00     0.210 C 
ENDBRANCH  17  21
BRANCH  20  23
HETATM   23  O   UNK N   1      34.321  14.755  11.521  0.00  0.00    -0.355 OA
HETATM   24  C   UNK N   1      34.759  15.887  10.844  0.00  0.00     0.210 C 
ENDBRANCH  20  23
ENDBRANCH  14  15
ENDBRANCH  13  14
ENDBRANCH   9  12
BRANCH   1  25
HETATM   25  C   UNK N   1      35.869  10.397  16.569  0.00  0.00     0.055 C 
HETATM   26  C   UNK N   1      34.597  10.017  15.791  0.00  0.00     0.011 C 
ENDBRANCH   1  25
BRANCH   8  27
HETATM   27  N   UNK N   1      35.537  14.893  18.388  0.00  0.00    -0.384 N 
HETATM   28  H   UNK N   1      35.051  15.464  17.750  0.00  0.00     0.157 HD
HETATM   29  H   UNK N   1      36.209  15.307  18.977  0.00  0.00     0.157 HD
ENDBRANCH   8  27
TORSDOF 7
ENDMDL
MODEL 4
REMARK VINA RESULT:      -6.4     10.158     12.215
REMARK  7 active torsions:
REMARK  status: ('A' for Active; 'I' for Inactive)
REMARK    1  A    between atoms: C_2  and  C_3 
REMARK       I    between atoms: C_6  and  N_7 
REMARK    2  A    between atoms: C_10  and  N_11 
REMARK    3  A    between atoms: C_12  and  C_13 
REMARK    4  A    between atoms: C_14  and  C_15 
REMARK    5  A    between atoms: C_15  and  C_16 
REMARK    6  A    between atoms: C_18  and  O_19 
REMARK    7  A    between atoms: C_23  and  O_24 
ROOT
HETATM    1  C   UNK N   1      33.255  15.135   9.422  0.00  0.00     0.048 A 
HETATM    2  N   UNK N   1      34.335  15.081  10.215  0.00  0.00    -0.194 N 
ATOM      3  HN  UNK N   1      34.533  14.228  10.739  1.00  0.00     0.184 HD
HETATM    4  C   UNK N   1      35.158  16.134  10.329  0.00  0.00     0.677 A 
HETATM    5  N   UNK N   1      36.381  15.964  10.991  0.00  0.00    -0.234 N 
HETATM    6  N   UNK N   1      34.902  17.282   9.646  0.00  0.00    -0.176 N 
ATOM      7  HN  UNK N   1      35.551  18.065   9.717  1.00  0.00     0.186 HD
HETATM    8  C   UNK N   1      33.796  17.399   8.870  0.00  0.00     0.135 A 
HETATM    9  C   UNK N   1      32.953  16.311   8.728  0.00  0.00     0.085 A 
HETATM   10  H   UNK N   1      36.990  16.721  11.149  0.00  0.00     0.174 HD
HETATM   11  H   UNK N   1      36.637  15.068  11.305  0.00  0.00     0.174 HD
ENDROOT
BRANCH   9  12
HETATM   12  C   UNK N   1      31.938  16.381   7.753  0.00  0.00    -0.061 C 
HETATM   13  C   UNK N   1      31.040  16.460   6.992  0.00  0.00    -0.096 C 
BRANCH  13  14
HETATM   14  C   UNK N   1      30.007  16.544   6.027  0.00  0.00     0.135 C 
BRANCH  14  15
HETATM   15  C   UNK N   1      29.158  17.756   6.214  0.00  0.00    -0.011 A 
HETATM   16  C   UNK N   1      28.817  18.339   5.018  0.00  0.00     0.047 A 
HETATM   17  C   UNK N   1      28.012  19.471   4.961  0.00  0.00     0.068 A 
HETATM   18  C   UNK N   1      27.572  20.073   6.126  0.00  0.00     0.039 A 
HETATM   19  C   UNK N   1      27.875  19.505   7.338  0.00  0.00     0.040 A 
HETATM   20  C   UNK N   1      28.632  18.328   7.425  0.00  0.00     0.075 A 
BRANCH  17  21
HETATM   21  O   UNK N   1      27.622  19.973   3.780  0.00  0.00    -0.356 OA
HETATM   22  C   UNK N   1      26.296  20.192   3.486  0.00  0.00     0.210 C 
ENDBRANCH  17  21
BRANCH  20  23
HETATM   23  O   UNK N   1      28.786  17.787   8.651  0.00  0.00    -0.355 OA
HETATM   24  C   UNK N   1      29.463  18.506   9.627  0.00  0.00     0.210 C 
ENDBRANCH  20  23
ENDBRANCH  14  15
ENDBRANCH  13  14
ENDBRANCH   9  12
BRANCH   1  25
HETATM   25  C   UNK N   1      32.733  13.861   8.991  0.00  0.00     0.055 C 
HETATM   26  C   UNK N   1      33.894  13.357   8.115  0.00  0.00     0.011 C 
ENDBRANCH   1  25
BRANCH   8  27
HETATM   27  N   UNK N   1      33.613  18.553   8.075  0.00  0.00    -0.384 N 
HETATM   28  H   UNK N   1      34.353  18.985   7.591  0.00  0.00     0.157 HD
HETATM   29  H   UNK N   1      32.710  18.939   8.002  0.00  0.00     0.157 HD
ENDBRANCH   8  27
TORSDOF 7
ENDMDL
MODEL 5
REMARK VINA RESULT:      -6.4     14.082     15.889
REMARK  7 active torsions:
REMARK  status: ('A' for Active; 'I' for Inactive)
REMARK    1  A    between atoms: C_2  and  C_3 
REMARK       I    between atoms: C_6  and  N_7 
REMARK    2  A    between atoms: C_10  and  N_11 
REMARK    3  A    between atoms: C_12  and  C_13 
REMARK    4  A    between atoms: C_14  and  C_15 
REMARK    5  A    between atoms: C_15  and  C_16 
REMARK    6  A    between atoms: C_18  and  O_19 
REMARK    7  A    between atoms: C_23  and  O_24 
ROOT
HETATM    1  C   UNK N   1      31.356  22.763  -4.709  0.00  0.00     0.048 A 
HETATM    2  N   UNK N   1      32.630  22.800  -5.125  0.00  0.00    -0.194 N 
ATOM      3  HN  UNK N   1      33.088  21.938  -5.425  1.00  0.00     0.184 HD
HETATM    4  C   UNK N   1      33.311  23.955  -5.152  0.00  0.00     0.677 A 
HETATM    5  N   UNK N   1      34.557  23.988  -5.792  0.00  0.00    -0.234 N 
HETATM    6  N   UNK N   1      32.719  25.110  -4.746  0.00  0.00    -0.176 N 
ATOM      7  HN  UNK N   1      33.237  25.987  -4.799  1.00  0.00     0.186 HD
HETATM    8  C   UNK N   1      31.449  25.112  -4.272  0.00  0.00     0.135 A 
HETATM    9  C   UNK N   1      30.731  23.930  -4.261  0.00  0.00     0.085 A 
HETATM   10  H   UNK N   1      35.117  24.797  -5.787  0.00  0.00     0.174 HD
HETATM   11  H   UNK N   1      34.879  23.183  -6.258  0.00  0.00     0.174 HD
ENDROOT
BRANCH   9  12
HETATM   12  C   UNK N   1      29.352  23.994  -3.972  0.00  0.00    -0.061 C 
HETATM   13  C   UNK N   1      28.195  24.109  -3.772  0.00  0.00    -0.096 C 
BRANCH  13  14
HETATM   14  C   UNK N   1      26.808  24.187  -3.501  0.00  0.00     0.135 C 
BRANCH  14  15
HETATM   15  C   UNK N   1      26.181  25.397  -4.106  0.00  0.00    -0.011 A 
HETATM   16  C   UNK N   1      26.386  26.523  -3.346  0.00  0.00     0.047 A 
HETATM   17  C   UNK N   1      25.904  27.766  -3.738  0.00  0.00     0.068 A 
HETATM   18  C   UNK N   1      25.151  27.890  -4.892  0.00  0.00     0.039 A 
HETATM   19  C   UNK N   1      24.945  26.790  -5.687  0.00  0.00     0.040 A 
HETATM   20  C   UNK N   1      25.473  25.536  -5.351  0.00  0.00     0.075 A 
BRANCH  17  21
HETATM   21  O   UNK N   1      26.188  28.866  -3.024  0.00  0.00    -0.356 OA
HETATM   22  C   UNK N   1      27.483  29.225  -2.730  0.00  0.00     0.210 C 
ENDBRANCH  17  21
BRANCH  20  23
HETATM   23  O   UNK N   1      25.309  24.542  -6.247  0.00  0.00    -0.355 OA
HETATM   24  C   UNK N   1      26.147  24.485  -7.355  0.00  0.00     0.210 C 
ENDBRANCH  20  23
ENDBRANCH  14  15
ENDBRANCH  13  14
ENDBRANCH   9  12
BRANCH   1  25
HETATM   25  C   UNK N   1      30.584  21.631  -5.163  0.00  0.00     0.055 C 
HETATM   26  C   UNK N   1      30.985  20.574  -4.119  0.00  0.00     0.011 C 
ENDBRANCH   1  25
BRANCH   8  27
HETATM   27  N   UNK N   1      30.813  26.338  -3.969  0.00  0.00    -0.384 N 
HETATM   28  H   UNK N   1      31.221  27.211  -4.172  0.00  0.00     0.157 HD
HETATM   29  H   UNK N   1      29.926  26.318  -3.541  0.00  0.00     0.157 HD
ENDBRANCH   8  27
TORSDOF 7
ENDMDL
MODEL 6
REMARK VINA RESULT:      -6.3     12.590     14.443
REMARK  7 active torsions:
REMARK  status: ('A' for Active; 'I' for Inactive)
REMARK    1  A    between atoms: C_2  and  C_3 
REMARK       I    between atoms: C_6  and  N_7 
REMARK    2  A    between atoms: C_10  and  N_11 
REMARK    3  A    between atoms: C_12  and  C_13 
REMARK    4  A    between atoms: C_14  and  C_15 
REMARK    5  A    between atoms: C_15  and  C_16 
REMARK    6  A    between atoms: C_18  and  O_19 
REMARK    7  A    between atoms: C_23  and  O_24 
ROOT
HETATM    1  C   UNK N   1      35.793  13.885   9.210  0.00  0.00     0.048 A 
HETATM    2  N   UNK N   1      36.448  13.242  10.188  0.00  0.00    -0.194 N 
ATOM      3  HN  UNK N   1      36.772  12.286  10.034  1.00  0.00     0.184 HD
HETATM    4  C   UNK N   1      36.684  13.840  11.365  0.00  0.00     0.677 A 
HETATM    5  N   UNK N   1      37.553  13.220  12.273  0.00  0.00    -0.234 N 
HETATM    6  N   UNK N   1      36.251  15.109  11.589  0.00  0.00    -0.176 N 
ATOM      7  HN  UNK N   1      36.462  15.563  12.477  1.00  0.00     0.186 HD
HETATM    8  C   UNK N   1      35.542  15.779  10.648  0.00  0.00     0.135 A 
HETATM    9  C   UNK N   1      35.313  15.181   9.422  0.00  0.00     0.085 A 
HETATM   10  H   UNK N   1      37.710  13.592  13.170  0.00  0.00     0.174 HD
HETATM   11  H   UNK N   1      38.016  12.394  12.007  0.00  0.00     0.174 HD
ENDROOT
BRANCH   9  12
HETATM   12  C   UNK N   1      34.770  15.971   8.389  0.00  0.00    -0.061 C 
HETATM   13  C   UNK N   1      34.365  16.685   7.541  0.00  0.00    -0.096 C 
BRANCH  13  14
HETATM   14  C   UNK N   1      33.839  17.491   6.503  0.00  0.00     0.135 C 
BRANCH  14  15
HETATM   15  C   UNK N   1      32.357  17.370   6.390  0.00  0.00    -0.011 A 
HETATM   16  C   UNK N   1      31.743  17.352   7.618  0.00  0.00     0.047 A 
HETATM   17  C   UNK N   1      30.361  17.265   7.743  0.00  0.00     0.068 A 
HETATM   18  C   UNK N   1      29.566  17.141   6.618  0.00  0.00     0.039 A 
HETATM   19  C   UNK N   1      30.144  17.177   5.374  0.00  0.00     0.040 A 
HETATM   20  C   UNK N   1      31.528  17.328   5.214  0.00  0.00     0.075 A 
BRANCH  17  21
HETATM   21  O   UNK N   1      29.778  17.335   8.949  0.00  0.00    -0.356 OA
HETATM   22  C   UNK N   1      29.663  18.523   9.632  0.00  0.00     0.210 C 
ENDBRANCH  17  21
BRANCH  20  23
HETATM   23  O   UNK N   1      31.990  17.462   3.954  0.00  0.00    -0.355 OA
HETATM   24  C   UNK N   1      32.060  16.340   3.137  0.00  0.00     0.210 C 
ENDBRANCH  20  23
ENDBRANCH  14  15
ENDBRANCH  13  14
ENDBRANCH   9  12
BRANCH   1  25
HETATM   25  C   UNK N   1      36.012  13.380   7.876  0.00  0.00     0.055 C 
HETATM   26  C   UNK N   1      37.534  13.566   7.746  0.00  0.00     0.011 C 
ENDBRANCH   1  25
BRANCH   8  27
HETATM   27  N   UNK N   1      35.207  17.137  10.853  0.00  0.00    -0.384 N 
HETATM   28  H   UNK N   1      34.445  17.569  10.403  0.00  0.00     0.157 HD
HETATM   29  H   UNK N   1      35.756  17.672  11.471  0.00  0.00     0.157 HD
ENDBRANCH   8  27
TORSDOF 7
ENDMDL
MODEL 7
REMARK VINA RESULT:      -6.2      4.722      6.592
REMARK  7 active torsions:
REMARK  status: ('A' for Active; 'I' for Inactive)
REMARK    1  A    between atoms: C_2  and  C_3 
REMARK       I    between atoms: C_6  and  N_7 
REMARK    2  A    between atoms: C_10  and  N_11 
REMARK    3  A    between atoms: C_12  and  C_13 
REMARK    4  A    between atoms: C_14  and  C_15 
REMARK    5  A    between atoms: C_15  and  C_16 
REMARK    6  A    between atoms: C_18  and  O_19 
REMARK    7  A    between atoms: C_23  and  O_24 
ROOT
HETATM    1  C   UNK N   1      22.089  19.281   3.706  0.00  0.00     0.048 A 
HETATM    2  N   UNK N   1      20.888  18.708   3.539  0.00  0.00    -0.194 N 
ATOM      3  HN  UNK N   1      20.177  19.181   2.982  1.00  0.00     0.184 HD
HETATM    4  C   UNK N   1      20.611  17.520   4.096  0.00  0.00     0.677 A 
HETATM    5  N   UNK N   1      19.433  16.860   3.723  0.00  0.00    -0.234 N 
HETATM    6  N   UNK N   1      21.545  16.880   4.851  0.00  0.00    -0.176 N 
ATOM      7  HN  UNK N   1      21.332  15.964   5.244  1.00  0.00     0.186 HD
HETATM    8  C   UNK N   1      22.755  17.444   5.086  0.00  0.00     0.135 A 
HETATM    9  C   UNK N   1      23.059  18.659   4.498  0.00  0.00     0.085 A 
HETATM   10  H   UNK N   1      19.160  16.014   4.147  0.00  0.00     0.174 HD
HETATM   11  H   UNK N   1      18.866  17.249   3.020  0.00  0.00     0.174 HD
ENDROOT
BRANCH   9  12
HETATM   12  C   UNK N   1      24.389  19.119   4.576  0.00  0.00    -0.061 C 
HETATM   13  C   UNK N   1      25.513  19.478   4.572  0.00  0.00    -0.096 C 
BRANCH  13  14
HETATM   14  C   UNK N   1      26.851  19.940   4.627  0.00  0.00     0.135 C 
BRANCH  14  15
HETATM   15  C   UNK N   1      27.744  18.998   5.360  0.00  0.00    -0.011 A 
HETATM   16  C   UNK N   1      27.814  19.287   6.701  0.00  0.00     0.047 A 
HETATM   17  C   UNK N   1      28.576  18.521   7.575  0.00  0.00     0.068 A 
HETATM   18  C   UNK N   1      29.332  17.465   7.098  0.00  0.00     0.039 A 
HETATM   19  C   UNK N   1      29.269  17.134   5.768  0.00  0.00     0.040 A 
HETATM   20  C   UNK N   1      28.460  17.849   4.874  0.00  0.00     0.075 A 
BRANCH  17  21
HETATM   21  O   UNK N   1      28.563  18.770   8.893  0.00  0.00    -0.356 OA
HETATM   22  C   UNK N   1      29.685  18.614   9.673  0.00  0.00     0.210 C 
ENDBRANCH  17  21
BRANCH  20  23
HETATM   23  O   UNK N   1      28.380  17.381   3.611  0.00  0.00    -0.355 OA
HETATM   24  C   UNK N   1      27.556  16.294   3.343  0.00  0.00     0.210 C 
ENDBRANCH  20  23
ENDBRANCH  14  15
ENDBRANCH  13  14
ENDBRANCH   9  12
BRANCH   1  25
HETATM   25  C   UNK N   1      22.455  20.263   2.713  0.00  0.00     0.055 C 
HETATM   26  C   UNK N   1      21.070  20.819   2.338  0.00  0.00     0.011 C 
ENDBRANCH   1  25
BRANCH   8  27
HETATM   27  N   UNK N   1      23.752  16.711   5.769  0.00  0.00    -0.384 N 
HETATM   28  H   UNK N   1      23.882  16.774   6.743  0.00  0.00     0.157 HD
HETATM   29  H   UNK N   1      24.339  16.114   5.251  0.00  0.00     0.157 HD
ENDBRANCH   8  27
TORSDOF 7
ENDMDL
MODEL 8
REMARK VINA RESULT:      -6.1     13.718     15.815
REMARK  7 active torsions:
REMARK  status: ('A' for Active; 'I' for Inactive)
REMARK    1  A    between atoms: C_2  and  C_3 
REMARK       I    between atoms: C_6  and  N_7 
REMARK    2  A    between atoms: C_10  and  N_11 
REMARK    3  A    between atoms: C_12  and  C_13 
REMARK    4  A    between atoms: C_14  and  C_15 
REMARK    5  A    between atoms: C_15  and  C_16 
REMARK    6  A    between atoms: C_18  and  O_19 
REMARK    7  A    between atoms: C_23  and  O_24 
ROOT
HETATM    1  C   UNK N   1      31.251  24.443  -5.344  0.00  0.00     0.048 A 
HETATM    2  N   UNK N   1      32.559  24.246  -5.568  0.00  0.00    -0.194 N 
ATOM      3  HN  UNK N   1      33.103  24.967  -6.042  1.00  0.00     0.184 HD
HETATM    4  C   UNK N   1      33.159  23.112  -5.179  0.00  0.00     0.677 A 
HETATM    5  N   UNK N   1      34.557  23.036  -5.236  0.00  0.00    -0.234 N 
HETATM    6  N   UNK N   1      32.445  22.136  -4.555  0.00  0.00    -0.176 N 
ATOM      7  HN  UNK N   1      32.919  21.292  -4.237  1.00  0.00     0.186 HD
HETATM    8  C   UNK N   1      31.112  22.272  -4.351  0.00  0.00     0.135 A 
HETATM    9  C   UNK N   1      30.487  23.447  -4.729  0.00  0.00     0.085 A 
HETATM   10  H   UNK N   1      35.036  22.205  -5.015  0.00  0.00     0.174 HD
HETATM   11  H   UNK N   1      35.071  23.831  -5.503  0.00  0.00     0.174 HD
ENDROOT
BRANCH   9  12
HETATM   12  C   UNK N   1      29.157  23.655  -4.313  0.00  0.00    -0.061 C 
HETATM   13  C   UNK N   1      28.058  23.902  -3.959  0.00  0.00    -0.096 C 
BRANCH  13  14
HETATM   14  C   UNK N   1      26.723  24.133  -3.548  0.00  0.00     0.135 C 
BRANCH  14  15
HETATM   15  C   UNK N   1      26.157  25.379  -4.141  0.00  0.00    -0.011 A 
HETATM   16  C   UNK N   1      26.385  26.480  -3.352  0.00  0.00     0.047 A 
HETATM   17  C   UNK N   1      25.959  27.748  -3.727  0.00  0.00     0.068 A 
HETATM   18  C   UNK N   1      25.240  27.925  -4.895  0.00  0.00     0.039 A 
HETATM   19  C   UNK N   1      25.012  26.851  -5.719  0.00  0.00     0.040 A 
HETATM   20  C   UNK N   1      25.485  25.571  -5.398  0.00  0.00     0.075 A 
BRANCH  17  21
HETATM   21  O   UNK N   1      26.268  28.821  -2.983  0.00  0.00    -0.356 OA
HETATM   22  C   UNK N   1      27.566  29.119  -2.641  0.00  0.00     0.210 C 
ENDBRANCH  17  21
BRANCH  20  23
HETATM   23  O   UNK N   1      25.306  24.602  -6.320  0.00  0.00    -0.355 OA
HETATM   24  C   UNK N   1      26.214  24.490  -7.367  0.00  0.00     0.210 C 
ENDBRANCH  20  23
ENDBRANCH  14  15
ENDBRANCH  13  14
ENDBRANCH   9  12
BRANCH   1  25
HETATM   25  C   UNK N   1      30.820  25.820  -5.344  0.00  0.00     0.055 C 
HETATM   26  C   UNK N   1      31.587  26.360  -4.124  0.00  0.00     0.011 C 
ENDBRANCH   1  25
BRANCH   8  27
HETATM   27  N   UNK N   1      30.413  21.303  -3.595  0.00  0.00    -0.384 N 
HETATM   28  H   UNK N   1      30.117  21.465  -2.670  0.00  0.00     0.157 HD
HETATM   29  H   UNK N   1      30.214  20.433  -4.010  0.00  0.00     0.157 HD
ENDBRANCH   8  27
TORSDOF 7
ENDMDL
MODEL 9
REMARK VINA RESULT:      -6.1      2.276      3.831
REMARK  7 active torsions:
REMARK  status: ('A' for Active; 'I' for Inactive)
REMARK    1  A    between atoms: C_2  and  C_3 
REMARK       I    between atoms: C_6  and  N_7 
REMARK    2  A    between atoms: C_10  and  N_11 
REMARK    3  A    between atoms: C_12  and  C_13 
REMARK    4  A    between atoms: C_14  and  C_15 
REMARK    5  A    between atoms: C_15  and  C_16 
REMARK    6  A    between atoms: C_18  and  O_19 
REMARK    7  A    between atoms: C_23  and  O_24 
ROOT
HETATM    1  C   UNK N   1      22.150  19.550   3.346  0.00  0.00     0.048 A 
HETATM    2  N   UNK N   1      21.867  20.347   2.304  0.00  0.00    -0.194 N 
ATOM      3  HN  UNK N   1      22.525  21.079   2.037  1.00  0.00     0.184 HD
HETATM    4  C   UNK N   1      20.730  20.193   1.611  0.00  0.00     0.677 A 
HETATM    5  N   UNK N   1      20.574  20.896   0.409  0.00  0.00    -0.234 N 
HETATM    6  N   UNK N   1      19.837  19.228   1.961  0.00  0.00    -0.176 N 
ATOM      7  HN  UNK N   1      18.990  19.102   1.407  1.00  0.00     0.186 HD
HETATM    8  C   UNK N   1      20.058  18.432   3.035  0.00  0.00     0.135 A 
HETATM    9  C   UNK N   1      21.239  18.567   3.744  0.00  0.00     0.085 A 
HETATM   10  H   UNK N   1      19.735  20.858  -0.104  0.00  0.00     0.174 HD
HETATM   11  H   UNK N   1      21.321  21.438   0.069  0.00  0.00     0.174 HD
ENDROOT
BRANCH   9  12
HETATM   12  C   UNK N   1      21.545  17.592   4.715  0.00  0.00    -0.061 C 
HETATM   13  C   UNK N   1      21.852  16.824   5.556  0.00  0.00    -0.096 C 
BRANCH  13  14
HETATM   14  C   UNK N   1      22.170  15.861   6.544  0.00  0.00     0.135 C 
BRANCH  14  15
HETATM   15  C   UNK N   1      23.592  15.422   6.468  0.00  0.00    -0.011 A 
HETATM   16  C   UNK N   1      24.336  16.214   5.628  0.00  0.00     0.047 A 
HETATM   17  C   UNK N   1      25.693  15.992   5.426  0.00  0.00     0.068 A 
HETATM   18  C   UNK N   1      26.323  14.923   6.036  0.00  0.00     0.039 A 
HETATM   19  C   UNK N   1      25.616  14.123   6.899  0.00  0.00     0.040 A 
HETATM   20  C   UNK N   1      24.262  14.360   7.171  0.00  0.00     0.075 A 
BRANCH  17  21
HETATM   21  O   UNK N   1      26.417  16.830   4.668  0.00  0.00    -0.356 OA
HETATM   22  C   UNK N   1      26.277  16.876   3.301  0.00  0.00     0.210 C 
ENDBRANCH  17  21
BRANCH  20  23
HETATM   23  O   UNK N   1      23.682  13.588   8.114  0.00  0.00    -0.355 OA
HETATM   24  C   UNK N   1      24.183  12.313   8.347  0.00  0.00     0.210 C 
ENDBRANCH  20  23
ENDBRANCH  14  15
ENDBRANCH  13  14
ENDBRANCH   9  12
BRANCH   1  25
HETATM   25  C   UNK N   1      23.545  19.461   3.701  0.00  0.00     0.055 C 
HETATM   26  C   UNK N   1      24.124  20.628   2.883  0.00  0.00     0.011 C 
ENDBRANCH   1  25
BRANCH   8  27
HETATM   27  N   UNK N   1      19.179  17.359   3.309  0.00  0.00    -0.384 N 
HETATM   28  H   UNK N   1      18.497  17.401   4.017  0.00  0.00     0.157 HD
HETATM   29  H   UNK N   1      19.252  16.538   2.769  0.00  0.00     0.157 HD
ENDBRANCH   8  27
TORSDOF 7
ENDMDL
