REMARK  7 active torsions:
REMARK  status: ('A' for Active; 'I' for Inactive)
REMARK    1  A    between atoms: C_2  and  C_3 
REMARK       I    between atoms: C_6  and  N_7 
REMARK    2  A    between atoms: C_10  and  N_11 
REMARK    3  A    between atoms: C_12  and  C_13 
REMARK    4  A    between atoms: C_14  and  C_15 
REMARK    5  A    between atoms: C_15  and  C_16 
REMARK    6  A    between atoms: C_18  and  O_19 
REMARK    7  A    between atoms: C_23  and  O_24 
ROOT
HETATM    1  C   UNK N   1       2.449  -1.731  -0.619  0.00  0.00     0.048 A 
HETATM    2  N   UNK N   1       3.593  -2.424  -0.518  0.00  0.00    -0.194 N 
ATOM      3  HN  UNK N   1       4.481  -1.963  -0.718  1.00  0.00     0.184 HD
HETATM    4  C   UNK N   1       3.584  -3.716  -0.158  0.00  0.00     0.677 A 
HETATM    5  N   UNK N   1       4.802  -4.339   0.144  0.00  0.00    -0.234 N 
HETATM    6  N   UNK N   1       2.408  -4.348   0.102  0.00  0.00    -0.176 N 
ATOM      7  HN  UNK N   1       2.417  -5.322   0.404  1.00  0.00     0.186 HD
HETATM    8  C   UNK N   1       1.225  -3.701  -0.034  0.00  0.00     0.135 A 
HETATM    9  C   UNK N   1       1.224  -2.362  -0.383  0.00  0.00     0.085 A 
HETATM   10  H   UNK N   1       4.850  -5.299   0.357  0.00  0.00     0.174 HD
HETATM   11  H   UNK N   1       5.628  -3.805   0.144  0.00  0.00     0.174 HD
ENDROOT
BRANCH   9  12
HETATM   12  C   UNK N   1       0.006  -1.657  -0.306  0.00  0.00    -0.061 C 
HETATM   13  C   UNK N   1      -1.048  -1.132  -0.229  0.00  0.00    -0.096 C 
BRANCH  13  14
HETATM   14  C   UNK N   1      -2.281  -0.442  -0.140  0.00  0.00     0.135 C 
BRANCH  14  15
HETATM   15  C   UNK N   1      -2.097   1.036  -0.067  0.00  0.00    -0.011 A 
HETATM   16  C   UNK N   1      -3.294   1.704   0.020  0.00  0.00     0.047 A 
HETATM   17  C   UNK N   1      -3.352   3.089   0.118  0.00  0.00     0.068 A 
HETATM   18  C   UNK N   1      -2.191   3.840   0.078  0.00  0.00     0.039 A 
HETATM   19  C   UNK N   1      -0.976   3.205   0.013  0.00  0.00     0.040 A 
HETATM   20  C   UNK N   1      -0.883   1.807  -0.023  0.00  0.00     0.075 A 
BRANCH  17  21
HETATM   21  O   UNK N   1      -4.527   3.714   0.288  0.00  0.00    -0.356 OA
HETATM   22  C   UNK N   1      -5.695   3.019   0.497  0.00  0.00     0.210 C 
ENDBRANCH  17  21
BRANCH  20  23
HETATM   23  O   UNK N   1       0.355   1.273   0.024  0.00  0.00    -0.355 OA
HETATM   24  C   UNK N   1       1.442   2.106   0.261  0.00  0.00     0.210 C 
ENDBRANCH  20  23
ENDBRANCH  14  15
ENDBRANCH  13  14
ENDBRANCH   9  12
BRANCH   1  25
HETATM   25  C   UNK N   1       2.579  -0.297  -0.526  0.00  0.00     0.055 C 
HETATM   26  C   UNK N   1       2.886  -0.134   0.973  0.00  0.00     0.011 C 
ENDBRANCH   1  25
BRANCH   8  27
HETATM   27  N   UNK N   1       0.025  -4.338   0.357  0.00  0.00    -0.384 N 
HETATM   28  H   UNK N   1      -0.777  -3.836   0.628  0.00  0.00     0.157 HD
HETATM   29  H   UNK N   1      -0.010  -5.322   0.357  0.00  0.00     0.157 HD
ENDBRANCH   8  27
TORSDOF 7
