MODEL 1
REMARK VINA RESULT:      -7.0      0.000      0.000
REMARK  4 active torsions:
REMARK  status: ('A' for Active; 'I' for Inactive)
REMARK    1  A    between atoms: C_10  and  C_11 
REMARK    2  A    between atoms: C_11  and  C_12 
REMARK    3  A    between atoms: C_12  and  N_13 
REMARK       I    between atoms: N_13  and  C_14 
REMARK    4  A    between atoms: C_14  and  C_16 
ROOT
HETATM    1  C   UNK N   1      28.693  17.689   9.662  0.00  0.00     0.068 C 
HETATM    2  C   UNK N   1      28.358  18.324   8.357  0.00  0.00     0.013 A 
HETATM    3  N   UNK N   1      27.555  19.405   8.249  0.00  0.00    -0.359 N 
HETATM    4  C   UNK N   1      27.493  19.680   6.938  0.00  0.00     0.043 A 
HETATM    5  C   UNK N   1      26.778  20.722   6.350  0.00  0.00     0.030 A 
HETATM    6  C   UNK N   1      26.836  20.854   4.953  0.00  0.00     0.002 A 
HETATM    7  C   UNK N   1      27.599  19.953   4.186  0.00  0.00     0.001 A 
HETATM    8  C   UNK N   1      28.309  18.914   4.812  0.00  0.00     0.014 A 
HETATM    9  C   UNK N   1      28.243  18.793   6.200  0.00  0.00    -0.001 A 
HETATM   10  C   UNK N   1      28.813  17.903   7.110  0.00  0.00    -0.022 A 
HETATM   11  H   UNK N   1      27.108  19.890   8.981  0.00  0.00     0.166 HD
ENDROOT
BRANCH  10  12
HETATM   12  C   UNK N   1      29.738  16.706   6.978  0.00  0.00     0.061 C 
BRANCH  12  13
HETATM   13  C   UNK N   1      31.209  16.634   7.405  0.00  0.00     0.127 C 
BRANCH  13  14
HETATM   14  N   UNK N   1      32.124  17.290   6.519  0.00  0.00    -0.356 N 
HETATM   15  C   UNK N   1      33.470  17.345   6.688  0.00  0.00     0.258 C 
HETATM   16  O   UNK N   1      34.135  17.924   5.843  0.00  0.00    -0.267 OA
HETATM   17  H   UNK N   1      31.747  17.736   5.727  0.00  0.00     0.162 HD
BRANCH  15  18
HETATM   18  C   UNK N   1      34.175  16.741   7.850  0.00  0.00     0.072 A 
HETATM   19  C   UNK N   1      34.442  17.408   9.046  0.00  0.00     0.025 A 
HETATM   20  C   UNK N   1      35.125  16.600   9.998  0.00  0.00     0.009 A 
HETATM   21  C   UNK N   1      35.398  15.299   9.555  0.00  0.00     0.050 A 
HETATM   22  S   UNK N   1      34.786  15.207   8.018  0.00  0.00    -0.097 SA
ENDBRANCH  15  18
ENDBRANCH  13  14
ENDBRANCH  12  13
ENDBRANCH  10  12
TORSDOF 4
ENDMDL
MODEL 2
REMARK VINA RESULT:      -6.8      2.133      2.819
REMARK  4 active torsions:
REMARK  status: ('A' for Active; 'I' for Inactive)
REMARK    1  A    between atoms: C_10  and  C_11 
REMARK    2  A    between atoms: C_11  and  C_12 
REMARK    3  A    between atoms: C_12  and  N_13 
REMARK       I    between atoms: N_13  and  C_14 
REMARK    4  A    between atoms: C_14  and  C_16 
ROOT
HETATM    1  C   UNK N   1      28.669  17.709   9.691  0.00  0.00     0.068 C 
HETATM    2  C   UNK N   1      28.339  18.333   8.379  0.00  0.00     0.013 A 
HETATM    3  N   UNK N   1      27.510  19.393   8.257  0.00  0.00    -0.359 N 
HETATM    4  C   UNK N   1      27.461  19.665   6.945  0.00  0.00     0.043 A 
HETATM    5  C   UNK N   1      26.728  20.687   6.345  0.00  0.00     0.030 A 
HETATM    6  C   UNK N   1      26.804  20.820   4.949  0.00  0.00     0.002 A 
HETATM    7  C   UNK N   1      27.603  19.938   4.196  0.00  0.00     0.001 A 
HETATM    8  C   UNK N   1      28.330  18.918   4.833  0.00  0.00     0.014 A 
HETATM    9  C   UNK N   1      28.245  18.797   6.221  0.00  0.00    -0.001 A 
HETATM   10  C   UNK N   1      28.824  17.923   7.140  0.00  0.00    -0.022 A 
HETATM   11  H   UNK N   1      27.039  19.867   8.982  0.00  0.00     0.166 HD
ENDROOT
BRANCH  10  12
HETATM   12  C   UNK N   1      29.782  16.750   7.025  0.00  0.00     0.061 C 
BRANCH  12  13
HETATM   13  C   UNK N   1      30.933  16.604   6.023  0.00  0.00     0.127 C 
BRANCH  13  14
HETATM   14  N   UNK N   1      32.112  17.350   6.350  0.00  0.00    -0.356 N 
HETATM   15  C   UNK N   1      33.330  17.177   5.777  0.00  0.00     0.258 C 
HETATM   16  O   UNK N   1      34.247  17.897   6.138  0.00  0.00    -0.267 OA
HETATM   17  H   UNK N   1      32.031  18.043   7.044  0.00  0.00     0.162 HD
BRANCH  15  18
HETATM   18  C   UNK N   1      33.606  16.151   4.735  0.00  0.00     0.072 A 
HETATM   19  C   UNK N   1      34.276  14.949   4.967  0.00  0.00     0.025 A 
HETATM   20  C   UNK N   1      34.404  14.144   3.801  0.00  0.00     0.009 A 
HETATM   21  C   UNK N   1      33.837  14.708   2.650  0.00  0.00     0.050 A 
HETATM   22  S   UNK N   1      33.208  16.166   3.124  0.00  0.00    -0.097 SA
ENDBRANCH  15  18
ENDBRANCH  13  14
ENDBRANCH  12  13
ENDBRANCH  10  12
TORSDOF 4
ENDMDL
MODEL 3
REMARK VINA RESULT:      -6.7      3.442      7.289
REMARK  4 active torsions:
REMARK  status: ('A' for Active; 'I' for Inactive)
REMARK    1  A    between atoms: C_10  and  C_11 
REMARK    2  A    between atoms: C_11  and  C_12 
REMARK    3  A    between atoms: C_12  and  N_13 
REMARK       I    between atoms: N_13  and  C_14 
REMARK    4  A    between atoms: C_14  and  C_16 
ROOT
HETATM    1  C   UNK N   1      28.602  17.506   9.473  0.00  0.00     0.068 C 
HETATM    2  C   UNK N   1      29.864  17.496   8.683  0.00  0.00     0.013 A 
HETATM    3  N   UNK N   1      31.075  17.751   9.226  0.00  0.00    -0.359 N 
HETATM    4  C   UNK N   1      31.953  17.650   8.217  0.00  0.00     0.043 A 
HETATM    5  C   UNK N   1      33.331  17.829   8.307  0.00  0.00     0.030 A 
HETATM    6  C   UNK N   1      34.093  17.679   7.137  0.00  0.00     0.002 A 
HETATM    7  C   UNK N   1      33.465  17.355   5.919  0.00  0.00     0.001 A 
HETATM    8  C   UNK N   1      32.072  17.180   5.864  0.00  0.00     0.014 A 
HETATM    9  C   UNK N   1      31.327  17.334   7.033  0.00  0.00    -0.001 A 
HETATM   10  C   UNK N   1      29.965  17.229   7.319  0.00  0.00    -0.022 A 
HETATM   11  H   UNK N   1      31.271  17.968  10.166  0.00  0.00     0.166 HD
ENDROOT
BRANCH  10  12
HETATM   12  C   UNK N   1      28.734  16.906   6.492  0.00  0.00     0.061 C 
BRANCH  12  13
HETATM   13  C   UNK N   1      27.812  17.911   5.792  0.00  0.00     0.127 C 
BRANCH  13  14
HETATM   14  N   UNK N   1      28.023  19.279   6.160  0.00  0.00    -0.356 N 
HETATM   15  C   UNK N   1      27.329  20.336   5.668  0.00  0.00     0.258 C 
HETATM   16  O   UNK N   1      27.601  21.451   6.085  0.00  0.00    -0.267 OA
HETATM   17  H   UNK N   1      28.727  19.465   6.822  0.00  0.00     0.162 HD
BRANCH  15  18
HETATM   18  C   UNK N   1      26.257  20.208   4.645  0.00  0.00     0.072 A 
HETATM   19  C   UNK N   1      26.372  20.637   3.322  0.00  0.00     0.025 A 
HETATM   20  C   UNK N   1      25.202  20.391   2.550  0.00  0.00     0.009 A 
HETATM   21  C   UNK N   1      24.166  19.770   3.259  0.00  0.00     0.050 A 
HETATM   22  S   UNK N   1      24.739  19.554   4.799  0.00  0.00    -0.097 SA
ENDBRANCH  15  18
ENDBRANCH  13  14
ENDBRANCH  12  13
ENDBRANCH  10  12
TORSDOF 4
ENDMDL
MODEL 4
REMARK VINA RESULT:      -6.6     13.721     15.945
REMARK  4 active torsions:
REMARK  status: ('A' for Active; 'I' for Inactive)
REMARK    1  A    between atoms: C_10  and  C_11 
REMARK    2  A    between atoms: C_11  and  C_12 
REMARK    3  A    between atoms: C_12  and  N_13 
REMARK       I    between atoms: N_13  and  C_14 
REMARK    4  A    between atoms: C_14  and  C_16 
ROOT
HETATM    1  C   UNK N   1      27.542  26.239  -8.773  0.00  0.00     0.068 C 
HETATM    2  C   UNK N   1      27.299  27.080  -7.567  0.00  0.00     0.013 A 
HETATM    3  N   UNK N   1      27.948  28.242  -7.337  0.00  0.00    -0.359 N 
HETATM    4  C   UNK N   1      27.467  28.701  -6.173  0.00  0.00     0.043 A 
HETATM    5  C   UNK N   1      27.845  29.882  -5.537  0.00  0.00     0.030 A 
HETATM    6  C   UNK N   1      27.225  30.200  -4.317  0.00  0.00     0.002 A 
HETATM    7  C   UNK N   1      26.253  29.341  -3.771  0.00  0.00     0.001 A 
HETATM    8  C   UNK N   1      25.894  28.158  -4.440  0.00  0.00     0.014 A 
HETATM    9  C   UNK N   1      26.518  27.853  -5.649  0.00  0.00    -0.001 A 
HETATM   10  C   UNK N   1      26.396  26.792  -6.546  0.00  0.00    -0.022 A 
HETATM   11  H   UNK N   1      28.633  28.663  -7.906  0.00  0.00     0.166 HD
ENDROOT
BRANCH  10  12
HETATM   12  C   UNK N   1      25.542  25.537  -6.588  0.00  0.00     0.061 C 
BRANCH  12  13
HETATM   13  C   UNK N   1      25.880  24.178  -5.963  0.00  0.00     0.127 C 
BRANCH  13  14
HETATM   14  N   UNK N   1      25.877  24.159  -4.531  0.00  0.00    -0.356 N 
HETATM   15  C   UNK N   1      26.978  24.284  -3.746  0.00  0.00     0.258 C 
HETATM   16  O   UNK N   1      26.829  24.268  -2.534  0.00  0.00    -0.267 OA
HETATM   17  H   UNK N   1      25.010  24.046  -4.081  0.00  0.00     0.162 HD
BRANCH  15  18
HETATM   18  C   UNK N   1      28.356  24.434  -4.286  0.00  0.00     0.072 A 
HETATM   19  C   UNK N   1      29.067  25.634  -4.314  0.00  0.00     0.025 A 
HETATM   20  C   UNK N   1      30.367  25.502  -4.878  0.00  0.00     0.009 A 
HETATM   21  C   UNK N   1      30.682  24.202  -5.294  0.00  0.00     0.050 A 
HETATM   22  S   UNK N   1      29.350  23.281  -4.948  0.00  0.00    -0.097 SA
ENDBRANCH  15  18
ENDBRANCH  13  14
ENDBRANCH  12  13
ENDBRANCH  10  12
TORSDOF 4
ENDMDL
MODEL 5
REMARK VINA RESULT:      -6.5      1.358      2.202
REMARK  4 active torsions:
REMARK  status: ('A' for Active; 'I' for Inactive)
REMARK    1  A    between atoms: C_10  and  C_11 
REMARK    2  A    between atoms: C_11  and  C_12 
REMARK    3  A    between atoms: C_12  and  N_13 
REMARK       I    between atoms: N_13  and  C_14 
REMARK    4  A    between atoms: C_14  and  C_16 
ROOT
HETATM    1  C   UNK N   1      29.907  15.891   4.223  0.00  0.00     0.068 C 
HETATM    2  C   UNK N   1      29.202  17.113   4.701  0.00  0.00     0.013 A 
HETATM    3  N   UNK N   1      28.554  17.960   3.872  0.00  0.00    -0.359 N 
HETATM    4  C   UNK N   1      28.053  18.924   4.658  0.00  0.00     0.043 A 
HETATM    5  C   UNK N   1      27.300  20.018   4.237  0.00  0.00     0.030 A 
HETATM    6  C   UNK N   1      26.857  20.927   5.212  0.00  0.00     0.002 A 
HETATM    7  C   UNK N   1      27.173  20.720   6.569  0.00  0.00     0.001 A 
HETATM    8  C   UNK N   1      27.933  19.605   6.959  0.00  0.00     0.014 A 
HETATM    9  C   UNK N   1      28.368  18.711   5.980  0.00  0.00    -0.001 A 
HETATM   10  C   UNK N   1      29.117  17.535   6.026  0.00  0.00    -0.022 A 
HETATM   11  H   UNK N   1      28.469  17.886   2.893  0.00  0.00     0.166 HD
ENDROOT
BRANCH  10  12
HETATM   12  C   UNK N   1      29.764  16.737   7.144  0.00  0.00     0.061 C 
BRANCH  12  13
HETATM   13  C   UNK N   1      31.201  16.881   7.658  0.00  0.00     0.127 C 
BRANCH  13  14
HETATM   14  N   UNK N   1      32.128  17.420   6.708  0.00  0.00    -0.356 N 
HETATM   15  C   UNK N   1      33.480  17.359   6.815  0.00  0.00     0.258 C 
HETATM   16  O   UNK N   1      34.153  17.844   5.920  0.00  0.00    -0.267 OA
HETATM   17  H   UNK N   1      31.755  17.868   5.916  0.00  0.00     0.162 HD
BRANCH  15  18
HETATM   18  C   UNK N   1      34.183  16.736   7.969  0.00  0.00     0.072 A 
HETATM   19  C   UNK N   1      34.541  17.413   9.135  0.00  0.00     0.025 A 
HETATM   20  C   UNK N   1      35.199  16.583  10.085  0.00  0.00     0.009 A 
HETATM   21  C   UNK N   1      35.361  15.254   9.671  0.00  0.00     0.050 A 
HETATM   22  S   UNK N   1      34.688  15.166   8.160  0.00  0.00    -0.097 SA
ENDBRANCH  15  18
ENDBRANCH  13  14
ENDBRANCH  12  13
ENDBRANCH  10  12
TORSDOF 4
ENDMDL
MODEL 6
REMARK VINA RESULT:      -6.5      6.262     11.190
REMARK  4 active torsions:
REMARK  status: ('A' for Active; 'I' for Inactive)
REMARK    1  A    between atoms: C_10  and  C_11 
REMARK    2  A    between atoms: C_11  and  C_12 
REMARK    3  A    between atoms: C_12  and  N_13 
REMARK       I    between atoms: N_13  and  C_14 
REMARK    4  A    between atoms: C_14  and  C_16 
ROOT
HETATM    1  C   UNK N   1      37.588  11.533  12.895  0.00  0.00     0.068 C 
HETATM    2  C   UNK N   1      36.978  11.769  14.233  0.00  0.00     0.013 A 
HETATM    3  N   UNK N   1      36.841  10.796  15.161  0.00  0.00    -0.359 N 
HETATM    4  C   UNK N   1      36.260  11.384  16.217  0.00  0.00     0.043 A 
HETATM    5  C   UNK N   1      35.926  10.765  17.420  0.00  0.00     0.030 A 
HETATM    6  C   UNK N   1      35.322  11.547  18.418  0.00  0.00     0.002 A 
HETATM    7  C   UNK N   1      35.072  12.914  18.192  0.00  0.00     0.001 A 
HETATM    8  C   UNK N   1      35.423  13.507  16.967  0.00  0.00     0.014 A 
HETATM    9  C   UNK N   1      36.021  12.718  15.984  0.00  0.00    -0.001 A 
HETATM   10  C   UNK N   1      36.483  12.986  14.695  0.00  0.00    -0.022 A 
HETATM   11  H   UNK N   1      37.111   9.853  15.078  0.00  0.00     0.166 HD
ENDROOT
BRANCH  10  12
HETATM   12  C   UNK N   1      36.535  14.231  13.828  0.00  0.00     0.061 C 
BRANCH  12  13
HETATM   13  C   UNK N   1      35.757  14.476  12.531  0.00  0.00     0.127 C 
BRANCH  13  14
HETATM   14  N   UNK N   1      35.920  15.784  11.970  0.00  0.00    -0.356 N 
HETATM   15  C   UNK N   1      35.468  16.173  10.751  0.00  0.00     0.258 C 
HETATM   16  O   UNK N   1      35.661  17.328  10.404  0.00  0.00    -0.267 OA
HETATM   17  H   UNK N   1      36.399  16.452  12.511  0.00  0.00     0.162 HD
BRANCH  15  18
HETATM   18  C   UNK N   1      34.752  15.265   9.814  0.00  0.00     0.072 A 
HETATM   19  C   UNK N   1      33.366  15.120   9.759  0.00  0.00     0.025 A 
HETATM   20  C   UNK N   1      32.938  14.191   8.770  0.00  0.00     0.009 A 
HETATM   21  C   UNK N   1      33.984  13.603   8.046  0.00  0.00     0.050 A 
HETATM   22  S   UNK N   1      35.379  14.254   8.657  0.00  0.00    -0.097 SA
ENDBRANCH  15  18
ENDBRANCH  13  14
ENDBRANCH  12  13
ENDBRANCH  10  12
TORSDOF 4
ENDMDL
MODEL 7
REMARK VINA RESULT:      -6.3      3.165      7.425
REMARK  4 active torsions:
REMARK  status: ('A' for Active; 'I' for Inactive)
REMARK    1  A    between atoms: C_10  and  C_11 
REMARK    2  A    between atoms: C_11  and  C_12 
REMARK    3  A    between atoms: C_12  and  N_13 
REMARK       I    between atoms: N_13  and  C_14 
REMARK    4  A    between atoms: C_14  and  C_16 
ROOT
HETATM    1  C   UNK N   1      34.196  18.284   8.167  0.00  0.00     0.068 C 
HETATM    2  C   UNK N   1      34.455  17.125   9.065  0.00  0.00     0.013 A 
HETATM    3  N   UNK N   1      35.039  17.250  10.277  0.00  0.00    -0.359 N 
HETATM    4  C   UNK N   1      35.101  16.008  10.779  0.00  0.00     0.043 A 
HETATM    5  C   UNK N   1      35.625  15.648  12.018  0.00  0.00     0.030 A 
HETATM    6  C   UNK N   1      35.600  14.290  12.375  0.00  0.00     0.002 A 
HETATM    7  C   UNK N   1      35.056  13.336  11.494  0.00  0.00     0.001 A 
HETATM    8  C   UNK N   1      34.534  13.733  10.252  0.00  0.00     0.014 A 
HETATM    9  C   UNK N   1      34.566  15.086   9.909  0.00  0.00    -0.001 A 
HETATM   10  C   UNK N   1      34.140  15.797   8.787  0.00  0.00    -0.022 A 
HETATM   11  H   UNK N   1      35.355  18.081  10.703  0.00  0.00     0.166 HD
ENDROOT
BRANCH  10  12
HETATM   12  C   UNK N   1      33.468  15.409   7.482  0.00  0.00     0.061 C 
BRANCH  12  13
HETATM   13  C   UNK N   1      31.961  15.322   7.219  0.00  0.00     0.127 C 
BRANCH  13  14
HETATM   14  N   UNK N   1      31.501  16.090   6.101  0.00  0.00    -0.356 N 
HETATM   15  C   UNK N   1      30.575  17.081   6.162  0.00  0.00     0.258 C 
HETATM   16  O   UNK N   1      30.288  17.669   5.131  0.00  0.00    -0.267 OA
HETATM   17  H   UNK N   1      31.887  15.883   5.220  0.00  0.00     0.162 HD
BRANCH  15  18
HETATM   18  C   UNK N   1      29.889  17.485   7.419  0.00  0.00     0.072 A 
HETATM   19  C   UNK N   1      30.519  18.103   8.500  0.00  0.00     0.025 A 
HETATM   20  C   UNK N   1      29.633  18.388   9.576  0.00  0.00     0.009 A 
HETATM   21  C   UNK N   1      28.308  17.997   9.348  0.00  0.00     0.050 A 
HETATM   22  S   UNK N   1      28.291  17.321   7.835  0.00  0.00    -0.097 SA
ENDBRANCH  15  18
ENDBRANCH  13  14
ENDBRANCH  12  13
ENDBRANCH  10  12
TORSDOF 4
ENDMDL
MODEL 8
REMARK VINA RESULT:      -6.3      7.321     11.898
REMARK  4 active torsions:
REMARK  status: ('A' for Active; 'I' for Inactive)
REMARK    1  A    between atoms: C_10  and  C_11 
REMARK    2  A    between atoms: C_11  and  C_12 
REMARK    3  A    between atoms: C_12  and  N_13 
REMARK       I    between atoms: N_13  and  C_14 
REMARK    4  A    between atoms: C_14  and  C_16 
ROOT
HETATM    1  C   UNK N   1      36.141  10.202  14.108  0.00  0.00     0.068 C 
HETATM    2  C   UNK N   1      35.903  10.852  15.426  0.00  0.00     0.013 A 
HETATM    3  N   UNK N   1      36.041  10.203  16.603  0.00  0.00    -0.359 N 
HETATM    4  C   UNK N   1      35.748  11.105  17.551  0.00  0.00     0.043 A 
HETATM    5  C   UNK N   1      35.760  10.883  18.926  0.00  0.00     0.030 A 
HETATM    6  C   UNK N   1      35.424  11.956  19.769  0.00  0.00     0.002 A 
HETATM    7  C   UNK N   1      35.090  13.210  19.221  0.00  0.00     0.001 A 
HETATM    8  C   UNK N   1      35.089  13.399  17.829  0.00  0.00     0.014 A 
HETATM    9  C   UNK N   1      35.423  12.324  17.003  0.00  0.00    -0.001 A 
HETATM   10  C   UNK N   1      35.520  12.178  15.620  0.00  0.00    -0.022 A 
HETATM   11  H   UNK N   1      36.301   9.262  16.736  0.00  0.00     0.166 HD
ENDROOT
BRANCH  10  12
HETATM   12  C   UNK N   1      35.309  13.111  14.441  0.00  0.00     0.061 C 
BRANCH  12  13
HETATM   13  C   UNK N   1      36.349  14.052  13.821  0.00  0.00     0.127 C 
BRANCH  13  14
HETATM   14  N   UNK N   1      37.191  13.449  12.831  0.00  0.00    -0.356 N 
HETATM   15  C   UNK N   1      37.030  13.572  11.489  0.00  0.00     0.258 C 
HETATM   16  O   UNK N   1      37.835  13.017  10.757  0.00  0.00    -0.267 OA
HETATM   17  H   UNK N   1      37.944  12.902  13.150  0.00  0.00     0.162 HD
BRANCH  15  18
HETATM   18  C   UNK N   1      35.922  14.343  10.864  0.00  0.00     0.072 A 
HETATM   19  C   UNK N   1      34.752  13.776  10.358  0.00  0.00     0.025 A 
HETATM   20  C   UNK N   1      33.851  14.737   9.818  0.00  0.00     0.009 A 
HETATM   21  C   UNK N   1      34.308  16.059   9.898  0.00  0.00     0.050 A 
HETATM   22  S   UNK N   1      35.794  15.981  10.627  0.00  0.00    -0.097 SA
ENDBRANCH  15  18
ENDBRANCH  13  14
ENDBRANCH  12  13
ENDBRANCH  10  12
TORSDOF 4
ENDMDL
MODEL 9
REMARK VINA RESULT:      -6.3      8.488     11.399
REMARK  4 active torsions:
REMARK  status: ('A' for Active; 'I' for Inactive)
REMARK    1  A    between atoms: C_10  and  C_11 
REMARK    2  A    between atoms: C_11  and  C_12 
REMARK    3  A    between atoms: C_12  and  N_13 
REMARK       I    between atoms: N_13  and  C_14 
REMARK    4  A    between atoms: C_14  and  C_16 
ROOT
HETATM    1  C   UNK N   1      25.234  13.973   7.820  0.00  0.00     0.068 C 
HETATM    2  C   UNK N   1      24.251  13.481   8.825  0.00  0.00     0.013 A 
HETATM    3  N   UNK N   1      24.617  12.887   9.983  0.00  0.00    -0.359 N 
HETATM    4  C   UNK N   1      23.472  12.590  10.614  0.00  0.00     0.043 A 
HETATM    5  C   UNK N   1      23.356  11.967  11.855  0.00  0.00     0.030 A 
HETATM    6  C   UNK N   1      22.066  11.739  12.360  0.00  0.00     0.002 A 
HETATM    7  C   UNK N   1      20.935  12.136  11.620  0.00  0.00     0.001 A 
HETATM    8  C   UNK N   1      21.088  12.763  10.372  0.00  0.00     0.014 A 
HETATM    9  C   UNK N   1      22.375  12.982   9.882  0.00  0.00    -0.001 A 
HETATM   10  C   UNK N   1      22.865  13.566   8.713  0.00  0.00    -0.022 A 
HETATM   11  H   UNK N   1      25.533  12.709  10.296  0.00  0.00     0.166 HD
ENDROOT
BRANCH  10  12
HETATM   12  C   UNK N   1      22.216  14.203   7.498  0.00  0.00     0.061 C 
BRANCH  12  13
HETATM   13  C   UNK N   1      20.901  14.989   7.469  0.00  0.00     0.127 C 
BRANCH  13  14
HETATM   14  N   UNK N   1      21.042  16.403   7.653  0.00  0.00    -0.356 N 
HETATM   15  C   UNK N   1      21.124  17.316   6.653  0.00  0.00     0.258 C 
HETATM   16  O   UNK N   1      21.224  18.496   6.954  0.00  0.00    -0.267 OA
HETATM   17  H   UNK N   1      21.082  16.737   8.578  0.00  0.00     0.162 HD
BRANCH  15  18
HETATM   18  C   UNK N   1      21.105  16.955   5.210  0.00  0.00     0.072 A 
HETATM   19  C   UNK N   1      22.244  16.758   4.429  0.00  0.00     0.025 A 
HETATM   20  C   UNK N   1      21.947  16.415   3.080  0.00  0.00     0.009 A 
HETATM   21  C   UNK N   1      20.577  16.342   2.796  0.00  0.00     0.050 A 
HETATM   22  S   UNK N   1      19.801  16.702   4.215  0.00  0.00    -0.097 SA
ENDBRANCH  15  18
ENDBRANCH  13  14
ENDBRANCH  12  13
ENDBRANCH  10  12
TORSDOF 4
ENDMDL
