MODEL 1
REMARK VINA RESULT:      -6.4      0.000      0.000
REMARK  3 active torsions:
REMARK  status: ('A' for Active; 'I' for Inactive)
REMARK    1  A    between atoms: C_8  and  C_7 
REMARK    2  A    between atoms: N_13  and  C_14 
REMARK    3  A    between atoms: C_19  and  O_20 
ROOT
HETATM    1  C   UNK N   1      21.488  16.080   4.759  0.00  0.00     0.188 C 
HETATM    2  S   UNK N   1      20.107  15.363   5.722  0.00  0.00    -0.129 SA
HETATM    3  C   UNK N   1      20.424  16.547   7.056  0.00  0.00     0.179 C 
HETATM    4  C   UNK N   1      21.083  17.695   6.396  0.00  0.00     0.235 C 
HETATM    5  O   UNK N   1      21.298  18.715   7.030  0.00  0.00    -0.272 OA
HETATM    6  N   UNK N   1      21.515  17.508   5.115  0.00  0.00    -0.296 N 
ENDROOT
BRANCH   6   7
HETATM    7  C   UNK N   1      22.167  18.559   4.343  0.00  0.00     0.073 A 
HETATM    8  C   UNK N   1      23.565  18.691   4.377  0.00  0.00     0.056 A 
HETATM    9  C   UNK N   1      24.229  19.647   3.602  0.00  0.00     0.036 A 
HETATM   10  C   UNK N   1      23.507  20.516   2.793  0.00  0.00     0.026 A 
HETATM   11 Cl   UNK N   1      25.976  19.717   3.600  0.00  0.00    -0.084 Cl
HETATM   12  C   UNK N   1      22.123  20.420   2.738  0.00  0.00     0.040 A 
HETATM   13  C   UNK N   1      21.444  19.452   3.481  0.00  0.00     0.092 A 
BRANCH  13  14
HETATM   14  O   UNK N   1      20.117  19.362   3.302  0.00  0.00    -0.358 OA
HETATM   15  H   UNK N   1      19.546  18.622   3.368  0.00  0.00     0.217 HD
ENDBRANCH  13  14
ENDBRANCH   6   7
BRANCH   1  16
HETATM   16  C   UNK N   1      21.405  15.572   3.320  0.00  0.00    -0.024 A 
HETATM   17  C   UNK N   1      22.469  15.008   2.598  0.00  0.00     0.029 A 
HETATM   18  C   UNK N   1      22.252  14.462   1.323  0.00  0.00     0.011 A 
HETATM   19 Br   UNK N   1      23.663  13.574   0.404  0.00  0.00    -0.051 Br
HETATM   20  C   UNK N   1      20.982  14.508   0.743  0.00  0.00     0.019 A 
HETATM   21  C   UNK N   1      19.926  15.098   1.431  0.00  0.00     0.002 A 
HETATM   22  C   UNK N   1      20.134  15.607   2.713  0.00  0.00     0.010 A 
ENDBRANCH   1  16
TORSDOF 3
ENDMDL
MODEL 2
REMARK VINA RESULT:      -6.4      1.538      1.951
REMARK  3 active torsions:
REMARK  status: ('A' for Active; 'I' for Inactive)
REMARK    1  A    between atoms: C_8  and  C_7 
REMARK    2  A    between atoms: N_13  and  C_14 
REMARK    3  A    between atoms: C_19  and  O_20 
ROOT
HETATM    1  C   UNK N   1      21.466  15.937   4.845  0.00  0.00     0.188 C 
HETATM    2  S   UNK N   1      20.126  15.228   5.871  0.00  0.00    -0.129 SA
HETATM    3  C   UNK N   1      20.457  16.464   7.154  0.00  0.00     0.179 C 
HETATM    4  C   UNK N   1      21.075  17.599   6.437  0.00  0.00     0.235 C 
HETATM    5  O   UNK N   1      21.289  18.644   7.030  0.00  0.00    -0.272 OA
HETATM    6  N   UNK N   1      21.475  17.376   5.151  0.00  0.00    -0.296 N 
ENDROOT
BRANCH   6   7
HETATM    7  C   UNK N   1      22.086  18.411   4.326  0.00  0.00     0.073 A 
HETATM    8  C   UNK N   1      21.294  19.165   3.444  0.00  0.00     0.056 A 
HETATM    9  C   UNK N   1      21.834  20.208   2.684  0.00  0.00     0.036 A 
HETATM   10  C   UNK N   1      23.190  20.503   2.766  0.00  0.00     0.026 A 
HETATM   11 Cl   UNK N   1      20.798  21.184   1.669  0.00  0.00    -0.084 Cl
HETATM   12  C   UNK N   1      24.005  19.775   3.621  0.00  0.00     0.040 A 
HETATM   13  C   UNK N   1      23.479  18.751   4.412  0.00  0.00     0.092 A 
BRANCH  13  14
HETATM   14  O   UNK N   1      24.312  18.159   5.281  0.00  0.00    -0.358 OA
HETATM   15  H   UNK N   1      24.955  17.490   5.144  0.00  0.00     0.217 HD
ENDBRANCH  13  14
ENDBRANCH   6   7
BRANCH   1  16
HETATM   16  C   UNK N   1      21.352  15.378   3.427  0.00  0.00    -0.024 A 
HETATM   17  C   UNK N   1      22.428  14.928   2.646  0.00  0.00     0.029 A 
HETATM   18  C   UNK N   1      22.198  14.320   1.401  0.00  0.00     0.011 A 
HETATM   19 Br   UNK N   1      23.646  13.585   0.407  0.00  0.00    -0.051 Br
HETATM   20  C   UNK N   1      20.897  14.190   0.910  0.00  0.00     0.019 A 
HETATM   21  C   UNK N   1      19.823  14.666   1.657  0.00  0.00     0.002 A 
HETATM   22  C   UNK N   1      20.049  15.236   2.909  0.00  0.00     0.010 A 
ENDBRANCH   1  16
TORSDOF 3
ENDMDL
MODEL 3
REMARK VINA RESULT:      -6.2      3.268      4.865
REMARK  3 active torsions:
REMARK  status: ('A' for Active; 'I' for Inactive)
REMARK    1  A    between atoms: C_8  and  C_7 
REMARK    2  A    between atoms: N_13  and  C_14 
REMARK    3  A    between atoms: C_19  and  O_20 
ROOT
HETATM    1  C   UNK N   1      19.349  15.517   4.352  0.00  0.00     0.188 C 
HETATM    2  S   UNK N   1      19.501  13.722   4.027  0.00  0.00    -0.129 SA
HETATM    3  C   UNK N   1      19.420  14.038   2.244  0.00  0.00     0.179 C 
HETATM    4  C   UNK N   1      19.900  15.428   2.084  0.00  0.00     0.235 C 
HETATM    5  O   UNK N   1      20.083  15.879   0.965  0.00  0.00    -0.272 OA
HETATM    6  N   UNK N   1      20.017  16.178   3.219  0.00  0.00    -0.296 N 
ENDROOT
BRANCH   6   7
HETATM    7  C   UNK N   1      20.491  17.556   3.205  0.00  0.00     0.073 A 
HETATM    8  C   UNK N   1      21.827  17.843   3.530  0.00  0.00     0.056 A 
HETATM    9  C   UNK N   1      22.333  19.146   3.467  0.00  0.00     0.036 A 
HETATM   10  C   UNK N   1      21.504  20.201   3.105  0.00  0.00     0.026 A 
HETATM   11 Cl   UNK N   1      24.025  19.448   3.787  0.00  0.00    -0.084 Cl
HETATM   12  C   UNK N   1      20.176  19.957   2.784  0.00  0.00     0.040 A 
HETATM   13  C   UNK N   1      19.660  18.659   2.811  0.00  0.00     0.092 A 
BRANCH  13  14
HETATM   14  O   UNK N   1      18.394  18.495   2.397  0.00  0.00    -0.358 OA
HETATM   15  H   UNK N   1      18.056  18.039   1.650  0.00  0.00     0.217 HD
ENDBRANCH  13  14
ENDBRANCH   6   7
BRANCH   1  16
HETATM   16  C   UNK N   1      19.704  15.787   5.813  0.00  0.00    -0.024 A 
HETATM   17  C   UNK N   1      18.898  16.485   6.726  0.00  0.00     0.029 A 
HETATM   18  C   UNK N   1      19.265  16.571   8.078  0.00  0.00     0.011 A 
HETATM   19 Br   UNK N   1      18.103  17.397   9.341  0.00  0.00    -0.051 Br
HETATM   20  C   UNK N   1      20.457  15.995   8.523  0.00  0.00     0.019 A 
HETATM   21  C   UNK N   1      21.286  15.333   7.621  0.00  0.00     0.002 A 
HETATM   22  C   UNK N   1      20.902  15.215   6.286  0.00  0.00     0.010 A 
ENDBRANCH   1  16
TORSDOF 3
ENDMDL
MODEL 4
REMARK VINA RESULT:      -6.2     12.010     14.065
REMARK  3 active torsions:
REMARK  status: ('A' for Active; 'I' for Inactive)
REMARK    1  A    between atoms: C_8  and  C_7 
REMARK    2  A    between atoms: N_13  and  C_14 
REMARK    3  A    between atoms: C_19  and  O_20 
ROOT
HETATM    1  C   UNK N   1      27.402  25.856  -5.870  0.00  0.00     0.188 C 
HETATM    2  S   UNK N   1      25.881  25.957  -6.882  0.00  0.00    -0.129 SA
HETATM    3  C   UNK N   1      26.231  24.317  -7.571  0.00  0.00     0.179 C 
HETATM    4  C   UNK N   1      27.063  23.647  -6.549  0.00  0.00     0.235 C 
HETATM    5  O   UNK N   1      27.346  22.467  -6.679  0.00  0.00    -0.272 OA
HETATM    6  N   UNK N   1      27.565  24.429  -5.548  0.00  0.00    -0.296 N 
ENDROOT
BRANCH   6   7
HETATM    7  C   UNK N   1      28.388  23.895  -4.470  0.00  0.00     0.073 A 
HETATM    8  C   UNK N   1      29.735  23.575  -4.706  0.00  0.00     0.056 A 
HETATM    9  C   UNK N   1      30.571  23.121  -3.681  0.00  0.00     0.036 A 
HETATM   10  C   UNK N   1      30.070  22.945  -2.397  0.00  0.00     0.026 A 
HETATM   11 Cl   UNK N   1      32.265  22.825  -3.995  0.00  0.00    -0.084 Cl
HETATM   12  C   UNK N   1      28.742  23.243  -2.126  0.00  0.00     0.040 A 
HETATM   13  C   UNK N   1      27.900  23.728  -3.130  0.00  0.00     0.092 A 
BRANCH  13  14
HETATM   14  O   UNK N   1      26.657  24.082  -2.768  0.00  0.00    -0.358 OA
HETATM   15  H   UNK N   1      26.353  24.522  -1.997  0.00  0.00     0.217 HD
ENDBRANCH  13  14
ENDBRANCH   6   7
BRANCH   1  16
HETATM   16  C   UNK N   1      27.368  26.959  -4.813  0.00  0.00    -0.024 A 
HETATM   17  C   UNK N   1      28.487  27.463  -4.133  0.00  0.00     0.029 A 
HETATM   18  C   UNK N   1      28.359  28.562  -3.269  0.00  0.00     0.011 A 
HETATM   19 Br   UNK N   1      29.899  29.332  -2.456  0.00  0.00    -0.051 Br
HETATM   20  C   UNK N   1      27.109  29.143  -3.048  0.00  0.00     0.019 A 
HETATM   21  C   UNK N   1      25.983  28.629  -3.686  0.00  0.00     0.002 A 
HETATM   22  C   UNK N   1      26.117  27.562  -4.573  0.00  0.00     0.010 A 
ENDBRANCH   1  16
TORSDOF 3
ENDMDL
MODEL 5
REMARK VINA RESULT:      -6.1      6.407      8.248
REMARK  3 active torsions:
REMARK  status: ('A' for Active; 'I' for Inactive)
REMARK    1  A    between atoms: C_8  and  C_7 
REMARK    2  A    between atoms: N_13  and  C_14 
REMARK    3  A    between atoms: C_19  and  O_20 
ROOT
HETATM    1  C   UNK N   1      28.542  16.941   4.099  0.00  0.00     0.188 C 
HETATM    2  S   UNK N   1      27.778  15.713   2.978  0.00  0.00    -0.129 SA
HETATM    3  C   UNK N   1      28.942  14.454   3.564  0.00  0.00     0.179 C 
HETATM    4  C   UNK N   1      29.335  14.903   4.917  0.00  0.00     0.235 C 
HETATM    5  O   UNK N   1      30.019  14.176   5.620  0.00  0.00    -0.272 OA
HETATM    6  N   UNK N   1      28.990  16.175   5.274  0.00  0.00    -0.296 N 
ENDROOT
BRANCH   6   7
HETATM    7  C   UNK N   1      29.303  16.738   6.581  0.00  0.00     0.073 A 
HETATM    8  C   UNK N   1      30.624  17.097   6.894  0.00  0.00     0.056 A 
HETATM    9  C   UNK N   1      30.951  17.698   8.114  0.00  0.00     0.036 A 
HETATM   10  C   UNK N   1      29.965  17.929   9.066  0.00  0.00     0.026 A 
HETATM   11 Cl   UNK N   1      32.591  18.215   8.427  0.00  0.00    -0.084 Cl
HETATM   12  C   UNK N   1      28.649  17.582   8.795  0.00  0.00     0.040 A 
HETATM   13  C   UNK N   1      28.297  17.009   7.570  0.00  0.00     0.092 A 
BRANCH  13  14
HETATM   14  O   UNK N   1      26.992  16.790   7.349  0.00  0.00    -0.358 OA
HETATM   15  H   UNK N   1      26.263  17.378   7.395  0.00  0.00     0.217 HD
ENDBRANCH  13  14
ENDBRANCH   6   7
BRANCH   1  16
HETATM   16  C   UNK N   1      27.631  18.165   4.189  0.00  0.00    -0.024 A 
HETATM   17  C   UNK N   1      26.270  18.186   3.848  0.00  0.00     0.029 A 
HETATM   18  C   UNK N   1      25.496  19.334   4.084  0.00  0.00     0.011 A 
HETATM   19 Br   UNK N   1      23.621  19.315   3.750  0.00  0.00    -0.051 Br
HETATM   20  C   UNK N   1      26.081  20.479   4.627  0.00  0.00     0.019 A 
HETATM   21  C   UNK N   1      27.438  20.485   4.935  0.00  0.00     0.002 A 
HETATM   22  C   UNK N   1      28.198  19.333   4.735  0.00  0.00     0.010 A 
ENDBRANCH   1  16
TORSDOF 3
ENDMDL
MODEL 6
REMARK VINA RESULT:      -5.9     11.961     13.585
REMARK  3 active torsions:
REMARK  status: ('A' for Active; 'I' for Inactive)
REMARK    1  A    between atoms: C_8  and  C_7 
REMARK    2  A    between atoms: N_13  and  C_14 
REMARK    3  A    between atoms: C_19  and  O_20 
ROOT
HETATM    1  C   UNK N   1      27.065  24.644  -4.575  0.00  0.00     0.188 C 
HETATM    2  S   UNK N   1      26.703  23.780  -6.147  0.00  0.00    -0.129 SA
HETATM    3  C   UNK N   1      25.639  25.156  -6.657  0.00  0.00     0.179 C 
HETATM    4  C   UNK N   1      26.149  26.326  -5.911  0.00  0.00     0.235 C 
HETATM    5  O   UNK N   1      25.706  27.437  -6.153  0.00  0.00    -0.272 OA
HETATM    6  N   UNK N   1      27.032  26.079  -4.899  0.00  0.00    -0.296 N 
ENDROOT
BRANCH   6   7
HETATM    7  C   UNK N   1      27.621  27.141  -4.093  0.00  0.00     0.073 A 
HETATM    8  C   UNK N   1      28.987  27.444  -4.221  0.00  0.00     0.056 A 
HETATM    9  C   UNK N   1      29.573  28.497  -3.510  0.00  0.00     0.036 A 
HETATM   10  C   UNK N   1      28.811  29.256  -2.629  0.00  0.00     0.026 A 
HETATM   11 Cl   UNK N   1      31.254  28.903  -3.768  0.00  0.00    -0.084 Cl
HETATM   12  C   UNK N   1      27.460  28.981  -2.471  0.00  0.00     0.040 A 
HETATM   13  C   UNK N   1      26.850  27.954  -3.195  0.00  0.00     0.092 A 
BRANCH  13  14
HETATM   14  O   UNK N   1      25.522  27.813  -3.057  0.00  0.00    -0.358 OA
HETATM   15  H   UNK N   1      24.898  27.388  -3.613  0.00  0.00     0.217 HD
ENDBRANCH  13  14
ENDBRANCH   6   7
BRANCH   1  16
HETATM   16  C   UNK N   1      28.251  23.961  -3.896  0.00  0.00    -0.024 A 
HETATM   17  C   UNK N   1      29.509  23.754  -4.482  0.00  0.00     0.029 A 
HETATM   18  C   UNK N   1      30.568  23.224  -3.727  0.00  0.00     0.011 A 
HETATM   19 Br   UNK N   1      32.309  23.074  -4.482  0.00  0.00    -0.051 Br
HETATM   20  C   UNK N   1      30.369  22.863  -2.392  0.00  0.00     0.019 A 
HETATM   21  C   UNK N   1      29.116  23.026  -1.809  0.00  0.00     0.002 A 
HETATM   22  C   UNK N   1      28.075  23.587  -2.549  0.00  0.00     0.010 A 
ENDBRANCH   1  16
TORSDOF 3
ENDMDL
MODEL 7
REMARK VINA RESULT:      -5.9     13.169     15.523
REMARK  3 active torsions:
REMARK  status: ('A' for Active; 'I' for Inactive)
REMARK    1  A    between atoms: C_8  and  C_7 
REMARK    2  A    between atoms: N_13  and  C_14 
REMARK    3  A    between atoms: C_19  and  O_20 
ROOT
HETATM    1  C   UNK N   1      27.060  28.855  -5.614  0.00  0.00     0.188 C 
HETATM    2  S   UNK N   1      27.531  30.346  -4.663  0.00  0.00    -0.129 SA
HETATM    3  C   UNK N   1      26.544  29.762  -3.260  0.00  0.00     0.179 C 
HETATM    4  C   UNK N   1      26.489  28.293  -3.421  0.00  0.00     0.235 C 
HETATM    5  O   UNK N   1      25.995  27.606  -2.540  0.00  0.00    -0.272 OA
HETATM    6  N   UNK N   1      26.909  27.784  -4.616  0.00  0.00    -0.296 N 
ENDROOT
BRANCH   6   7
HETATM    7  C   UNK N   1      26.921  26.355  -4.902  0.00  0.00     0.073 A 
HETATM    8  C   UNK N   1      28.055  25.585  -4.593  0.00  0.00     0.056 A 
HETATM    9  C   UNK N   1      28.078  24.201  -4.796  0.00  0.00     0.036 A 
HETATM   10  C   UNK N   1      26.975  23.555  -5.342  0.00  0.00     0.026 A 
HETATM   11 Cl   UNK N   1      29.473  23.265  -4.310  0.00  0.00    -0.084 Cl
HETATM   12  C   UNK N   1      25.839  24.284  -5.667  0.00  0.00     0.040 A 
HETATM   13  C   UNK N   1      25.785  25.662  -5.443  0.00  0.00     0.092 A 
BRANCH  13  14
HETATM   14  O   UNK N   1      24.619  26.278  -5.694  0.00  0.00    -0.358 OA
HETATM   15  H   UNK N   1      24.353  27.161  -5.527  0.00  0.00     0.217 HD
ENDBRANCH  13  14
ENDBRANCH   6   7
BRANCH   1  16
HETATM   16  C   UNK N   1      27.966  28.743  -6.840  0.00  0.00    -0.024 A 
HETATM   17  C   UNK N   1      27.847  27.773  -7.848  0.00  0.00     0.029 A 
HETATM   18  C   UNK N   1      28.657  27.835  -8.993  0.00  0.00     0.011 A 
HETATM   19 Br   UNK N   1      28.399  26.603 -10.422  0.00  0.00    -0.051 Br
HETATM   20  C   UNK N   1      29.615  28.842  -9.124  0.00  0.00     0.019 A 
HETATM   21  C   UNK N   1      29.771  29.788  -8.115  0.00  0.00     0.002 A 
HETATM   22  C   UNK N   1      28.941  29.748  -6.995  0.00  0.00     0.010 A 
ENDBRANCH   1  16
TORSDOF 3
ENDMDL
MODEL 8
REMARK VINA RESULT:      -5.9     12.342     14.830
REMARK  3 active torsions:
REMARK  status: ('A' for Active; 'I' for Inactive)
REMARK    1  A    between atoms: C_8  and  C_7 
REMARK    2  A    between atoms: N_13  and  C_14 
REMARK    3  A    between atoms: C_19  and  O_20 
ROOT
HETATM    1  C   UNK N   1      27.041  25.680  -7.606  0.00  0.00     0.188 C 
HETATM    2  S   UNK N   1      25.592  25.772  -8.720  0.00  0.00    -0.129 SA
HETATM    3  C   UNK N   1      25.511  23.962  -8.762  0.00  0.00     0.179 C 
HETATM    4  C   UNK N   1      26.149  23.525  -7.502  0.00  0.00     0.235 C 
HETATM    5  O   UNK N   1      26.122  22.346  -7.188  0.00  0.00    -0.272 OA
HETATM    6  N   UNK N   1      26.837  24.469  -6.795  0.00  0.00    -0.296 N 
ENDROOT
BRANCH   6   7
HETATM    7  C   UNK N   1      27.501  24.177  -5.532  0.00  0.00     0.073 A 
HETATM    8  C   UNK N   1      28.863  23.832  -5.516  0.00  0.00     0.056 A 
HETATM    9  C   UNK N   1      29.548  23.607  -4.318  0.00  0.00     0.036 A 
HETATM   10  C   UNK N   1      28.878  23.692  -3.102  0.00  0.00     0.026 A 
HETATM   11 Cl   UNK N   1      31.264  23.274  -4.335  0.00  0.00    -0.084 Cl
HETATM   12  C   UNK N   1      27.531  24.023  -3.078  0.00  0.00     0.040 A 
HETATM   13  C   UNK N   1      26.837  24.282  -4.262  0.00  0.00     0.092 A 
BRANCH  13  14
HETATM   14  O   UNK N   1      25.563  24.687  -4.149  0.00  0.00    -0.358 OA
HETATM   15  H   UNK N   1      25.150  25.477  -4.441  0.00  0.00     0.217 HD
ENDBRANCH  13  14
ENDBRANCH   6   7
BRANCH   1  16
HETATM   16  C   UNK N   1      27.293  27.063  -7.006  0.00  0.00    -0.024 A 
HETATM   17  C   UNK N   1      26.668  27.572  -5.857  0.00  0.00     0.029 A 
HETATM   18  C   UNK N   1      27.063  28.809  -5.322  0.00  0.00     0.011 A 
HETATM   19 Br   UNK N   1      26.313  29.434  -3.687  0.00  0.00    -0.051 Br
HETATM   20  C   UNK N   1      28.057  29.563  -5.950  0.00  0.00     0.019 A 
HETATM   21  C   UNK N   1      28.658  29.088  -7.111  0.00  0.00     0.002 A 
HETATM   22  C   UNK N   1      28.293  27.843  -7.621  0.00  0.00     0.010 A 
ENDBRANCH   1  16
TORSDOF 3
ENDMDL
MODEL 9
REMARK VINA RESULT:      -5.8      5.987      7.322
REMARK  3 active torsions:
REMARK  status: ('A' for Active; 'I' for Inactive)
REMARK    1  A    between atoms: C_8  and  C_7 
REMARK    2  A    between atoms: N_13  and  C_14 
REMARK    3  A    between atoms: C_19  and  O_20 
ROOT
HETATM    1  C   UNK N   1      26.303  17.422   5.401  0.00  0.00     0.188 C 
HETATM    2  S   UNK N   1      25.814  17.705   3.661  0.00  0.00    -0.129 SA
HETATM    3  C   UNK N   1      26.438  19.404   3.763  0.00  0.00     0.179 C 
HETATM    4  C   UNK N   1      27.460  19.369   4.831  0.00  0.00     0.235 C 
HETATM    5  O   UNK N   1      28.154  20.351   5.037  0.00  0.00    -0.272 OA
HETATM    6  N   UNK N   1      27.502  18.249   5.612  0.00  0.00    -0.296 N 
ENDROOT
BRANCH   6   7
HETATM    7  C   UNK N   1      28.468  18.078   6.690  0.00  0.00     0.073 A 
HETATM    8  C   UNK N   1      29.659  17.369   6.461  0.00  0.00     0.056 A 
HETATM    9  C   UNK N   1      30.636  17.239   7.452  0.00  0.00     0.036 A 
HETATM   10  C   UNK N   1      30.433  17.790   8.712  0.00  0.00     0.026 A 
HETATM   11 Cl   UNK N   1      32.146  16.432   7.098  0.00  0.00    -0.084 Cl
HETATM   12  C   UNK N   1      29.265  18.491   8.978  0.00  0.00     0.040 A 
HETATM   13  C   UNK N   1      28.291  18.659   7.991  0.00  0.00     0.092 A 
BRANCH  13  14
HETATM   14  O   UNK N   1      27.235  19.428   8.298  0.00  0.00    -0.358 OA
HETATM   15  H   UNK N   1      27.065  19.948   9.059  0.00  0.00     0.217 HD
ENDBRANCH  13  14
ENDBRANCH   6   7
BRANCH   1  16
HETATM   16  C   UNK N   1      26.253  15.922   5.692  0.00  0.00    -0.024 A 
HETATM   17  C   UNK N   1      25.658  15.336   6.819  0.00  0.00     0.029 A 
HETATM   18  C   UNK N   1      25.562  13.939   6.928  0.00  0.00     0.011 A 
HETATM   19 Br   UNK N   1      24.631  13.149   8.389  0.00  0.00    -0.051 Br
HETATM   20  C   UNK N   1      26.090  13.117   5.930  0.00  0.00     0.019 A 
HETATM   21  C   UNK N   1      26.718  13.684   4.825  0.00  0.00     0.002 A 
HETATM   22  C   UNK N   1      26.780  15.072   4.700  0.00  0.00     0.010 A 
ENDBRANCH   1  16
TORSDOF 3
ENDMDL
