REMARK  3 active torsions:
REMARK  status: ('A' for Active; 'I' for Inactive)
REMARK    1  A    between atoms: C_8  and  C_7 
REMARK    2  A    between atoms: N_13  and  C_14 
REMARK    3  A    between atoms: C_19  and  O_20 
ROOT
HETATM    1  C   UNK N   1      -1.126  -0.638  -0.379  0.00  0.00     0.188 C 
HETATM    2  S   UNK N   1      -2.581  -1.479   0.346  0.00  0.00    -0.129 SA
HETATM    3  C   UNK N   1      -1.824  -3.088  -0.003  0.00  0.00     0.179 C 
HETATM    4  C   UNK N   1      -0.370  -2.822  -0.044  0.00  0.00     0.235 C 
HETATM    5  O   UNK N   1       0.413  -3.754  -0.131  0.00  0.00    -0.272 OA
HETATM    6  N   UNK N   1       0.020  -1.514  -0.086  0.00  0.00    -0.296 N 
ENDROOT
BRANCH   6   7
HETATM    7  C   UNK N   1       1.420  -1.111  -0.115  0.00  0.00     0.073 A 
HETATM    8  C   UNK N   1       1.797   0.076  -0.765  0.00  0.00     0.056 A 
HETATM    9  C   UNK N   1       3.121   0.526  -0.759  0.00  0.00     0.036 A 
HETATM   10  C   UNK N   1       4.110  -0.218  -0.126  0.00  0.00     0.026 A 
HETATM   11 Cl   UNK N   1       3.533   2.056  -1.498  0.00  0.00    -0.084 Cl
HETATM   12  C   UNK N   1       3.777  -1.400   0.521  0.00  0.00     0.040 A 
HETATM   13  C   UNK N   1       2.455  -1.850   0.553  0.00  0.00     0.092 A 
BRANCH  13  14
HETATM   14  O   UNK N   1       2.200  -2.950   1.278  0.00  0.00    -0.358 OA
HETATM   15  H   UNK N   1       1.445  -3.180   1.784  0.00  0.00     0.217 HD
ENDBRANCH  13  14
ENDBRANCH   6   7
BRANCH   1  16
HETATM   16  C   UNK N   1      -1.172   0.843  -0.004  0.00  0.00    -0.024 A 
HETATM   17  C   UNK N   1      -0.120   1.561   0.585  0.00  0.00     0.029 A 
HETATM   18  C   UNK N   1      -0.226   2.948   0.777  0.00  0.00     0.011 A 
HETATM   19 Br   UNK N   1       1.253   3.943   1.447  0.00  0.00    -0.051 Br
HETATM   20  C   UNK N   1      -1.395   3.622   0.417  0.00  0.00     0.019 A 
HETATM   21  C   UNK N   1      -2.461   2.916  -0.133  0.00  0.00     0.002 A 
HETATM   22  C   UNK N   1      -2.341   1.545  -0.358  0.00  0.00     0.010 A 
ENDBRANCH   1  16
TORSDOF 3
