REMARK  9 active torsions:
REMARK  status: ('A' for Active; 'I' for Inactive)
REMARK    1  A    between atoms: P_1  and  O_2 
REMARK    2  A    between atoms: P_1  and  O_4 
REMARK    3  A    between atoms: P_1  and  O_5 
REMARK    4  A    between atoms: O_5  and  C_35 
REMARK    5  A    between atoms: C_15  and  C_16 
REMARK    6  A    between atoms: C_16  and  N_17 
REMARK       I    between atoms: N_17  and  C_18 
REMARK    7  A    between atoms: C_30  and  N_29 
REMARK    8  A    between atoms: C_33  and  O_36 
REMARK    9  A    between atoms: C_34  and  C_35 
ROOT
HETATM    1  N   UNK N   1       2.774  -1.774  -0.002  0.00  0.00    -0.222 N 
HETATM    2  C   UNK N   1       1.759  -2.738  -0.062  0.00  0.00     0.682 A 
HETATM    3  N   UNK N   1       2.011  -4.084  -0.215  0.00  0.00    -0.154 N 
HETATM    4  C   UNK N   1       0.958  -4.984  -0.271  0.00  0.00     0.290 A 
HETATM    5  O   UNK N   1       1.166  -6.180  -0.382  0.00  0.00    -0.265 OA
HETATM    6  N   UNK N   1       0.484  -2.291   0.048  0.00  0.00    -0.174 N 
ATOM      7  HN  UNK N   1       0.298  -1.296   0.176  1.00  0.00     0.186 HD
HETATM    8  C   UNK N   1      -0.528  -3.163  -0.012  0.00  0.00     0.159 A 
HETATM    9  C   UNK N   1      -0.342  -4.481  -0.177  0.00  0.00     0.147 A 
HETATM   10  N   UNK N   1      -1.534  -5.106  -0.181  0.00  0.00    -0.345 N 
ATOM     11  HN  UNK N   1      -1.718  -6.102  -0.299  1.00  0.00     0.167 HD
HETATM   12  C   UNK N   1      -2.444  -4.101   0.009  0.00  0.00     0.188 A 
HETATM   13  N   UNK N   1      -1.831  -2.892   0.114  0.00  0.00    -0.299 N 
HETATM   14  H   UNK N   1       2.461  -0.846   0.102  0.00  0.00     0.178 HD
HETATM   15  H   UNK N   1       2.939  -4.407  -0.283  0.00  0.00     0.187 HD
ENDROOT
BRANCH  13  16
HETATM   16  C   UNK N   1      -2.449  -1.611   0.512  0.00  0.00     0.233 C 
HETATM   17  O   UNK N   1      -3.031  -0.907  -0.577  0.00  0.00    -0.356 OA
HETATM   18  C   UNK N   1      -2.870   0.445  -0.196  0.00  0.00     0.177 C 
HETATM   19  C   UNK N   1      -1.446   0.522   0.291  0.00  0.00     0.153 C 
HETATM   20  C   UNK N   1      -1.439  -0.671   1.194  0.00  0.00     0.088 C 
BRANCH  18  21
HETATM   21  C   UNK N   1      -3.183   1.437  -1.323  0.00  0.00     0.215 C 
BRANCH  21  22
HETATM   22  O   UNK N   1      -3.122   2.763  -0.850  0.00  0.00    -0.294 OA
BRANCH  22  23
HETATM   23  P   UNK N   1      -4.772   3.333  -0.729  0.00  0.00     0.390 P 
HETATM   24  O   UNK N   1      -5.132   2.511   0.534  0.00  0.00    -0.632 OA
BRANCH  23  25
HETATM   25  O   UNK N   1      -5.399   4.815  -0.076  0.00  0.00    -0.307 OA
HETATM   26  H   UNK N   1      -4.858   5.533   0.288  0.00  0.00     0.222 HD
ENDBRANCH  23  25
BRANCH  23  27
HETATM   27  O   UNK N   1      -3.617   4.319   0.113  0.00  0.00    -0.307 OA
HETATM   28  H   UNK N   1      -2.818   4.035   0.583  0.00  0.00     0.222 HD
ENDBRANCH  23  27
ENDBRANCH  22  23
ENDBRANCH  21  22
ENDBRANCH  18  21
BRANCH  19  29
HETATM   29  O   UNK N   1      -1.169   1.698   0.990  0.00  0.00    -0.393 OA
HETATM   30  H   UNK N   1      -0.366   1.940   1.476  0.00  0.00     0.210 HD
ENDBRANCH  19  29
ENDBRANCH  13  16
BRANCH   1  31
HETATM   31  C   UNK N   1       4.191  -1.928  -0.069  0.00  0.00     0.177 C 
BRANCH  31  32
HETATM   32  C   UNK N   1       4.869  -0.561  -0.032  0.00  0.00    -0.029 A 
HETATM   33  C   UNK N   1       4.189   0.708  -0.016  0.00  0.00    -0.018 A 
HETATM   34  C   UNK N   1       2.785   0.825  -0.030  0.00  0.00     0.013 A 
HETATM   35  C   UNK N   1       4.951   1.905   0.010  0.00  0.00    -0.025 A 
HETATM   36  C   UNK N   1       2.155   2.070  -0.018  0.00  0.00     0.001 A 
HETATM   37  C   UNK N   1       2.919   3.234   0.006  0.00  0.00     0.001 A 
HETATM   38  C   UNK N   1       4.313   3.152   0.020  0.00  0.00     0.012 A 
HETATM   39  C   UNK N   1       6.342   1.851   0.023  0.00  0.00     0.012 A 
HETATM   40  C   UNK N   1       6.997   0.621   0.011  0.00  0.00     0.002 A 
HETATM   41  C   UNK N   1       6.268  -0.568  -0.018  0.00  0.00     0.010 A 
ENDBRANCH  31  32
ENDBRANCH   1  31
TORSDOF 9
