MODEL 1
REMARK VINA RESULT:      -9.2      0.000      0.000
REMARK  9 active torsions:
REMARK  status: ('A' for Active; 'I' for Inactive)
REMARK    1  A    between atoms: P_1  and  O_2 
REMARK    2  A    between atoms: P_1  and  O_4 
REMARK    3  A    between atoms: P_1  and  O_5 
REMARK    4  A    between atoms: O_5  and  C_35 
REMARK    5  A    between atoms: C_15  and  C_16 
REMARK    6  A    between atoms: C_16  and  N_17 
REMARK       I    between atoms: N_17  and  C_18 
REMARK    7  A    between atoms: C_30  and  N_29 
REMARK    8  A    between atoms: C_33  and  O_36 
REMARK    9  A    between atoms: C_34  and  C_35 
ROOT
HETATM    1  N   UNK N   1      23.052  16.170   6.381  0.00  0.00    -0.222 N 
HETATM    2  C   UNK N   1      22.839  17.216   5.473  0.00  0.00     0.682 A 
HETATM    3  N   UNK N   1      21.586  17.581   5.031  0.00  0.00    -0.154 N 
HETATM    4  C   UNK N   1      21.447  18.623   4.128  0.00  0.00     0.290 A 
HETATM    5  O   UNK N   1      20.343  18.973   3.746  0.00  0.00    -0.265 OA
HETATM    6  N   UNK N   1      23.937  17.881   5.038  0.00  0.00    -0.174 N 
ATOM      7  HN  UNK N   1      24.863  17.620   5.377  1.00  0.00     0.186 HD
HETATM    8  C   UNK N   1      23.797  18.882   4.163  0.00  0.00     0.159 A 
HETATM    9  C   UNK N   1      22.604  19.269   3.686  0.00  0.00     0.147 A 
HETATM   10  N   UNK N   1      22.772  20.305   2.843  0.00  0.00    -0.345 N 
ATOM     11  HN  UNK N   1      22.056  20.805   2.317  1.00  0.00     0.167 HD
HETATM   12  C   UNK N   1      24.121  20.534   2.851  0.00  0.00     0.188 A 
HETATM   13  N   UNK N   1      24.767  19.657   3.666  0.00  0.00    -0.299 N 
HETATM   14  H   UNK N   1      23.996  16.005   6.612  0.00  0.00     0.178 HD
HETATM   15  H   UNK N   1      20.789  17.103   5.358  0.00  0.00     0.187 HD
ENDROOT
BRANCH  13  16
HETATM   16  C   UNK N   1      26.182  19.705   4.084  0.00  0.00     0.233 C 
HETATM   17  O   UNK N   1      26.569  18.596   4.885  0.00  0.00    -0.356 OA
HETATM   18  C   UNK N   1      27.562  19.150   5.726  0.00  0.00     0.177 C 
HETATM   19  C   UNK N   1      26.965  20.453   6.189  0.00  0.00     0.153 C 
HETATM   20  C   UNK N   1      26.508  20.988   4.869  0.00  0.00     0.088 C 
BRANCH  18  21
HETATM   21  C   UNK N   1      27.970  18.223   6.877  0.00  0.00     0.215 C 
BRANCH  21  22
HETATM   22  O   UNK N   1      28.567  18.959   7.920  0.00  0.00    -0.294 OA
BRANCH  22  23
HETATM   23  P   UNK N   1      29.136  17.796   9.098  0.00  0.00     0.390 P 
HETATM   24  O   UNK N   1      29.632  18.842  10.127  0.00  0.00    -0.632 OA
BRANCH  23  25
HETATM   25  O   UNK N   1      28.255  16.885  10.286  0.00  0.00    -0.307 OA
HETATM   26  H   UNK N   1      27.418  17.163  10.689  0.00  0.00     0.222 HD
ENDBRANCH  23  25
BRANCH  23  27
HETATM   27  O   UNK N   1      27.469  18.244   9.290  0.00  0.00    -0.307 OA
HETATM   28  H   UNK N   1      26.756  18.190   8.635  0.00  0.00     0.222 HD
ENDBRANCH  23  27
ENDBRANCH  22  23
ENDBRANCH  21  22
ENDBRANCH  18  21
BRANCH  19  29
HETATM   29  O   UNK N   1      27.898  21.299   6.792  0.00  0.00    -0.393 OA
HETATM   30  H   UNK N   1      28.094  21.412   7.735  0.00  0.00     0.210 HD
ENDBRANCH  19  29
ENDBRANCH  13  16
BRANCH   1  31
HETATM   31  C   UNK N   1      22.115  15.307   7.024  0.00  0.00     0.177 C 
BRANCH  31  32
HETATM   32  C   UNK N   1      22.851  14.278   7.878  0.00  0.00    -0.029 A 
HETATM   33  C   UNK N   1      22.294  13.578   9.007  0.00  0.00    -0.018 A 
HETATM   34  C   UNK N   1      20.972  13.773   9.452  0.00  0.00     0.013 A 
HETATM   35  C   UNK N   1      23.100  12.651   9.717  0.00  0.00    -0.025 A 
HETATM   36  C   UNK N   1      20.462  13.082  10.552  0.00  0.00     0.001 A 
HETATM   37  C   UNK N   1      21.268  12.177  11.238  0.00  0.00     0.001 A 
HETATM   38  C   UNK N   1      22.583  11.962  10.821  0.00  0.00     0.012 A 
HETATM   39  C   UNK N   1      24.415  12.419   9.323  0.00  0.00     0.012 A 
HETATM   40  C   UNK N   1      24.950  13.095   8.228  0.00  0.00     0.002 A 
HETATM   41  C   UNK N   1      24.177  14.014   7.518  0.00  0.00     0.010 A 
ENDBRANCH  31  32
ENDBRANCH   1  31
TORSDOF 9
ENDMDL
MODEL 2
REMARK VINA RESULT:      -8.8      3.258      5.926
REMARK  9 active torsions:
REMARK  status: ('A' for Active; 'I' for Inactive)
REMARK    1  A    between atoms: P_1  and  O_2 
REMARK    2  A    between atoms: P_1  and  O_4 
REMARK    3  A    between atoms: P_1  and  O_5 
REMARK    4  A    between atoms: O_5  and  C_35 
REMARK    5  A    between atoms: C_15  and  C_16 
REMARK    6  A    between atoms: C_16  and  N_17 
REMARK       I    between atoms: N_17  and  C_18 
REMARK    7  A    between atoms: C_30  and  N_29 
REMARK    8  A    between atoms: C_33  and  O_36 
REMARK    9  A    between atoms: C_34  and  C_35 
ROOT
HETATM    1  N   UNK N   1      25.126  14.975   6.884  0.00  0.00    -0.222 N 
HETATM    2  C   UNK N   1      26.270  15.591   6.360  0.00  0.00     0.682 A 
HETATM    3  N   UNK N   1      27.470  14.932   6.200  0.00  0.00    -0.154 N 
HETATM    4  C   UNK N   1      28.565  15.603   5.679  0.00  0.00     0.290 A 
HETATM    5  O   UNK N   1      29.626  15.027   5.508  0.00  0.00    -0.265 OA
HETATM    6  N   UNK N   1      26.153  16.891   5.997  0.00  0.00    -0.174 N 
ATOM      7  HN  UNK N   1      25.261  17.375   6.103  1.00  0.00     0.186 HD
HETATM    8  C   UNK N   1      27.214  17.536   5.500  0.00  0.00     0.159 A 
HETATM    9  C   UNK N   1      28.409  16.949   5.338  0.00  0.00     0.147 A 
HETATM   10  N   UNK N   1      29.274  17.832   4.805  0.00  0.00    -0.345 N 
ATOM     11  HN  UNK N   1      30.257  17.685   4.577  1.00  0.00     0.167 HD
HETATM   12  C   UNK N   1      28.534  18.971   4.636  0.00  0.00     0.188 A 
HETATM   13  N   UNK N   1      27.256  18.799   5.065  0.00  0.00    -0.299 N 
HETATM   14  H   UNK N   1      24.335  15.557   6.954  0.00  0.00     0.178 HD
HETATM   15  H   UNK N   1      27.549  13.983   6.454  0.00  0.00     0.187 HD
ENDROOT
BRANCH  13  16
HETATM   16  C   UNK N   1      26.119  19.722   4.873  0.00  0.00     0.233 C 
HETATM   17  O   UNK N   1      24.855  19.078   4.948  0.00  0.00    -0.356 OA
HETATM   18  C   UNK N   1      24.060  19.849   4.068  0.00  0.00     0.177 C 
HETATM   19  C   UNK N   1      24.928  20.028   2.850  0.00  0.00     0.153 C 
HETATM   20  C   UNK N   1      26.194  20.456   3.522  0.00  0.00     0.088 C 
BRANCH  18  21
HETATM   21  C   UNK N   1      22.700  19.211   3.759  0.00  0.00     0.215 C 
BRANCH  21  22
HETATM   22  O   UNK N   1      21.756  20.196   3.408  0.00  0.00    -0.294 OA
BRANCH  22  23
HETATM   23  P   UNK N   1      20.980  19.653   1.937  0.00  0.00     0.390 P 
HETATM   24  O   UNK N   1      19.528  19.813   2.453  0.00  0.00    -0.632 OA
BRANCH  23  25
HETATM   25  O   UNK N   1      20.664  20.506   0.457  0.00  0.00    -0.307 OA
HETATM   26  H   UNK N   1      20.073  21.270   0.374  0.00  0.00     0.222 HD
ENDBRANCH  23  25
BRANCH  23  27
HETATM   27  O   UNK N   1      21.298  21.359   1.983  0.00  0.00    -0.307 OA
HETATM   28  H   UNK N   1      21.314  21.985   1.242  0.00  0.00     0.222 HD
ENDBRANCH  23  27
ENDBRANCH  22  23
ENDBRANCH  21  22
ENDBRANCH  18  21
BRANCH  19  29
HETATM   29  O   UNK N   1      24.452  21.008   1.977  0.00  0.00    -0.393 OA
HETATM   30  H   UNK N   1      24.782  21.909   1.839  0.00  0.00     0.210 HD
ENDBRANCH  19  29
ENDBRANCH  13  16
BRANCH   1  31
HETATM   31  C   UNK N   1      24.929  13.635   7.333  0.00  0.00     0.177 C 
BRANCH  31  32
HETATM   32  C   UNK N   1      23.615  13.528   8.102  0.00  0.00    -0.029 A 
HETATM   33  C   UNK N   1      23.465  12.984   9.427  0.00  0.00    -0.018 A 
HETATM   34  C   UNK N   1      24.547  12.481  10.176  0.00  0.00     0.013 A 
HETATM   35  C   UNK N   1      22.176  12.939  10.018  0.00  0.00    -0.025 A 
HETATM   36  C   UNK N   1      24.369  11.956  11.456  0.00  0.00     0.001 A 
HETATM   37  C   UNK N   1      23.096  11.919  12.020  0.00  0.00     0.001 A 
HETATM   38  C   UNK N   1      22.003  12.409  11.303  0.00  0.00     0.012 A 
HETATM   39  C   UNK N   1      21.069  13.420   9.325  0.00  0.00     0.012 A 
HETATM   40  C   UNK N   1      21.218  13.949   8.044  0.00  0.00     0.002 A 
HETATM   41  C   UNK N   1      22.475  14.000   7.442  0.00  0.00     0.010 A 
ENDBRANCH  31  32
ENDBRANCH   1  31
TORSDOF 9
ENDMDL
MODEL 3
REMARK VINA RESULT:      -8.5      4.788      7.890
REMARK  9 active torsions:
REMARK  status: ('A' for Active; 'I' for Inactive)
REMARK    1  A    between atoms: P_1  and  O_2 
REMARK    2  A    between atoms: P_1  and  O_4 
REMARK    3  A    between atoms: P_1  and  O_5 
REMARK    4  A    between atoms: O_5  and  C_35 
REMARK    5  A    between atoms: C_15  and  C_16 
REMARK    6  A    between atoms: C_16  and  N_17 
REMARK       I    between atoms: N_17  and  C_18 
REMARK    7  A    between atoms: C_30  and  N_29 
REMARK    8  A    between atoms: C_33  and  O_36 
REMARK    9  A    between atoms: C_34  and  C_35 
ROOT
HETATM    1  N   UNK N   1      27.285  17.169   5.189  0.00  0.00    -0.222 N 
HETATM    2  C   UNK N   1      28.015  17.277   6.380  0.00  0.00     0.682 A 
HETATM    3  N   UNK N   1      27.419  17.347   7.620  0.00  0.00    -0.154 N 
HETATM    4  C   UNK N   1      28.202  17.456   8.759  0.00  0.00     0.290 A 
HETATM    5  O   UNK N   1      27.690  17.495   9.865  0.00  0.00    -0.265 OA
HETATM    6  N   UNK N   1      29.365  17.301   6.269  0.00  0.00    -0.174 N 
ATOM      7  HN  UNK N   1      29.807  17.234   5.352  1.00  0.00     0.186 HD
HETATM    8  C   UNK N   1      30.115  17.412   7.371  0.00  0.00     0.159 A 
HETATM    9  C   UNK N   1      29.589  17.501   8.601  0.00  0.00     0.147 A 
HETATM   10  N   UNK N   1      30.580  17.584   9.509  0.00  0.00    -0.345 N 
ATOM     11  HN  UNK N   1      30.496  17.673  10.521  1.00  0.00     0.167 HD
HETATM   12  C   UNK N   1      31.727  17.521   8.764  0.00  0.00     0.188 A 
HETATM   13  N   UNK N   1      31.450  17.415   7.437  0.00  0.00    -0.299 N 
HETATM   14  H   UNK N   1      27.829  17.135   4.369  0.00  0.00     0.178 HD
HETATM   15  H   UNK N   1      26.438  17.317   7.698  0.00  0.00     0.187 HD
ENDROOT
BRANCH  13  16
HETATM   16  C   UNK N   1      32.406  17.131   6.348  0.00  0.00     0.233 C 
HETATM   17  O   UNK N   1      31.791  17.057   5.068  0.00  0.00    -0.356 OA
HETATM   18  C   UNK N   1      32.603  16.121   4.386  0.00  0.00     0.177 C 
HETATM   19  C   UNK N   1      32.790  15.004   5.381  0.00  0.00     0.153 C 
HETATM   20  C   UNK N   1      33.170  15.815   6.579  0.00  0.00     0.088 C 
BRANCH  18  21
HETATM   21  C   UNK N   1      32.006  15.655   3.053  0.00  0.00     0.215 C 
BRANCH  21  22
HETATM   22  O   UNK N   1      30.928  16.480   2.674  0.00  0.00    -0.294 OA
BRANCH  22  23
HETATM   23  P   UNK N   1      29.511  15.456   2.596  0.00  0.00     0.390 P 
HETATM   24  O   UNK N   1      29.540  15.029   4.085  0.00  0.00    -0.632 OA
BRANCH  23  25
HETATM   25  O   UNK N   1      27.826  15.873   2.636  0.00  0.00    -0.307 OA
HETATM   26  H   UNK N   1      27.399  16.514   2.046  0.00  0.00     0.222 HD
ENDBRANCH  23  25
BRANCH  23  27
HETATM   27  O   UNK N   1      29.167  17.117   2.969  0.00  0.00    -0.307 OA
HETATM   28  H   UNK N   1      29.773  17.790   3.315  0.00  0.00     0.222 HD
ENDBRANCH  23  27
ENDBRANCH  22  23
ENDBRANCH  21  22
ENDBRANCH  18  21
BRANCH  19  29
HETATM   29  O   UNK N   1      33.803  14.114   5.020  0.00  0.00    -0.393 OA
HETATM   30  H   UNK N   1      34.753  14.171   5.200  0.00  0.00     0.210 HD
ENDBRANCH  19  29
ENDBRANCH  13  16
BRANCH   1  31
HETATM   31  C   UNK N   1      25.875  17.102   4.979  0.00  0.00     0.177 C 
BRANCH  31  32
HETATM   32  C   UNK N   1      25.397  18.346   4.235  0.00  0.00    -0.029 A 
HETATM   33  C   UNK N   1      24.022  18.683   3.969  0.00  0.00    -0.018 A 
HETATM   34  C   UNK N   1      22.942  17.878   4.383  0.00  0.00     0.013 A 
HETATM   35  C   UNK N   1      23.723  19.873   3.256  0.00  0.00    -0.025 A 
HETATM   36  C   UNK N   1      21.621  18.229   4.106  0.00  0.00     0.001 A 
HETATM   37  C   UNK N   1      21.346  19.400   3.404  0.00  0.00     0.001 A 
HETATM   38  C   UNK N   1      22.394  20.220   2.980  0.00  0.00     0.012 A 
HETATM   39  C   UNK N   1      24.750  20.707   2.821  0.00  0.00     0.012 A 
HETATM   40  C   UNK N   1      26.079  20.380   3.083  0.00  0.00     0.002 A 
HETATM   41  C   UNK N   1      26.396  19.213   3.779  0.00  0.00     0.010 A 
ENDBRANCH  31  32
ENDBRANCH   1  31
TORSDOF 9
ENDMDL
MODEL 4
REMARK VINA RESULT:      -8.4      2.983      6.780
REMARK  9 active torsions:
REMARK  status: ('A' for Active; 'I' for Inactive)
REMARK    1  A    between atoms: P_1  and  O_2 
REMARK    2  A    between atoms: P_1  and  O_4 
REMARK    3  A    between atoms: P_1  and  O_5 
REMARK    4  A    between atoms: O_5  and  C_35 
REMARK    5  A    between atoms: C_15  and  C_16 
REMARK    6  A    between atoms: C_16  and  N_17 
REMARK       I    between atoms: N_17  and  C_18 
REMARK    7  A    between atoms: C_30  and  N_29 
REMARK    8  A    between atoms: C_33  and  O_36 
REMARK    9  A    between atoms: C_34  and  C_35 
ROOT
HETATM    1  N   UNK N   1      26.564  18.529   5.720  0.00  0.00    -0.222 N 
HETATM    2  C   UNK N   1      25.510  18.970   4.910  0.00  0.00     0.682 A 
HETATM    3  N   UNK N   1      25.700  19.748   3.789  0.00  0.00    -0.154 N 
HETATM    4  C   UNK N   1      24.610  20.153   3.033  0.00  0.00     0.290 A 
HETATM    5  O   UNK N   1      24.765  20.821   2.025  0.00  0.00    -0.265 OA
HETATM    6  N   UNK N   1      24.260  18.586   5.269  0.00  0.00    -0.174 N 
ATOM      7  HN  UNK N   1      24.121  17.997   6.091  1.00  0.00     0.186 HD
HETATM    8  C   UNK N   1      23.213  18.983   4.539  0.00  0.00     0.159 A 
HETATM    9  C   UNK N   1      23.338  19.755   3.450  0.00  0.00     0.147 A 
HETATM   10  N   UNK N   1      22.123  19.977   2.914  0.00  0.00    -0.345 N 
ATOM     11  HN  UNK N   1      21.894  20.534   2.092  1.00  0.00     0.167 HD
HETATM   12  C   UNK N   1      21.264  19.284   3.725  0.00  0.00     0.188 A 
HETATM   13  N   UNK N   1      21.929  18.665   4.736  0.00  0.00    -0.299 N 
HETATM   14  H   UNK N   1      26.294  17.985   6.496  0.00  0.00     0.178 HD
HETATM   15  H   UNK N   1      26.610  20.016   3.523  0.00  0.00     0.187 HD
ENDROOT
BRANCH  13  16
HETATM   16  C   UNK N   1      21.383  17.679   5.690  0.00  0.00     0.233 C 
HETATM   17  O   UNK N   1      22.385  16.881   6.307  0.00  0.00    -0.356 OA
HETATM   18  C   UNK N   1      21.716  15.655   6.526  0.00  0.00     0.177 C 
HETATM   19  C   UNK N   1      21.003  15.388   5.226  0.00  0.00     0.153 C 
HETATM   20  C   UNK N   1      20.372  16.729   5.021  0.00  0.00     0.088 C 
BRANCH  18  21
HETATM   21  C   UNK N   1      22.653  14.518   6.952  0.00  0.00     0.215 C 
BRANCH  21  22
HETATM   22  O   UNK N   1      23.796  14.480   6.128  0.00  0.00    -0.294 OA
BRANCH  22  23
HETATM   23  P   UNK N   1      25.186  14.537   7.188  0.00  0.00     0.390 P 
HETATM   24  O   UNK N   1      26.144  13.777   6.237  0.00  0.00    -0.632 OA
BRANCH  23  25
HETATM   25  O   UNK N   1      26.319  15.820   7.480  0.00  0.00    -0.307 OA
HETATM   26  H   UNK N   1      27.273  15.768   7.309  0.00  0.00     0.222 HD
ENDBRANCH  23  25
BRANCH  23  27
HETATM   27  O   UNK N   1      25.047  15.905   6.127  0.00  0.00    -0.307 OA
HETATM   28  H   UNK N   1      24.524  15.979   5.314  0.00  0.00     0.222 HD
ENDBRANCH  23  27
ENDBRANCH  22  23
ENDBRANCH  21  22
ENDBRANCH  18  21
BRANCH  19  29
HETATM   29  O   UNK N   1      20.045  14.378   5.323  0.00  0.00    -0.393 OA
HETATM   30  H   UNK N   1      19.095  14.424   5.139  0.00  0.00     0.210 HD
ENDBRANCH  19  29
ENDBRANCH  13  16
BRANCH   1  31
HETATM   31  C   UNK N   1      27.969  18.748   5.598  0.00  0.00     0.177 C 
BRANCH  31  32
HETATM   32  C   UNK N   1      28.681  18.309   6.875  0.00  0.00    -0.029 A 
HETATM   33  C   UNK N   1      29.853  17.476   6.933  0.00  0.00    -0.018 A 
HETATM   34  C   UNK N   1      30.487  16.964   5.784  0.00  0.00     0.013 A 
HETATM   35  C   UNK N   1      30.405  17.140   8.197  0.00  0.00    -0.025 A 
HETATM   36  C   UNK N   1      31.621  16.155   5.873  0.00  0.00     0.001 A 
HETATM   37  C   UNK N   1      32.148  15.835   7.122  0.00  0.00     0.001 A 
HETATM   38  C   UNK N   1      31.542  16.326   8.280  0.00  0.00     0.012 A 
HETATM   39  C   UNK N   1      29.820  17.615   9.367  0.00  0.00     0.012 A 
HETATM   40  C   UNK N   1      28.687  18.425   9.307  0.00  0.00     0.002 A 
HETATM   41  C   UNK N   1      28.126  18.764   8.076  0.00  0.00     0.010 A 
ENDBRANCH  31  32
ENDBRANCH   1  31
TORSDOF 9
ENDMDL
MODEL 5
REMARK VINA RESULT:      -8.2      3.888      7.404
REMARK  9 active torsions:
REMARK  status: ('A' for Active; 'I' for Inactive)
REMARK    1  A    between atoms: P_1  and  O_2 
REMARK    2  A    between atoms: P_1  and  O_4 
REMARK    3  A    between atoms: P_1  and  O_5 
REMARK    4  A    between atoms: O_5  and  C_35 
REMARK    5  A    between atoms: C_15  and  C_16 
REMARK    6  A    between atoms: C_16  and  N_17 
REMARK       I    between atoms: N_17  and  C_18 
REMARK    7  A    between atoms: C_30  and  N_29 
REMARK    8  A    between atoms: C_33  and  O_36 
REMARK    9  A    between atoms: C_34  and  C_35 
ROOT
HETATM    1  N   UNK N   1      26.718  17.176   5.190  0.00  0.00    -0.222 N 
HETATM    2  C   UNK N   1      25.882  18.089   4.533  0.00  0.00     0.682 A 
HETATM    3  N   UNK N   1      26.360  19.081   3.705  0.00  0.00    -0.154 N 
HETATM    4  C   UNK N   1      25.477  19.954   3.089  0.00  0.00     0.290 A 
HETATM    5  O   UNK N   1      25.882  20.821   2.335  0.00  0.00    -0.265 OA
HETATM    6  N   UNK N   1      24.549  17.955   4.738  0.00  0.00    -0.174 N 
ATOM      7  HN  UNK N   1      24.194  17.211   5.340  1.00  0.00     0.186 HD
HETATM    8  C   UNK N   1      23.702  18.803   4.146  0.00  0.00     0.159 A 
HETATM    9  C   UNK N   1      24.112  19.797   3.344  0.00  0.00     0.147 A 
HETATM   10  N   UNK N   1      23.043  20.471   2.881  0.00  0.00    -0.345 N 
ATOM     11  HN  UNK N   1      23.034  21.282   2.263  1.00  0.00     0.167 HD
HETATM   12  C   UNK N   1      21.970  19.821   3.429  0.00  0.00     0.188 A 
HETATM   13  N   UNK N   1      22.367  18.786   4.216  0.00  0.00    -0.299 N 
HETATM   14  H   UNK N   1      26.252  16.520   5.759  0.00  0.00     0.178 HD
HETATM   15  H   UNK N   1      27.328  19.168   3.548  0.00  0.00     0.187 HD
ENDROOT
BRANCH  13  16
HETATM   16  C   UNK N   1      21.511  17.743   4.816  0.00  0.00     0.233 C 
HETATM   17  O   UNK N   1      21.963  17.313   6.093  0.00  0.00    -0.356 OA
HETATM   18  C   UNK N   1      21.553  15.960   6.130  0.00  0.00     0.177 C 
HETATM   19  C   UNK N   1      21.957  15.418   4.783  0.00  0.00     0.153 C 
HETATM   20  C   UNK N   1      21.399  16.500   3.914  0.00  0.00     0.088 C 
BRANCH  18  21
HETATM   21  C   UNK N   1      22.147  15.175   7.306  0.00  0.00     0.215 C 
BRANCH  21  22
HETATM   22  O   UNK N   1      21.314  14.093   7.653  0.00  0.00    -0.294 OA
BRANCH  22  23
HETATM   23  P   UNK N   1      21.128  14.137   9.393  0.00  0.00     0.390 P 
HETATM   24  O   UNK N   1      19.592  14.340   9.383  0.00  0.00    -0.632 OA
BRANCH  23  25
HETATM   25  O   UNK N   1      21.058  12.838  10.544  0.00  0.00    -0.307 OA
HETATM   26  H   UNK N   1      20.243  12.493  10.941  0.00  0.00     0.222 HD
ENDBRANCH  23  25
BRANCH  23  27
HETATM   27  O   UNK N   1      21.027  12.544   8.708  0.00  0.00    -0.307 OA
HETATM   28  H   UNK N   1      21.675  11.825   8.767  0.00  0.00     0.222 HD
ENDBRANCH  23  27
ENDBRANCH  22  23
ENDBRANCH  21  22
ENDBRANCH  18  21
BRANCH  19  29
HETATM   29  O   UNK N   1      21.380  14.179   4.496  0.00  0.00    -0.393 OA
HETATM   30  H   UNK N   1      20.496  13.854   4.724  0.00  0.00     0.210 HD
ENDBRANCH  19  29
ENDBRANCH  13  16
BRANCH   1  31
HETATM   31  C   UNK N   1      28.139  17.048   5.163  0.00  0.00     0.177 C 
BRANCH  31  32
HETATM   32  C   UNK N   1      28.720  17.375   6.536  0.00  0.00    -0.029 A 
HETATM   33  C   UNK N   1      30.123  17.445   6.853  0.00  0.00    -0.018 A 
HETATM   34  C   UNK N   1      31.136  17.214   5.901  0.00  0.00     0.013 A 
HETATM   35  C   UNK N   1      30.521  17.753   8.180  0.00  0.00    -0.025 A 
HETATM   36  C   UNK N   1      32.488  17.284   6.241  0.00  0.00     0.001 A 
HETATM   37  C   UNK N   1      32.860  17.587   7.548  0.00  0.00     0.001 A 
HETATM   38  C   UNK N   1      31.880  17.820   8.515  0.00  0.00     0.012 A 
HETATM   39  C   UNK N   1      29.564  17.989   9.163  0.00  0.00     0.012 A 
HETATM   40  C   UNK N   1      28.208  17.925   8.851  0.00  0.00     0.002 A 
HETATM   41  C   UNK N   1      27.793  17.620   7.555  0.00  0.00     0.010 A 
ENDBRANCH  31  32
ENDBRANCH   1  31
TORSDOF 9
ENDMDL
MODEL 6
REMARK VINA RESULT:      -8.2      1.729      2.436
REMARK  9 active torsions:
REMARK  status: ('A' for Active; 'I' for Inactive)
REMARK    1  A    between atoms: P_1  and  O_2 
REMARK    2  A    between atoms: P_1  and  O_4 
REMARK    3  A    between atoms: P_1  and  O_5 
REMARK    4  A    between atoms: O_5  and  C_35 
REMARK    5  A    between atoms: C_15  and  C_16 
REMARK    6  A    between atoms: C_16  and  N_17 
REMARK       I    between atoms: N_17  and  C_18 
REMARK    7  A    between atoms: C_30  and  N_29 
REMARK    8  A    between atoms: C_33  and  O_36 
REMARK    9  A    between atoms: C_34  and  C_35 
ROOT
HETATM    1  N   UNK N   1      23.169  16.304   6.111  0.00  0.00    -0.222 N 
HETATM    2  C   UNK N   1      22.980  17.392   5.248  0.00  0.00     0.682 A 
HETATM    3  N   UNK N   1      21.734  17.823   4.847  0.00  0.00    -0.154 N 
HETATM    4  C   UNK N   1      21.619  18.905   3.988  0.00  0.00     0.290 A 
HETATM    5  O   UNK N   1      20.523  19.313   3.643  0.00  0.00    -0.265 OA
HETATM    6  N   UNK N   1      24.094  18.031   4.816  0.00  0.00    -0.174 N 
ATOM      7  HN  UNK N   1      25.016  17.721   5.125  1.00  0.00     0.186 HD
HETATM    8  C   UNK N   1      23.978  19.070   3.983  0.00  0.00     0.159 A 
HETATM    9  C   UNK N   1      22.792  19.522   3.547  0.00  0.00     0.147 A 
HETATM   10  N   UNK N   1      22.985  20.583   2.741  0.00  0.00    -0.345 N 
ATOM     11  HN  UNK N   1      22.279  21.131   2.250  1.00  0.00     0.167 HD
HETATM   12  C   UNK N   1      24.342  20.758   2.730  0.00  0.00     0.188 A 
HETATM   13  N   UNK N   1      24.968  19.825   3.496  0.00  0.00    -0.299 N 
HETATM   14  H   UNK N   1      24.109  16.093   6.315  0.00  0.00     0.178 HD
HETATM   15  H   UNK N   1      20.925  17.364   5.172  0.00  0.00     0.187 HD
ENDROOT
BRANCH  13  16
HETATM   16  C   UNK N   1      26.392  19.802   3.886  0.00  0.00     0.233 C 
HETATM   17  O   UNK N   1      26.958  18.498   3.865  0.00  0.00    -0.356 OA
HETATM   18  C   UNK N   1      27.931  18.564   4.888  0.00  0.00     0.177 C 
HETATM   19  C   UNK N   1      27.217  19.236   6.032  0.00  0.00     0.153 C 
HETATM   20  C   UNK N   1      26.615  20.389   5.291  0.00  0.00     0.088 C 
BRANCH  18  21
HETATM   21  C   UNK N   1      28.521  17.197   5.258  0.00  0.00     0.215 C 
BRANCH  21  22
HETATM   22  O   UNK N   1      27.497  16.288   5.592  0.00  0.00    -0.294 OA
BRANCH  22  23
HETATM   23  P   UNK N   1      27.546  15.009   4.398  0.00  0.00     0.390 P 
HETATM   24  O   UNK N   1      27.265  13.854   5.391  0.00  0.00    -0.632 OA
BRANCH  23  25
HETATM   25  O   UNK N   1      26.333  14.483   3.272  0.00  0.00    -0.307 OA
HETATM   26  H   UNK N   1      26.343  14.669   2.320  0.00  0.00     0.222 HD
ENDBRANCH  23  25
BRANCH  23  27
HETATM   27  O   UNK N   1      25.976  15.718   4.615  0.00  0.00    -0.307 OA
HETATM   28  H   UNK N   1      25.110  15.323   4.430  0.00  0.00     0.222 HD
ENDBRANCH  23  27
ENDBRANCH  22  23
ENDBRANCH  21  22
ENDBRANCH  18  21
BRANCH  19  29
HETATM   29  O   UNK N   1      28.081  19.667   7.040  0.00  0.00    -0.393 OA
HETATM   30  H   UNK N   1      28.542  19.140   7.710  0.00  0.00     0.210 HD
ENDBRANCH  19  29
ENDBRANCH  13  16
BRANCH   1  31
HETATM   31  C   UNK N   1      22.211  15.454   6.739  0.00  0.00     0.177 C 
BRANCH  31  32
HETATM   32  C   UNK N   1      22.918  14.434   7.628  0.00  0.00    -0.029 A 
HETATM   33  C   UNK N   1      22.332  13.763   8.759  0.00  0.00    -0.018 A 
HETATM   34  C   UNK N   1      21.003  13.981   9.174  0.00  0.00     0.013 A 
HETATM   35  C   UNK N   1      23.113  12.842   9.503  0.00  0.00    -0.025 A 
HETATM   36  C   UNK N   1      20.464  13.318  10.278  0.00  0.00     0.001 A 
HETATM   37  C   UNK N   1      21.247  12.418  10.997  0.00  0.00     0.001 A 
HETATM   38  C   UNK N   1      22.568  12.180  10.611  0.00  0.00     0.012 A 
HETATM   39  C   UNK N   1      24.433  12.588   9.140  0.00  0.00     0.012 A 
HETATM   40  C   UNK N   1      24.997  13.237   8.043  0.00  0.00     0.002 A 
HETATM   41  C   UNK N   1      24.248  14.149   7.299  0.00  0.00     0.010 A 
ENDBRANCH  31  32
ENDBRANCH   1  31
TORSDOF 9
ENDMDL
MODEL 7
REMARK VINA RESULT:      -8.2      4.007      8.280
REMARK  9 active torsions:
REMARK  status: ('A' for Active; 'I' for Inactive)
REMARK    1  A    between atoms: P_1  and  O_2 
REMARK    2  A    between atoms: P_1  and  O_4 
REMARK    3  A    between atoms: P_1  and  O_5 
REMARK    4  A    between atoms: O_5  and  C_35 
REMARK    5  A    between atoms: C_15  and  C_16 
REMARK    6  A    between atoms: C_16  and  N_17 
REMARK       I    between atoms: N_17  and  C_18 
REMARK    7  A    between atoms: C_30  and  N_29 
REMARK    8  A    between atoms: C_33  and  O_36 
REMARK    9  A    between atoms: C_34  and  C_35 
ROOT
HETATM    1  N   UNK N   1      25.355  15.243   6.579  0.00  0.00    -0.222 N 
HETATM    2  C   UNK N   1      24.637  14.486   7.514  0.00  0.00     0.682 A 
HETATM    3  N   UNK N   1      25.239  13.613   8.394  0.00  0.00    -0.154 N 
HETATM    4  C   UNK N   1      24.468  12.891   9.291  0.00  0.00     0.290 A 
HETATM    5  O   UNK N   1      24.988  12.133  10.092  0.00  0.00    -0.265 OA
HETATM    6  N   UNK N   1      23.292  14.652   7.532  0.00  0.00    -0.174 N 
ATOM      7  HN  UNK N   1      22.847  15.309   6.890  1.00  0.00     0.186 HD
HETATM    8  C   UNK N   1      22.552  13.948   8.396  0.00  0.00     0.159 A 
HETATM    9  C   UNK N   1      23.083  13.073   9.262  0.00  0.00     0.147 A 
HETATM   10  N   UNK N   1      22.104  12.533  10.012  0.00  0.00    -0.345 N 
ATOM     11  HN  UNK N   1      22.193  11.830  10.745  1.00  0.00     0.167 HD
HETATM   12  C   UNK N   1      20.962  13.141   9.567  0.00  0.00     0.188 A 
HETATM   13  N   UNK N   1      21.227  14.020   8.564  0.00  0.00    -0.299 N 
HETATM   14  H   UNK N   1      24.805  15.824   6.004  0.00  0.00     0.178 HD
HETATM   15  H   UNK N   1      26.218  13.504   8.387  0.00  0.00     0.187 HD
ENDROOT
BRANCH  13  16
HETATM   16  C   UNK N   1      20.296  14.998   7.966  0.00  0.00     0.233 C 
HETATM   17  O   UNK N   1      20.462  15.144   6.561  0.00  0.00    -0.356 OA
HETATM   18  C   UNK N   1      20.104  16.494   6.344  0.00  0.00     0.177 C 
HETATM   19  C   UNK N   1      20.821  17.245   7.436  0.00  0.00     0.153 C 
HETATM   20  C   UNK N   1      20.436  16.392   8.603  0.00  0.00     0.088 C 
BRANCH  18  21
HETATM   21  C   UNK N   1      20.445  16.995   4.935  0.00  0.00     0.215 C 
BRANCH  21  22
HETATM   22  O   UNK N   1      21.518  17.908   4.977  0.00  0.00    -0.294 OA
BRANCH  22  23
HETATM   23  P   UNK N   1      21.402  18.891   3.535  0.00  0.00     0.390 P 
HETATM   24  O   UNK N   1      19.947  18.490   3.185  0.00  0.00    -0.632 OA
BRANCH  23  25
HETATM   25  O   UNK N   1      21.091  20.591   3.361  0.00  0.00    -0.307 OA
HETATM   26  H   UNK N   1      20.529  20.984   2.675  0.00  0.00     0.222 HD
ENDBRANCH  23  25
BRANCH  23  27
HETATM   27  O   UNK N   1      20.938  19.712   4.992  0.00  0.00    -0.307 OA
HETATM   28  H   UNK N   1      20.729  19.325   5.856  0.00  0.00     0.222 HD
ENDBRANCH  23  27
ENDBRANCH  22  23
ENDBRANCH  21  22
ENDBRANCH  18  21
BRANCH  19  29
HETATM   29  O   UNK N   1      20.370  18.557   7.586  0.00  0.00    -0.393 OA
HETATM   30  H   UNK N   1      20.413  19.289   6.953  0.00  0.00     0.210 HD
ENDBRANCH  19  29
ENDBRANCH  13  16
BRANCH   1  31
HETATM   31  C   UNK N   1      26.758  15.304   6.331  0.00  0.00     0.177 C 
BRANCH  31  32
HETATM   32  C   UNK N   1      27.289  16.696   6.660  0.00  0.00    -0.029 A 
HETATM   33  C   UNK N   1      27.239  17.837   5.783  0.00  0.00    -0.018 A 
HETATM   34  C   UNK N   1      26.676  17.788   4.492  0.00  0.00     0.013 A 
HETATM   35  C   UNK N   1      27.782  19.074   6.219  0.00  0.00    -0.025 A 
HETATM   36  C   UNK N   1      26.646  18.910   3.664  0.00  0.00     0.001 A 
HETATM   37  C   UNK N   1      27.184  20.115   4.108  0.00  0.00     0.001 A 
HETATM   38  C   UNK N   1      27.751  20.197   5.382  0.00  0.00     0.012 A 
HETATM   39  C   UNK N   1      28.354  19.182   7.484  0.00  0.00     0.012 A 
HETATM   40  C   UNK N   1      28.397  18.077   8.331  0.00  0.00     0.002 A 
HETATM   41  C   UNK N   1      27.873  16.851   7.922  0.00  0.00     0.010 A 
ENDBRANCH  31  32
ENDBRANCH   1  31
TORSDOF 9
ENDMDL
MODEL 8
REMARK VINA RESULT:      -8.1      4.084      7.897
REMARK  9 active torsions:
REMARK  status: ('A' for Active; 'I' for Inactive)
REMARK    1  A    between atoms: P_1  and  O_2 
REMARK    2  A    between atoms: P_1  and  O_4 
REMARK    3  A    between atoms: P_1  and  O_5 
REMARK    4  A    between atoms: O_5  and  C_35 
REMARK    5  A    between atoms: C_15  and  C_16 
REMARK    6  A    between atoms: C_16  and  N_17 
REMARK       I    between atoms: N_17  and  C_18 
REMARK    7  A    between atoms: C_30  and  N_29 
REMARK    8  A    between atoms: C_33  and  O_36 
REMARK    9  A    between atoms: C_34  and  C_35 
ROOT
HETATM    1  N   UNK N   1      25.244  14.690   6.265  0.00  0.00    -0.222 N 
HETATM    2  C   UNK N   1      24.517  14.188   7.353  0.00  0.00     0.682 A 
HETATM    3  N   UNK N   1      25.082  13.407   8.337  0.00  0.00    -0.154 N 
HETATM    4  C   UNK N   1      24.302  12.939   9.383  0.00  0.00     0.290 A 
HETATM    5  O   UNK N   1      24.793  12.267  10.274  0.00  0.00    -0.265 OA
HETATM    6  N   UNK N   1      23.202  14.513   7.411  0.00  0.00    -0.174 N 
ATOM      7  HN  UNK N   1      22.787  15.104   6.690  1.00  0.00     0.186 HD
HETATM    8  C   UNK N   1      22.453  14.055   8.420  0.00  0.00     0.159 A 
HETATM    9  C   UNK N   1      22.947  13.278   9.395  0.00  0.00     0.147 A 
HETATM   10  N   UNK N   1      21.971  12.989  10.276  0.00  0.00    -0.345 N 
ATOM     11  HN  UNK N   1      22.035  12.411  11.114  1.00  0.00     0.167 HD
HETATM   12  C   UNK N   1      20.872  13.647   9.793  0.00  0.00     0.188 A 
HETATM   13  N   UNK N   1      21.160  14.311   8.641  0.00  0.00    -0.299 N 
HETATM   14  H   UNK N   1      24.721  15.229   5.628  0.00  0.00     0.178 HD
HETATM   15  H   UNK N   1      26.040  13.182   8.298  0.00  0.00     0.187 HD
ENDROOT
BRANCH  13  16
HETATM   16  C   UNK N   1      20.300  15.280   7.933  0.00  0.00     0.233 C 
HETATM   17  O   UNK N   1      20.456  15.240   6.521  0.00  0.00    -0.356 OA
HETATM   18  C   UNK N   1      20.203  16.578   6.141  0.00  0.00     0.177 C 
HETATM   19  C   UNK N   1      20.994  17.396   7.129  0.00  0.00     0.153 C 
HETATM   20  C   UNK N   1      20.559  16.725   8.394  0.00  0.00     0.088 C 
BRANCH  18  21
HETATM   21  C   UNK N   1      20.561  16.875   4.680  0.00  0.00     0.215 C 
BRANCH  21  22
HETATM   22  O   UNK N   1      21.618  17.804   4.605  0.00  0.00    -0.294 OA
BRANCH  22  23
HETATM   23  P   UNK N   1      21.173  18.981   3.389  0.00  0.00     0.390 P 
HETATM   24  O   UNK N   1      20.615  20.032   4.382  0.00  0.00    -0.632 OA
BRANCH  23  25
HETATM   25  O   UNK N   1      22.150  20.140   2.542  0.00  0.00    -0.307 OA
HETATM   26  H   UNK N   1      22.090  20.327   1.592  0.00  0.00     0.222 HD
ENDBRANCH  23  25
BRANCH  23  27
HETATM   27  O   UNK N   1      22.801  19.142   3.970  0.00  0.00    -0.307 OA
HETATM   28  H   UNK N   1      23.236  19.936   4.317  0.00  0.00     0.222 HD
ENDBRANCH  23  27
ENDBRANCH  22  23
ENDBRANCH  21  22
ENDBRANCH  18  21
BRANCH  19  29
HETATM   29  O   UNK N   1      20.650  18.749   7.120  0.00  0.00    -0.393 OA
HETATM   30  H   UNK N   1      21.158  19.506   7.449  0.00  0.00     0.210 HD
ENDBRANCH  19  29
ENDBRANCH  13  16
BRANCH   1  31
HETATM   31  C   UNK N   1      26.625  14.541   5.938  0.00  0.00     0.177 C 
BRANCH  31  32
HETATM   32  C   UNK N   1      27.268  15.911   5.743  0.00  0.00    -0.029 A 
HETATM   33  C   UNK N   1      27.671  16.802   6.799  0.00  0.00    -0.018 A 
HETATM   34  C   UNK N   1      27.513  16.493   8.165  0.00  0.00     0.013 A 
HETATM   35  C   UNK N   1      28.251  18.055   6.469  0.00  0.00    -0.025 A 
HETATM   36  C   UNK N   1      27.910  17.380   9.166  0.00  0.00     0.001 A 
HETATM   37  C   UNK N   1      28.476  18.605   8.823  0.00  0.00     0.001 A 
HETATM   38  C   UNK N   1      28.646  18.942   7.479  0.00  0.00     0.012 A 
HETATM   39  C   UNK N   1      28.431  18.415   5.137  0.00  0.00     0.012 A 
HETATM   40  C   UNK N   1      28.043  17.549   4.117  0.00  0.00     0.002 A 
HETATM   41  C   UNK N   1      27.468  16.314   4.418  0.00  0.00     0.010 A 
ENDBRANCH  31  32
ENDBRANCH   1  31
TORSDOF 9
ENDMDL
MODEL 9
REMARK VINA RESULT:      -8.1      4.659      7.545
REMARK  9 active torsions:
REMARK  status: ('A' for Active; 'I' for Inactive)
REMARK    1  A    between atoms: P_1  and  O_2 
REMARK    2  A    between atoms: P_1  and  O_4 
REMARK    3  A    between atoms: P_1  and  O_5 
REMARK    4  A    between atoms: O_5  and  C_35 
REMARK    5  A    between atoms: C_15  and  C_16 
REMARK    6  A    between atoms: C_16  and  N_17 
REMARK       I    between atoms: N_17  and  C_18 
REMARK    7  A    between atoms: C_30  and  N_29 
REMARK    8  A    between atoms: C_33  and  O_36 
REMARK    9  A    between atoms: C_34  and  C_35 
ROOT
HETATM    1  N   UNK N   1      27.441  16.399   5.682  0.00  0.00    -0.222 N 
HETATM    2  C   UNK N   1      28.341  15.693   4.873  0.00  0.00     0.682 A 
HETATM    3  N   UNK N   1      28.019  15.233   3.615  0.00  0.00    -0.154 N 
HETATM    4  C   UNK N   1      28.958  14.538   2.870  0.00  0.00     0.290 A 
HETATM    5  O   UNK N   1      28.695  14.146   1.746  0.00  0.00    -0.265 OA
HETATM    6  N   UNK N   1      29.580  15.480   5.380  0.00  0.00    -0.174 N 
ATOM      7  HN  UNK N   1      29.824  15.833   6.306  1.00  0.00     0.186 HD
HETATM    8  C   UNK N   1      30.481  14.804   4.659  0.00  0.00     0.159 A 
HETATM    9  C   UNK N   1      30.216  14.319   3.437  0.00  0.00     0.147 A 
HETATM   10  N   UNK N   1      31.310  13.705   2.950  0.00  0.00    -0.345 N 
ATOM     11  HN  UNK N   1      31.415  13.230   2.054  1.00  0.00     0.167 HD
HETATM   12  C   UNK N   1      32.251  13.862   3.932  0.00  0.00     0.188 A 
HETATM   13  N   UNK N   1      31.747  14.541   4.996  0.00  0.00    -0.299 N 
HETATM   14  H   UNK N   1      27.792  16.665   6.562  0.00  0.00     0.178 HD
HETATM   15  H   UNK N   1      27.121  15.400   3.245  0.00  0.00     0.187 HD
ENDROOT
BRANCH  13  16
HETATM   16  C   UNK N   1      32.498  15.069   6.153  0.00  0.00     0.233 C 
HETATM   17  O   UNK N   1      31.666  15.674   7.134  0.00  0.00    -0.356 OA
HETATM   18  C   UNK N   1      32.500  16.678   7.675  0.00  0.00     0.177 C 
HETATM   19  C   UNK N   1      33.119  17.332   6.467  0.00  0.00     0.153 C 
HETATM   20  C   UNK N   1      33.555  16.105   5.730  0.00  0.00     0.088 C 
BRANCH  18  21
HETATM   21  C   UNK N   1      31.756  17.662   8.587  0.00  0.00     0.215 C 
BRANCH  21  22
HETATM   22  O   UNK N   1      30.478  17.952   8.069  0.00  0.00    -0.294 OA
BRANCH  22  23
HETATM   23  P   UNK N   1      29.332  17.656   9.357  0.00  0.00     0.390 P 
HETATM   24  O   UNK N   1      29.636  18.956  10.143  0.00  0.00    -0.632 OA
BRANCH  23  25
HETATM   25  O   UNK N   1      27.613  17.901   9.404  0.00  0.00    -0.307 OA
HETATM   26  H   UNK N   1      27.038  17.943   8.624  0.00  0.00     0.222 HD
ENDBRANCH  23  25
BRANCH  23  27
HETATM   27  O   UNK N   1      28.668  18.508   7.997  0.00  0.00    -0.307 OA
HETATM   28  H   UNK N   1      27.802  18.385   7.579  0.00  0.00     0.222 HD
ENDBRANCH  23  27
ENDBRANCH  22  23
ENDBRANCH  21  22
ENDBRANCH  18  21
BRANCH  19  29
HETATM   29  O   UNK N   1      34.202  18.154   6.783  0.00  0.00    -0.393 OA
HETATM   30  H   UNK N   1      34.465  18.994   6.377  0.00  0.00     0.210 HD
ENDBRANCH  19  29
ENDBRANCH  13  16
BRANCH   1  31
HETATM   31  C   UNK N   1      26.092  16.789   5.428  0.00  0.00     0.177 C 
BRANCH  31  32
HETATM   32  C   UNK N   1      26.064  18.121   4.683  0.00  0.00    -0.029 A 
HETATM   33  C   UNK N   1      24.886  18.753   4.147  0.00  0.00    -0.018 A 
HETATM   34  C   UNK N   1      23.598  18.194   4.260  0.00  0.00     0.013 A 
HETATM   35  C   UNK N   1      25.011  19.992   3.467  0.00  0.00    -0.025 A 
HETATM   36  C   UNK N   1      22.476  18.829   3.726  0.00  0.00     0.001 A 
HETATM   37  C   UNK N   1      22.617  20.044   3.061  0.00  0.00     0.001 A 
HETATM   38  C   UNK N   1      23.881  20.624   2.931  0.00  0.00     0.012 A 
HETATM   39  C   UNK N   1      26.259  20.591   3.323  0.00  0.00     0.012 A 
HETATM   40  C   UNK N   1      27.396  19.979   3.846  0.00  0.00     0.002 A 
HETATM   41  C   UNK N   1      27.298  18.759   4.515  0.00  0.00     0.010 A 
ENDBRANCH  31  32
ENDBRANCH   1  31
TORSDOF 9
ENDMDL
