MODEL 1
REMARK VINA RESULT:      -6.3      0.000      0.000
REMARK  3 active torsions:
REMARK  status: ('A' for Active; 'I' for Inactive)
REMARK    1  A    between atoms: S_1  and  O_2 
REMARK    2  A    between atoms: S_1  and  C_6 
REMARK    3  A    between atoms: C_9  and  N_15 
ROOT
HETATM    1  C   UNK N   1      31.652  17.037   6.854  0.00  0.00     0.037 A 
HETATM    2  C   UNK N   1      32.362  17.772   7.808  0.00  0.00     0.073 A 
HETATM    3  C   UNK N   1      31.679  18.446   8.824  0.00  0.00     0.026 A 
HETATM    4  C   UNK N   1      30.284  18.381   8.898  0.00  0.00     0.016 A 
HETATM    5  C   UNK N   1      28.164  17.521   8.037  0.00  0.00     0.036 A 
HETATM    6  C   UNK N   1      27.472  16.760   7.089  0.00  0.00     0.030 A 
HETATM    7  C   UNK N   1      28.163  16.112   6.061  0.00  0.00     0.003 A 
HETATM    8  C   UNK N   1      29.554  16.212   5.978  0.00  0.00     0.012 A 
HETATM    9  C   UNK N   1      30.259  16.965   6.921  0.00  0.00    -0.022 A 
HETATM   10  C   UNK N   1      29.564  17.631   7.957  0.00  0.00     0.000 A 
ENDROOT
BRANCH   2  11
HETATM   11  S   UNK N   1      34.150  17.753   7.787  0.00  0.00     0.129 S 
HETATM   12  O   UNK N   1      34.663  17.474   6.366  0.00  0.00    -0.598 OA
HETATM   13  O   UNK N   1      34.719  16.543   8.543  0.00  0.00    -0.598 OA
BRANCH  11  14
HETATM   14  O   UNK N   1      35.048  19.108   8.335  0.00  0.00    -0.292 OA
HETATM   15  H   UNK N   1      34.903  19.908   8.865  0.00  0.00     0.232 HD
ENDBRANCH  11  14
ENDBRANCH   2  11
BRANCH   5  16
HETATM   16  N   UNK N   1      27.445  18.157   9.072  0.00  0.00    -0.398 N 
HETATM   17  H   UNK N   1      27.410  19.140   9.116  0.00  0.00     0.156 HD
HETATM   18  H   UNK N   1      26.979  17.618   9.750  0.00  0.00     0.156 HD
ENDBRANCH   5  16
TORSDOF 3
ENDMDL
MODEL 2
REMARK VINA RESULT:      -6.2      8.787      9.936
REMARK  3 active torsions:
REMARK  status: ('A' for Active; 'I' for Inactive)
REMARK    1  A    between atoms: S_1  and  O_2 
REMARK    2  A    between atoms: S_1  and  C_6 
REMARK    3  A    between atoms: C_9  and  N_15 
ROOT
HETATM    1  C   UNK N   1      23.846  20.336   2.996  0.00  0.00     0.037 A 
HETATM    2  C   UNK N   1      22.635  19.711   3.307  0.00  0.00     0.073 A 
HETATM    3  C   UNK N   1      22.616  18.605   4.162  0.00  0.00     0.026 A 
HETATM    4  C   UNK N   1      23.805  18.126   4.719  0.00  0.00     0.016 A 
HETATM    5  C   UNK N   1      26.225  18.314   5.009  0.00  0.00     0.036 A 
HETATM    6  C   UNK N   1      27.424  18.968   4.707  0.00  0.00     0.030 A 
HETATM    7  C   UNK N   1      27.435  20.056   3.830  0.00  0.00     0.003 A 
HETATM    8  C   UNK N   1      26.244  20.505   3.253  0.00  0.00     0.012 A 
HETATM    9  C   UNK N   1      25.039  19.864   3.549  0.00  0.00    -0.022 A 
HETATM   10  C   UNK N   1      25.023  18.757   4.429  0.00  0.00     0.000 A 
ENDROOT
BRANCH   2  11
HETATM   11  S   UNK N   1      21.102  20.399   2.695  0.00  0.00     0.129 S 
HETATM   12  O   UNK N   1      20.161  20.727   3.863  0.00  0.00    -0.598 OA
HETATM   13  O   UNK N   1      20.269  19.357   1.934  0.00  0.00    -0.598 OA
BRANCH  11  14
HETATM   14  O   UNK N   1      21.104  21.802   1.706  0.00  0.00    -0.292 OA
HETATM   15  H   UNK N   1      21.118  22.024   0.762  0.00  0.00     0.232 HD
ENDBRANCH  11  14
ENDBRANCH   2  11
BRANCH   5  16
HETATM   16  N   UNK N   1      26.238  17.225   5.907  0.00  0.00    -0.398 N 
HETATM   17  H   UNK N   1      25.411  16.958   6.370  0.00  0.00     0.156 HD
HETATM   18  H   UNK N   1      27.074  16.732   6.070  0.00  0.00     0.156 HD
ENDBRANCH   5  16
TORSDOF 3
ENDMDL
MODEL 3
REMARK VINA RESULT:      -6.0      5.157      6.682
REMARK  3 active torsions:
REMARK  status: ('A' for Active; 'I' for Inactive)
REMARK    1  A    between atoms: S_1  and  O_2 
REMARK    2  A    between atoms: S_1  and  C_6 
REMARK    3  A    between atoms: C_9  and  N_15 
ROOT
HETATM    1  C   UNK N   1      35.289  16.509  10.360  0.00  0.00     0.037 A 
HETATM    2  C   UNK N   1      34.647  16.474   9.119  0.00  0.00     0.073 A 
HETATM    3  C   UNK N   1      34.103  15.276   8.645  0.00  0.00     0.026 A 
HETATM    4  C   UNK N   1      34.189  14.112   9.413  0.00  0.00     0.016 A 
HETATM    5  C   UNK N   1      34.877  12.989  11.473  0.00  0.00     0.036 A 
HETATM    6  C   UNK N   1      35.501  13.049  12.723  0.00  0.00     0.030 A 
HETATM    7  C   UNK N   1      36.064  14.245  13.176  0.00  0.00     0.003 A 
HETATM    8  C   UNK N   1      36.002  15.395  12.384  0.00  0.00     0.012 A 
HETATM    9  C   UNK N   1      35.379  15.351  11.135  0.00  0.00    -0.022 A 
HETATM   10  C   UNK N   1      34.815  14.141  10.667  0.00  0.00     0.000 A 
ENDROOT
BRANCH   2  11
HETATM   11  S   UNK N   1      34.428  17.988   8.194  0.00  0.00     0.129 S 
HETATM   12  O   UNK N   1      32.965  18.451   8.267  0.00  0.00    -0.598 OA
HETATM   13  O   UNK N   1      34.585  17.765   6.682  0.00  0.00    -0.598 OA
BRANCH  11  14
HETATM   14  O   UNK N   1      35.362  19.381   8.557  0.00  0.00    -0.292 OA
HETATM   15  H   UNK N   1      35.225  20.275   8.910  0.00  0.00     0.232 HD
ENDBRANCH  11  14
ENDBRANCH   2  11
BRANCH   5  16
HETATM   16  N   UNK N   1      34.306  11.772  11.042  0.00  0.00    -0.398 N 
HETATM   17  H   UNK N   1      34.357  10.973  11.614  0.00  0.00     0.156 HD
HETATM   18  H   UNK N   1      33.855  11.723  10.168  0.00  0.00     0.156 HD
ENDBRANCH   5  16
TORSDOF 3
ENDMDL
MODEL 4
REMARK VINA RESULT:      -6.0     11.123     12.217
REMARK  3 active torsions:
REMARK  status: ('A' for Active; 'I' for Inactive)
REMARK    1  A    between atoms: S_1  and  O_2 
REMARK    2  A    between atoms: S_1  and  C_6 
REMARK    3  A    between atoms: C_9  and  N_15 
ROOT
HETATM    1  C   UNK N   1      36.055  11.252  16.004  0.00  0.00     0.037 A 
HETATM    2  C   UNK N   1      35.606  12.426  15.392  0.00  0.00     0.073 A 
HETATM    3  C   UNK N   1      35.057  13.453  16.166  0.00  0.00     0.026 A 
HETATM    4  C   UNK N   1      34.963  13.315  17.554  0.00  0.00     0.016 A 
HETATM    5  C   UNK N   1      35.378  12.007  19.577  0.00  0.00     0.036 A 
HETATM    6  C   UNK N   1      35.856  10.836  20.174  0.00  0.00     0.030 A 
HETATM    7  C   UNK N   1      36.379   9.804  19.388  0.00  0.00     0.003 A 
HETATM    8  C   UNK N   1      36.436   9.940  17.998  0.00  0.00     0.012 A 
HETATM    9  C   UNK N   1      35.967  11.106  17.390  0.00  0.00    -0.022 A 
HETATM   10  C   UNK N   1      35.428  12.149  18.178  0.00  0.00     0.000 A 
ENDROOT
BRANCH   2  11
HETATM   11  S   UNK N   1      35.840  12.653  13.634  0.00  0.00     0.129 S 
HETATM   12  O   UNK N   1      34.628  13.373  13.024  0.00  0.00    -0.598 OA
HETATM   13  O   UNK N   1      35.796  11.319  12.873  0.00  0.00    -0.598 OA
BRANCH  11  14
HETATM   14  O   UNK N   1      37.214  13.486  13.032  0.00  0.00    -0.292 OA
HETATM   15  H   UNK N   1      38.169  13.524  13.198  0.00  0.00     0.232 HD
ENDBRANCH  11  14
ENDBRANCH   2  11
BRANCH   5  16
HETATM   16  N   UNK N   1      34.865  13.039  20.392  0.00  0.00    -0.398 N 
HETATM   17  H   UNK N   1      33.892  13.149  20.495  0.00  0.00     0.156 HD
HETATM   18  H   UNK N   1      35.481  13.650  20.858  0.00  0.00     0.156 HD
ENDBRANCH   5  16
TORSDOF 3
ENDMDL
MODEL 5
REMARK VINA RESULT:      -5.9      3.865      4.903
REMARK  3 active torsions:
REMARK  status: ('A' for Active; 'I' for Inactive)
REMARK    1  A    between atoms: S_1  and  O_2 
REMARK    2  A    between atoms: S_1  and  C_6 
REMARK    3  A    between atoms: C_9  and  N_15 
ROOT
HETATM    1  C   UNK N   1      31.198  17.399   7.607  0.00  0.00     0.037 A 
HETATM    2  C   UNK N   1      29.831  17.456   7.894  0.00  0.00     0.073 A 
HETATM    3  C   UNK N   1      28.895  17.381   6.859  0.00  0.00     0.026 A 
HETATM    4  C   UNK N   1      29.319  17.238   5.535  0.00  0.00     0.016 A 
HETATM    5  C   UNK N   1      31.134  16.979   3.917  0.00  0.00     0.036 A 
HETATM    6  C   UNK N   1      32.505  16.898   3.652  0.00  0.00     0.030 A 
HETATM    7  C   UNK N   1      33.433  17.001   4.692  0.00  0.00     0.003 A 
HETATM    8  C   UNK N   1      32.998  17.178   6.008  0.00  0.00     0.012 A 
HETATM    9  C   UNK N   1      31.632  17.256   6.287  0.00  0.00    -0.022 A 
HETATM   10  C   UNK N   1      30.687  17.162   5.239  0.00  0.00     0.000 A 
ENDROOT
BRANCH   2  11
HETATM   11  S   UNK N   1      29.287  17.512   9.596  0.00  0.00     0.129 S 
HETATM   12  O   UNK N   1      27.753  17.478   9.667  0.00  0.00    -0.598 OA
HETATM   13  O   UNK N   1      29.576  18.874  10.246  0.00  0.00    -0.598 OA
BRANCH  11  14
HETATM   14  O   UNK N   1      29.819  16.337  10.727  0.00  0.00    -0.292 OA
HETATM   15  H   UNK N   1      29.834  16.210  11.689  0.00  0.00     0.232 HD
ENDBRANCH  11  14
ENDBRANCH   2  11
BRANCH   5  16
HETATM   16  N   UNK N   1      30.215  16.861   2.852  0.00  0.00    -0.398 N 
HETATM   17  H   UNK N   1      29.388  16.340   2.970  0.00  0.00     0.156 HD
HETATM   18  H   UNK N   1      30.401  17.301   1.991  0.00  0.00     0.156 HD
ENDBRANCH   5  16
TORSDOF 3
ENDMDL
MODEL 6
REMARK VINA RESULT:      -5.9      5.540      6.899
REMARK  3 active torsions:
REMARK  status: ('A' for Active; 'I' for Inactive)
REMARK    1  A    between atoms: S_1  and  O_2 
REMARK    2  A    between atoms: S_1  and  C_6 
REMARK    3  A    between atoms: C_9  and  N_15 
ROOT
HETATM    1  C   UNK N   1      35.109  15.290   8.718  0.00  0.00     0.037 A 
HETATM    2  C   UNK N   1      34.952  16.582   9.228  0.00  0.00     0.073 A 
HETATM    3  C   UNK N   1      35.293  16.858  10.555  0.00  0.00     0.026 A 
HETATM    4  C   UNK N   1      35.804  15.847  11.375  0.00  0.00     0.016 A 
HETATM    5  C   UNK N   1      36.533  13.531  11.664  0.00  0.00     0.036 A 
HETATM    6  C   UNK N   1      36.708  12.251  11.128  0.00  0.00     0.030 A 
HETATM    7  C   UNK N   1      36.338  11.980   9.808  0.00  0.00     0.003 A 
HETATM    8  C   UNK N   1      35.797  12.990   9.008  0.00  0.00     0.012 A 
HETATM    9  C   UNK N   1      35.620  14.274   9.529  0.00  0.00    -0.022 A 
HETATM   10  C   UNK N   1      35.984  14.553  10.867  0.00  0.00     0.000 A 
ENDROOT
BRANCH   2  11
HETATM   11  S   UNK N   1      34.417  17.901   8.146  0.00  0.00     0.129 S 
HETATM   12  O   UNK N   1      35.185  19.193   8.460  0.00  0.00    -0.598 OA
HETATM   13  O   UNK N   1      32.975  18.340   8.447  0.00  0.00    -0.598 OA
BRANCH  11  14
HETATM   14  O   UNK N   1      34.502  17.726   6.441  0.00  0.00    -0.292 OA
HETATM   15  H   UNK N   1      33.993  17.307   5.729  0.00  0.00     0.232 HD
ENDBRANCH  11  14
ENDBRANCH   2  11
BRANCH   5  16
HETATM   16  N   UNK N   1      36.925  13.784  12.996  0.00  0.00    -0.398 N 
HETATM   17  H   UNK N   1      36.249  13.817  13.711  0.00  0.00     0.156 HD
HETATM   18  H   UNK N   1      37.875  13.927  13.210  0.00  0.00     0.156 HD
ENDBRANCH   5  16
TORSDOF 3
ENDMDL
MODEL 7
REMARK VINA RESULT:      -5.8      8.704      9.842
REMARK  3 active torsions:
REMARK  status: ('A' for Active; 'I' for Inactive)
REMARK    1  A    between atoms: S_1  and  O_2 
REMARK    2  A    between atoms: S_1  and  C_6 
REMARK    3  A    between atoms: C_9  and  N_15 
ROOT
HETATM    1  C   UNK N   1      23.076  18.741   3.915  0.00  0.00     0.037 A 
HETATM    2  C   UNK N   1      22.876  19.924   3.196  0.00  0.00     0.073 A 
HETATM    3  C   UNK N   1      23.971  20.711   2.825  0.00  0.00     0.026 A 
HETATM    4  C   UNK N   1      25.268  20.316   3.162  0.00  0.00     0.016 A 
HETATM    5  C   UNK N   1      26.781  18.687   4.181  0.00  0.00     0.036 A 
HETATM    6  C   UNK N   1      26.962  17.488   4.878  0.00  0.00     0.030 A 
HETATM    7  C   UNK N   1      25.859  16.722   5.267  0.00  0.00     0.003 A 
HETATM    8  C   UNK N   1      24.565  17.145   4.954  0.00  0.00     0.012 A 
HETATM    9  C   UNK N   1      24.369  18.338   4.254  0.00  0.00    -0.022 A 
HETATM   10  C   UNK N   1      25.480  19.123   3.866  0.00  0.00     0.000 A 
ENDROOT
BRANCH   2  11
HETATM   11  S   UNK N   1      21.229  20.364   2.658  0.00  0.00     0.129 S 
HETATM   12  O   UNK N   1      20.318  20.601   3.871  0.00  0.00    -0.598 OA
HETATM   13  O   UNK N   1      20.512  19.185   1.983  0.00  0.00    -0.598 OA
BRANCH  11  14
HETATM   14  O   UNK N   1      20.974  21.713   1.628  0.00  0.00    -0.292 OA
HETATM   15  H   UNK N   1      21.359  22.590   1.473  0.00  0.00     0.232 HD
ENDBRANCH  11  14
ENDBRANCH   2  11
BRANCH   5  16
HETATM   16  N   UNK N   1      27.910  19.438   3.789  0.00  0.00    -0.398 N 
HETATM   17  H   UNK N   1      28.786  18.999   3.696  0.00  0.00     0.156 HD
HETATM   18  H   UNK N   1      27.821  20.402   3.609  0.00  0.00     0.156 HD
ENDBRANCH   5  16
TORSDOF 3
ENDMDL
MODEL 8
REMARK VINA RESULT:      -5.8     10.693     11.864
REMARK  3 active torsions:
REMARK  status: ('A' for Active; 'I' for Inactive)
REMARK    1  A    between atoms: S_1  and  O_2 
REMARK    2  A    between atoms: S_1  and  C_6 
REMARK    3  A    between atoms: C_9  and  N_15 
ROOT
HETATM    1  C   UNK N   1      35.687  13.418  16.115  0.00  0.00     0.037 A 
HETATM    2  C   UNK N   1      36.052  12.754  14.940  0.00  0.00     0.073 A 
HETATM    3  C   UNK N   1      36.316  11.381  14.964  0.00  0.00     0.026 A 
HETATM    4  C   UNK N   1      36.206  10.664  16.159  0.00  0.00     0.016 A 
HETATM    5  C   UNK N   1      35.667  10.606  18.543  0.00  0.00     0.036 A 
HETATM    6  C   UNK N   1      35.276  11.283  19.703  0.00  0.00     0.030 A 
HETATM    7  C   UNK N   1      35.041  12.660  19.674  0.00  0.00     0.003 A 
HETATM    8  C   UNK N   1      35.187  13.373  18.481  0.00  0.00     0.012 A 
HETATM    9  C   UNK N   1      35.573  12.709  17.313  0.00  0.00    -0.022 A 
HETATM   10  C   UNK N   1      35.822  11.317  17.339  0.00  0.00     0.000 A 
ENDROOT
BRANCH   2  11
HETATM   11  S   UNK N   1      36.071  13.646  13.391  0.00  0.00     0.129 S 
HETATM   12  O   UNK N   1      34.692  13.577  12.718  0.00  0.00    -0.598 OA
HETATM   13  O   UNK N   1      36.942  12.946  12.337  0.00  0.00    -0.598 OA
BRANCH  11  14
HETATM   14  O   UNK N   1      36.520  15.302  13.337  0.00  0.00    -0.292 OA
HETATM   15  H   UNK N   1      36.512  16.075  13.924  0.00  0.00     0.232 HD
ENDBRANCH  11  14
ENDBRANCH   2  11
BRANCH   5  16
HETATM   16  N   UNK N   1      35.888   9.213  18.595  0.00  0.00    -0.398 N 
HETATM   17  H   UNK N   1      36.064   8.710  17.767  0.00  0.00     0.156 HD
HETATM   18  H   UNK N   1      35.866   8.744  19.460  0.00  0.00     0.156 HD
ENDBRANCH   5  16
TORSDOF 3
ENDMDL
MODEL 9
REMARK VINA RESULT:      -5.8      9.614     10.710
REMARK  3 active torsions:
REMARK  status: ('A' for Active; 'I' for Inactive)
REMARK    1  A    between atoms: S_1  and  O_2 
REMARK    2  A    between atoms: S_1  and  C_6 
REMARK    3  A    between atoms: C_9  and  N_15 
ROOT
HETATM    1  C   UNK N   1      22.392  14.645   7.870  0.00  0.00     0.037 A 
HETATM    2  C   UNK N   1      21.251  15.453   7.879  0.00  0.00     0.073 A 
HETATM    3  C   UNK N   1      20.226  15.208   8.798  0.00  0.00     0.026 A 
HETATM    4  C   UNK N   1      20.341  14.163   9.719  0.00  0.00     0.016 A 
HETATM    5  C   UNK N   1      21.643  12.327  10.674  0.00  0.00     0.036 A 
HETATM    6  C   UNK N   1      22.803  11.545  10.667  0.00  0.00     0.030 A 
HETATM    7  C   UNK N   1      23.809  11.782   9.726  0.00  0.00     0.003 A 
HETATM    8  C   UNK N   1      23.668  12.808   8.789  0.00  0.00     0.012 A 
HETATM    9  C   UNK N   1      22.516  13.599   8.787  0.00  0.00    -0.022 A 
HETATM   10  C   UNK N   1      21.490  13.359   9.731  0.00  0.00     0.000 A 
ENDROOT
BRANCH   2  11
HETATM   11  S   UNK N   1      21.159  16.865   6.786  0.00  0.00     0.129 S 
HETATM   12  O   UNK N   1      20.058  16.655   5.735  0.00  0.00    -0.598 OA
HETATM   13  O   UNK N   1      22.400  16.976   5.887  0.00  0.00    -0.598 OA
BRANCH  11  14
HETATM   14  O   UNK N   1      20.895  18.442   7.410  0.00  0.00    -0.292 OA
HETATM   15  H   UNK N   1      21.421  19.195   7.722  0.00  0.00     0.232 HD
ENDBRANCH  11  14
ENDBRANCH   2  11
BRANCH   5  16
HETATM   16  N   UNK N   1      20.645  12.076  11.641  0.00  0.00    -0.398 N 
HETATM   17  H   UNK N   1      19.697  12.228  11.423  0.00  0.00     0.156 HD
HETATM   18  H   UNK N   1      20.898  11.749  12.535  0.00  0.00     0.156 HD
ENDBRANCH   5  16
TORSDOF 3
ENDMDL
