MODEL 1
REMARK VINA RESULT:      -7.8      0.000      0.000
REMARK  3 active torsions:
REMARK  status: ('A' for Active; 'I' for Inactive)
REMARK    1  A    between atoms: C_3  and  C_7 
REMARK       I    between atoms: N_9  and  C_18 
REMARK    2  A    between atoms: C_10  and  C_12 
REMARK       I    between atoms: C_18  and  N_19 
REMARK    3  A    between atoms: N_19  and  C_20 
ROOT
HETATM    1  C   UNK N   1      35.544  14.561  11.770  0.00  0.00    -0.028 A 
HETATM    2  C   UNK N   1      36.654  14.581  10.796  0.00  0.00     0.168 A 
HETATM    3  N   UNK N   1      35.972  14.593   9.532  0.00  0.00    -0.318 N 
HETATM    4  C   UNK N   1      34.527  14.758   9.691  0.00  0.00     0.146 A 
HETATM    5  C   UNK N   1      34.363  14.718  11.181  0.00  0.00     0.013 A 
HETATM    6  C   UNK N   1      36.528  14.136   8.350  0.00  0.00     0.321 C 
HETATM    7  N   UNK N   1      37.794  13.543   8.293  0.00  0.00    -0.334 N 
HETATM    8  O   UNK N   1      35.844  14.183   7.342  0.00  0.00    -0.247 OA
HETATM    9  C   UNK N   1      38.558  13.279   9.495  0.00  0.00     0.155 C 
ENDROOT
BRANCH   4  10
HETATM   10  C   UNK N   1      33.808  15.880   8.975  0.00  0.00    -0.032 A 
HETATM   11  C   UNK N   1      32.454  15.823   8.614  0.00  0.00     0.009 A 
HETATM   12  C   UNK N   1      31.823  16.957   8.078  0.00  0.00     0.001 A 
HETATM   13  C   UNK N   1      32.537  18.149   7.908  0.00  0.00     0.000 A 
HETATM   14  C   UNK N   1      33.886  18.208   8.256  0.00  0.00     0.001 A 
HETATM   15  C   UNK N   1      34.514  17.082   8.789  0.00  0.00     0.009 A 
ENDBRANCH   4  10
BRANCH   1  16
HETATM   16  C   UNK N   1      35.736  14.049  13.149  0.00  0.00     0.013 A 
HETATM   17  C   UNK N   1      36.518  14.817  14.029  0.00  0.00     0.057 A 
HETATM   18  C   UNK N   1      36.854  14.338  15.294  0.00  0.00     0.117 A 
HETATM   19  C   UNK N   1      36.400  13.085  15.705  0.00  0.00     0.045 A 
HETATM   20  F   UNK N   1      37.650  15.076  16.106  0.00  0.00    -0.206 F 
HETATM   21  C   UNK N   1      35.607  12.314  14.848  0.00  0.00     0.046 A 
HETATM   22  C   UNK N   1      35.282  12.782  13.569  0.00  0.00     0.127 A 
HETATM   23  F   UNK N   1      34.541  11.999  12.748  0.00  0.00    -0.205 F 
ENDBRANCH   1  16
BRANCH   7  24
HETATM   24  C   UNK N   1      38.279  12.852   7.084  0.00  0.00     0.091 C 
HETATM   25  C   UNK N   1      39.615  12.112   7.306  0.00  0.00     0.044 C 
HETATM   26  C   UNK N   1      40.814  12.874   6.736  0.00  0.00     0.115 C 
HETATM   27  N   UNK N   1      40.557  14.311   6.742  0.00  0.00    -0.421 N 
HETATM   28  C   UNK N   1      39.519  14.636   5.756  0.00  0.00     0.115 C 
HETATM   29  H   UNK N   1      41.028  14.988   7.342  0.00  0.00     0.153 HD
HETATM   30  C   UNK N   1      38.330  13.667   5.786  0.00  0.00     0.044 C 
ENDBRANCH   7  24
TORSDOF 3
ENDMDL
MODEL 2
REMARK VINA RESULT:      -7.7      3.765      6.598
REMARK  3 active torsions:
REMARK  status: ('A' for Active; 'I' for Inactive)
REMARK    1  A    between atoms: C_3  and  C_7 
REMARK       I    between atoms: N_9  and  C_18 
REMARK    2  A    between atoms: C_10  and  C_12 
REMARK       I    between atoms: C_18  and  N_19 
REMARK    3  A    between atoms: N_19  and  C_20 
ROOT
HETATM    1  C   UNK N   1      37.808  10.674  14.410  0.00  0.00    -0.028 A 
HETATM    2  C   UNK N   1      37.579  11.515  13.218  0.00  0.00     0.168 A 
HETATM    3  N   UNK N   1      36.483  12.351  13.621  0.00  0.00    -0.318 N 
HETATM    4  C   UNK N   1      36.157  12.182  15.037  0.00  0.00     0.146 A 
HETATM    5  C   UNK N   1      37.072  11.067  15.445  0.00  0.00     0.013 A 
HETATM    6  C   UNK N   1      35.604  12.951  12.737  0.00  0.00     0.321 C 
HETATM    7  N   UNK N   1      35.657  12.732  11.355  0.00  0.00    -0.334 N 
HETATM    8  O   UNK N   1      34.700  13.626  13.199  0.00  0.00    -0.247 OA
HETATM    9  C   UNK N   1      36.581  11.776  10.779  0.00  0.00     0.155 C 
ENDROOT
BRANCH   4  10
HETATM   10  C   UNK N   1      36.125  13.383  15.957  0.00  0.00    -0.032 A 
HETATM   11  C   UNK N   1      35.330  13.451  17.110  0.00  0.00     0.009 A 
HETATM   12  C   UNK N   1      35.460  14.540  17.987  0.00  0.00     0.001 A 
HETATM   13  C   UNK N   1      36.385  15.557  17.721  0.00  0.00     0.000 A 
HETATM   14  C   UNK N   1      37.171  15.498  16.570  0.00  0.00     0.001 A 
HETATM   15  C   UNK N   1      37.043  14.417  15.698  0.00  0.00     0.009 A 
ENDBRANCH   4  10
BRANCH   1  16
HETATM   16  C   UNK N   1      38.479   9.355  14.306  0.00  0.00     0.013 A 
HETATM   17  C   UNK N   1      39.827   9.274  14.696  0.00  0.00     0.057 A 
HETATM   18  C   UNK N   1      40.561   8.106  14.502  0.00  0.00     0.117 A 
HETATM   19  C   UNK N   1      39.952   6.991  13.925  0.00  0.00     0.045 A 
HETATM   20  F   UNK N   1      41.873   8.068  14.842  0.00  0.00    -0.206 F 
HETATM   21  C   UNK N   1      38.607   7.048  13.545  0.00  0.00     0.046 A 
HETATM   22  C   UNK N   1      37.870   8.226  13.721  0.00  0.00     0.127 A 
HETATM   23  F   UNK N   1      36.579   8.263  13.312  0.00  0.00    -0.205 F 
ENDBRANCH   1  16
BRANCH   7  24
HETATM   24  C   UNK N   1      34.583  13.182  10.451  0.00  0.00     0.091 C 
HETATM   25  C   UNK N   1      34.693  12.578   9.035  0.00  0.00     0.044 C 
HETATM   26  C   UNK N   1      35.271  13.564   8.016  0.00  0.00     0.115 C 
HETATM   27  N   UNK N   1      36.163  14.515   8.674  0.00  0.00    -0.421 N 
HETATM   28  C   UNK N   1      35.385  15.417   9.532  0.00  0.00     0.115 C 
HETATM   29  H   UNK N   1      37.176  14.548   8.554  0.00  0.00     0.153 HD
HETATM   30  C   UNK N   1      34.323  14.690  10.369  0.00  0.00     0.044 C 
ENDBRANCH   7  24
TORSDOF 3
ENDMDL
MODEL 3
REMARK VINA RESULT:      -7.5      5.601      8.468
REMARK  3 active torsions:
REMARK  status: ('A' for Active; 'I' for Inactive)
REMARK    1  A    between atoms: C_3  and  C_7 
REMARK       I    between atoms: N_9  and  C_18 
REMARK    2  A    between atoms: C_10  and  C_12 
REMARK       I    between atoms: C_18  and  N_19 
REMARK    3  A    between atoms: N_19  and  C_20 
ROOT
HETATM    1  C   UNK N   1      31.319  16.863   7.348  0.00  0.00    -0.028 A 
HETATM    2  C   UNK N   1      30.913  16.059   6.178  0.00  0.00     0.168 A 
HETATM    3  N   UNK N   1      29.503  16.316   6.085  0.00  0.00    -0.318 N 
HETATM    4  C   UNK N   1      29.074  17.358   7.017  0.00  0.00     0.146 A 
HETATM    5  C   UNK N   1      30.330  17.634   7.789  0.00  0.00     0.013 A 
HETATM    6  C   UNK N   1      28.599  15.456   5.486  0.00  0.00     0.321 C 
HETATM    7  N   UNK N   1      28.971  14.206   4.978  0.00  0.00    -0.334 N 
HETATM    8  O   UNK N   1      27.423  15.776   5.483  0.00  0.00    -0.247 OA
HETATM    9  C   UNK N   1      30.316  13.695   5.143  0.00  0.00     0.155 C 
ENDROOT
BRANCH   4  10
HETATM   10  C   UNK N   1      28.329  18.573   6.507  0.00  0.00    -0.032 A 
HETATM   11  C   UNK N   1      27.646  19.468   7.344  0.00  0.00     0.009 A 
HETATM   12  C   UNK N   1      27.098  20.645   6.811  0.00  0.00     0.001 A 
HETATM   13  C   UNK N   1      27.237  20.937   5.449  0.00  0.00     0.000 A 
HETATM   14  C   UNK N   1      27.907  20.046   4.611  0.00  0.00     0.001 A 
HETATM   15  C   UNK N   1      28.452  18.876   5.139  0.00  0.00     0.009 A 
ENDBRANCH   4  10
BRANCH   1  16
HETATM   16  C   UNK N   1      32.542  16.537   8.122  0.00  0.00     0.013 A 
HETATM   17  C   UNK N   1      32.682  15.223   8.600  0.00  0.00     0.057 A 
HETATM   18  C   UNK N   1      33.734  14.876   9.446  0.00  0.00     0.117 A 
HETATM   19  C   UNK N   1      34.674  15.839   9.816  0.00  0.00     0.045 A 
HETATM   20  F   UNK N   1      33.820  13.615   9.934  0.00  0.00    -0.206 F 
HETATM   21  C   UNK N   1      34.558  17.148   9.336  0.00  0.00     0.046 A 
HETATM   22  C   UNK N   1      33.493  17.506   8.500  0.00  0.00     0.127 A 
HETATM   23  F   UNK N   1      33.389  18.790   8.079  0.00  0.00    -0.205 F 
ENDBRANCH   1  16
BRANCH   7  24
HETATM   24  C   UNK N   1      27.972  13.206   4.557  0.00  0.00     0.091 C 
HETATM   25  C   UNK N   1      28.571  11.795   4.374  0.00  0.00     0.044 C 
HETATM   26  C   UNK N   1      28.803  11.438   2.904  0.00  0.00     0.115 C 
HETATM   27  N   UNK N   1      29.053  12.643   2.118  0.00  0.00    -0.421 N 
HETATM   28  C   UNK N   1      27.825  13.442   2.026  0.00  0.00     0.115 C 
HETATM   29  H   UNK N   1      29.948  12.892   1.696  0.00  0.00     0.153 HD
HETATM   30  C   UNK N   1      27.081  13.566   3.363  0.00  0.00     0.044 C 
ENDBRANCH   7  24
TORSDOF 3
ENDMDL
MODEL 4
REMARK VINA RESULT:      -7.4      3.517      6.709
REMARK  3 active torsions:
REMARK  status: ('A' for Active; 'I' for Inactive)
REMARK    1  A    between atoms: C_3  and  C_7 
REMARK       I    between atoms: N_9  and  C_18 
REMARK    2  A    between atoms: C_10  and  C_12 
REMARK       I    between atoms: C_18  and  N_19 
REMARK    3  A    between atoms: N_19  and  C_20 
ROOT
HETATM    1  C   UNK N   1      35.966  11.386  15.425  0.00  0.00    -0.028 A 
HETATM    2  C   UNK N   1      35.517  12.080  14.202  0.00  0.00     0.168 A 
HETATM    3  N   UNK N   1      36.476  11.655  13.220  0.00  0.00    -0.318 N 
HETATM    4  C   UNK N   1      37.364  10.614  13.739  0.00  0.00     0.146 A 
HETATM    5  C   UNK N   1      36.948  10.525  15.177  0.00  0.00     0.013 A 
HETATM    6  C   UNK N   1      36.782  12.372  12.078  0.00  0.00     0.321 C 
HETATM    7  N   UNK N   1      36.234  13.631  11.809  0.00  0.00    -0.334 N 
HETATM    8  O   UNK N   1      37.626  11.916  11.326  0.00  0.00    -0.247 OA
HETATM    9  C   UNK N   1      35.386  14.305  12.771  0.00  0.00     0.155 C 
ENDROOT
BRANCH   4  10
HETATM   10  C   UNK N   1      37.499   9.297  13.006  0.00  0.00    -0.032 A 
HETATM   11  C   UNK N   1      38.733   8.686  12.737  0.00  0.00     0.009 A 
HETATM   12  C   UNK N   1      38.770   7.400  12.177  0.00  0.00     0.001 A 
HETATM   13  C   UNK N   1      37.581   6.718  11.892  0.00  0.00     0.000 A 
HETATM   14  C   UNK N   1      36.352   7.325  12.148  0.00  0.00     0.001 A 
HETATM   15  C   UNK N   1      36.313   8.603  12.705  0.00  0.00     0.009 A 
ENDBRANCH   4  10
BRANCH   1  16
HETATM   16  C   UNK N   1      35.609  11.890  16.774  0.00  0.00     0.013 A 
HETATM   17  C   UNK N   1      35.441  13.277  16.930  0.00  0.00     0.057 A 
HETATM   18  C   UNK N   1      35.239  13.838  18.190  0.00  0.00     0.117 A 
HETATM   19  C   UNK N   1      35.186  13.015  19.316  0.00  0.00     0.045 A 
HETATM   20  F   UNK N   1      35.128  15.182  18.321  0.00  0.00    -0.206 F 
HETATM   21  C   UNK N   1      35.336  11.631  19.176  0.00  0.00     0.046 A 
HETATM   22  C   UNK N   1      35.558  11.064  17.915  0.00  0.00     0.127 A 
HETATM   23  F   UNK N   1      35.732   9.724  17.816  0.00  0.00    -0.205 F 
ENDBRANCH   1  16
BRANCH   7  24
HETATM   24  C   UNK N   1      36.738  14.485  10.718  0.00  0.00     0.091 C 
HETATM   25  C   UNK N   1      36.225  15.939  10.803  0.00  0.00     0.044 C 
HETATM   26  C   UNK N   1      35.088  16.223   9.818  0.00  0.00     0.115 C 
HETATM   27  N   UNK N   1      34.331  15.004   9.545  0.00  0.00    -0.421 N 
HETATM   28  C   UNK N   1      35.154  14.070   8.768  0.00  0.00     0.115 C 
HETATM   29  H   UNK N   1      33.374  14.828   9.850  0.00  0.00     0.153 HD
HETATM   30  C   UNK N   1      36.594  13.952   9.288  0.00  0.00     0.044 C 
ENDBRANCH   7  24
TORSDOF 3
ENDMDL
MODEL 5
REMARK VINA RESULT:      -7.3      3.101      6.337
REMARK  3 active torsions:
REMARK  status: ('A' for Active; 'I' for Inactive)
REMARK    1  A    between atoms: C_3  and  C_7 
REMARK       I    between atoms: N_9  and  C_18 
REMARK    2  A    between atoms: C_10  and  C_12 
REMARK       I    between atoms: C_18  and  N_19 
REMARK    3  A    between atoms: N_19  and  C_20 
ROOT
HETATM    1  C   UNK N   1      36.120  12.646  14.556  0.00  0.00    -0.028 A 
HETATM    2  C   UNK N   1      35.303  12.834  13.341  0.00  0.00     0.168 A 
HETATM    3  N   UNK N   1      35.954  11.988  12.381  0.00  0.00    -0.318 N 
HETATM    4  C   UNK N   1      37.005  11.173  12.993  0.00  0.00     0.146 A 
HETATM    5  C   UNK N   1      37.029  11.688  14.401  0.00  0.00     0.013 A 
HETATM    6  C   UNK N   1      35.880  12.173  11.012  0.00  0.00     0.321 C 
HETATM    7  N   UNK N   1      35.218  13.261  10.433  0.00  0.00    -0.334 N 
HETATM    8  O   UNK N   1      36.491  11.397  10.297  0.00  0.00    -0.247 OA
HETATM    9  C   UNK N   1      34.654  14.319  11.246  0.00  0.00     0.155 C 
ENDROOT
BRANCH   4  10
HETATM   10  C   UNK N   1      36.985   9.668  12.838  0.00  0.00    -0.032 A 
HETATM   11  C   UNK N   1      38.125   8.907  12.542  0.00  0.00     0.009 A 
HETATM   12  C   UNK N   1      38.054   7.505  12.552  0.00  0.00     0.001 A 
HETATM   13  C   UNK N   1      36.851   6.860  12.865  0.00  0.00     0.000 A 
HETATM   14  C   UNK N   1      35.712   7.613  13.151  0.00  0.00     0.001 A 
HETATM   15  C   UNK N   1      35.781   9.005  13.141  0.00  0.00     0.009 A 
ENDBRANCH   4  10
BRANCH   1  16
HETATM   16  C   UNK N   1      36.146  13.665  15.634  0.00  0.00     0.013 A 
HETATM   17  C   UNK N   1      36.943  14.806  15.436  0.00  0.00     0.057 A 
HETATM   18  C   UNK N   1      37.125  15.739  16.454  0.00  0.00     0.117 A 
HETATM   19  C   UNK N   1      36.498  15.554  17.687  0.00  0.00     0.045 A 
HETATM   20  F   UNK N   1      37.938  16.806  16.256  0.00  0.00    -0.206 F 
HETATM   21  C   UNK N   1      35.688  14.432  17.896  0.00  0.00     0.046 A 
HETATM   22  C   UNK N   1      35.517  13.481  16.882  0.00  0.00     0.127 A 
HETATM   23  F   UNK N   1      34.754  12.388  17.125  0.00  0.00    -0.205 F 
ENDBRANCH   1  16
BRANCH   7  24
HETATM   24  C   UNK N   1      35.341  13.578   8.999  0.00  0.00     0.091 C 
HETATM   25  C   UNK N   1      34.657  14.907   8.613  0.00  0.00     0.044 C 
HETATM   26  C   UNK N   1      33.302  14.697   7.931  0.00  0.00     0.115 C 
HETATM   27  N   UNK N   1      32.686  13.455   8.388  0.00  0.00    -0.421 N 
HETATM   28  C   UNK N   1      33.443  12.306   7.875  0.00  0.00     0.115 C 
HETATM   29  H   UNK N   1      31.855  13.394   8.976  0.00  0.00     0.153 HD
HETATM   30  C   UNK N   1      34.963  12.475   8.004  0.00  0.00     0.044 C 
ENDBRANCH   7  24
TORSDOF 3
ENDMDL
MODEL 6
REMARK VINA RESULT:      -7.3     10.979     15.122
REMARK  3 active torsions:
REMARK  status: ('A' for Active; 'I' for Inactive)
REMARK    1  A    between atoms: C_3  and  C_7 
REMARK       I    between atoms: N_9  and  C_18 
REMARK    2  A    between atoms: C_10  and  C_12 
REMARK       I    between atoms: C_18  and  N_19 
REMARK    3  A    between atoms: N_19  and  C_20 
ROOT
HETATM    1  C   UNK N   1      23.635  18.100   4.334  0.00  0.00    -0.028 A 
HETATM    2  C   UNK N   1      23.479  17.248   5.529  0.00  0.00     0.168 A 
HETATM    3  N   UNK N   1      24.591  16.345   5.427  0.00  0.00    -0.318 N 
HETATM    4  C   UNK N   1      25.499  16.715   4.342  0.00  0.00     0.146 A 
HETATM    5  C   UNK N   1      24.777  17.860   3.697  0.00  0.00     0.013 A 
HETATM    6  C   UNK N   1      24.622  15.089   6.007  0.00  0.00     0.321 C 
HETATM    7  N   UNK N   1      23.527  14.547   6.690  0.00  0.00    -0.334 N 
HETATM    8  O   UNK N   1      25.617  14.406   5.837  0.00  0.00    -0.247 OA
HETATM    9  C   UNK N   1      22.254  15.236   6.741  0.00  0.00     0.155 C 
ENDROOT
BRANCH   4  10
HETATM   10  C   UNK N   1      26.970  16.933   4.624  0.00  0.00    -0.032 A 
HETATM   11  C   UNK N   1      27.993  16.504   3.766  0.00  0.00     0.009 A 
HETATM   12  C   UNK N   1      29.324  16.866   4.027  0.00  0.00     0.001 A 
HETATM   13  C   UNK N   1      29.636  17.662   5.136  0.00  0.00     0.000 A 
HETATM   14  C   UNK N   1      28.623  18.083   5.997  0.00  0.00     0.001 A 
HETATM   15  C   UNK N   1      27.301  17.724   5.739  0.00  0.00     0.009 A 
ENDBRANCH   4  10
BRANCH   1  16
HETATM   16  C   UNK N   1      22.482  18.828   3.749  0.00  0.00     0.013 A 
HETATM   17  C   UNK N   1      21.233  18.184   3.751  0.00  0.00     0.057 A 
HETATM   18  C   UNK N   1      20.135  18.746   3.102  0.00  0.00     0.117 A 
HETATM   19  C   UNK N   1      20.267  19.973   2.450  0.00  0.00     0.045 A 
HETATM   20  F   UNK N   1      18.953  18.082   3.075  0.00  0.00    -0.206 F 
HETATM   21  C   UNK N   1      21.499  20.635   2.452  0.00  0.00     0.046 A 
HETATM   22  C   UNK N   1      22.610  20.066   3.088  0.00  0.00     0.127 A 
HETATM   23  F   UNK N   1      23.798  20.715   3.043  0.00  0.00    -0.205 F 
ENDBRANCH   1  16
BRANCH   7  24
HETATM   24  C   UNK N   1      23.484  13.131   7.098  0.00  0.00     0.091 C 
HETATM   25  C   UNK N   1      22.059  12.641   7.432  0.00  0.00     0.044 C 
HETATM   26  C   UNK N   1      21.800  12.558   8.938  0.00  0.00     0.115 C 
HETATM   27  N   UNK N   1      22.619  13.533   9.653  0.00  0.00    -0.421 N 
HETATM   28  C   UNK N   1      24.033  13.143   9.585  0.00  0.00     0.115 C 
HETATM   29  H   UNK N   1      22.263  14.362  10.128  0.00  0.00     0.153 HD
HETATM   30  C   UNK N   1      24.469  12.686   8.185  0.00  0.00     0.044 C 
ENDBRANCH   7  24
TORSDOF 3
ENDMDL
MODEL 7
REMARK VINA RESULT:      -7.3      2.866      6.095
REMARK  3 active torsions:
REMARK  status: ('A' for Active; 'I' for Inactive)
REMARK    1  A    between atoms: C_3  and  C_7 
REMARK       I    between atoms: N_9  and  C_18 
REMARK    2  A    between atoms: C_10  and  C_12 
REMARK       I    between atoms: C_18  and  N_19 
REMARK    3  A    between atoms: N_19  and  C_20 
ROOT
HETATM    1  C   UNK N   1      34.697  14.806  10.582  0.00  0.00    -0.028 A 
HETATM    2  C   UNK N   1      35.172  13.475  10.156  0.00  0.00     0.168 A 
HETATM    3  N   UNK N   1      36.132  13.136  11.170  0.00  0.00    -0.318 N 
HETATM    4  C   UNK N   1      36.133  14.104  12.267  0.00  0.00     0.146 A 
HETATM    5  C   UNK N   1      35.172  15.145  11.777  0.00  0.00     0.013 A 
HETATM    6  C   UNK N   1      37.176  12.249  10.979  0.00  0.00     0.321 C 
HETATM    7  N   UNK N   1      37.440  11.650   9.742  0.00  0.00    -0.334 N 
HETATM    8  O   UNK N   1      37.937  12.054  11.911  0.00  0.00    -0.247 OA
HETATM    9  C   UNK N   1      36.690  12.008   8.556  0.00  0.00     0.155 C 
ENDROOT
BRANCH   4  10
HETATM   10  C   UNK N   1      35.932  13.635  13.692  0.00  0.00    -0.032 A 
HETATM   11  C   UNK N   1      36.609  14.187  14.789  0.00  0.00     0.009 A 
HETATM   12  C   UNK N   1      36.267  13.795  16.093  0.00  0.00     0.001 A 
HETATM   13  C   UNK N   1      35.246  12.861  16.306  0.00  0.00     0.000 A 
HETATM   14  C   UNK N   1      34.577  12.301  15.217  0.00  0.00     0.001 A 
HETATM   15  C   UNK N   1      34.916  12.690  13.922  0.00  0.00     0.009 A 
ENDBRANCH   4  10
BRANCH   1  16
HETATM   16  C   UNK N   1      34.094  15.756   9.615  0.00  0.00     0.013 A 
HETATM   17  C   UNK N   1      34.808  16.929   9.319  0.00  0.00     0.057 A 
HETATM   18  C   UNK N   1      34.248  17.930   8.527  0.00  0.00     0.117 A 
HETATM   19  C   UNK N   1      32.965  17.765   8.005  0.00  0.00     0.045 A 
HETATM   20  F   UNK N   1      34.938  19.074   8.295  0.00  0.00    -0.206 F 
HETATM   21  C   UNK N   1      32.245  16.596   8.277  0.00  0.00     0.046 A 
HETATM   22  C   UNK N   1      32.797  15.596   9.088  0.00  0.00     0.127 A 
HETATM   23  F   UNK N   1      32.063  14.490   9.361  0.00  0.00    -0.205 F 
ENDBRANCH   1  16
BRANCH   7  24
HETATM   24  C   UNK N   1      38.682  10.896   9.488  0.00  0.00     0.091 C 
HETATM   25  C   UNK N   1      39.012  10.765   7.986  0.00  0.00     0.044 C 
HETATM   26  C   UNK N   1      38.659   9.387   7.422  0.00  0.00     0.115 C 
HETATM   27  N   UNK N   1      37.548   8.799   8.164  0.00  0.00    -0.421 N 
HETATM   28  C   UNK N   1      37.985   8.447   9.521  0.00  0.00     0.115 C 
HETATM   29  H   UNK N   1      36.607   8.655   7.796  0.00  0.00     0.153 HD
HETATM   30  C   UNK N   1      38.832   9.540  10.187  0.00  0.00     0.044 C 
ENDBRANCH   7  24
TORSDOF 3
ENDMDL
MODEL 8
REMARK VINA RESULT:      -7.3     10.518     13.808
REMARK  3 active torsions:
REMARK  status: ('A' for Active; 'I' for Inactive)
REMARK    1  A    between atoms: C_3  and  C_7 
REMARK       I    between atoms: N_9  and  C_18 
REMARK    2  A    between atoms: C_10  and  C_12 
REMARK       I    between atoms: C_18  and  N_19 
REMARK    3  A    between atoms: N_19  and  C_20 
ROOT
HETATM    1  C   UNK N   1      22.114  14.816   6.678  0.00  0.00    -0.028 A 
HETATM    2  C   UNK N   1      23.383  15.540   6.463  0.00  0.00     0.168 A 
HETATM    3  N   UNK N   1      23.557  15.468   5.039  0.00  0.00    -0.318 N 
HETATM    4  C   UNK N   1      22.385  14.898   4.373  0.00  0.00     0.146 A 
HETATM    5  C   UNK N   1      21.518  14.506   5.531  0.00  0.00     0.013 A 
HETATM    6  C   UNK N   1      24.783  15.560   4.405  0.00  0.00     0.321 C 
HETATM    7  N   UNK N   1      25.990  15.656   5.108  0.00  0.00    -0.334 N 
HETATM    8  O   UNK N   1      24.806  15.468   3.190  0.00  0.00    -0.247 OA
HETATM    9  C   UNK N   1      26.030  15.561   6.553  0.00  0.00     0.155 C 
ENDROOT
BRANCH   4  10
HETATM   10  C   UNK N   1      21.700  15.662   3.261  0.00  0.00    -0.032 A 
HETATM   11  C   UNK N   1      21.349  15.085   2.031  0.00  0.00     0.009 A 
HETATM   12  C   UNK N   1      20.591  15.819   1.104  0.00  0.00     0.001 A 
HETATM   13  C   UNK N   1      20.176  17.122   1.404  0.00  0.00     0.000 A 
HETATM   14  C   UNK N   1      20.531  17.703   2.621  0.00  0.00     0.001 A 
HETATM   15  C   UNK N   1      21.283  16.975   3.543  0.00  0.00     0.009 A 
ENDBRANCH   4  10
BRANCH   1  16
HETATM   16  C   UNK N   1      21.787  14.204   7.990  0.00  0.00     0.013 A 
HETATM   17  C   UNK N   1      22.509  13.062   8.377  0.00  0.00     0.057 A 
HETATM   18  C   UNK N   1      22.169  12.355   9.528  0.00  0.00     0.117 A 
HETATM   19  C   UNK N   1      21.106  12.789  10.322  0.00  0.00     0.045 A 
HETATM   20  F   UNK N   1      22.848  11.228   9.855  0.00  0.00    -0.206 F 
HETATM   21  C   UNK N   1      20.388  13.933   9.960  0.00  0.00     0.046 A 
HETATM   22  C   UNK N   1      20.713  14.637   8.793  0.00  0.00     0.127 A 
HETATM   23  F   UNK N   1      19.977  15.722   8.451  0.00  0.00    -0.205 F 
ENDBRANCH   1  16
BRANCH   7  24
HETATM   24  C   UNK N   1      27.296  15.518   4.439  0.00  0.00     0.091 C 
HETATM   25  C   UNK N   1      28.446  15.199   5.419  0.00  0.00     0.044 C 
HETATM   26  C   UNK N   1      29.307  16.424   5.737  0.00  0.00     0.115 C 
HETATM   27  N   UNK N   1      28.519  17.647   5.625  0.00  0.00    -0.421 N 
HETATM   28  C   UNK N   1      28.180  17.896   4.219  0.00  0.00     0.115 C 
HETATM   29  H   UNK N   1      28.243  18.241   6.408  0.00  0.00     0.153 HD
HETATM   30  C   UNK N   1      27.711  16.637   3.477  0.00  0.00     0.044 C 
ENDBRANCH   7  24
TORSDOF 3
ENDMDL
MODEL 9
REMARK VINA RESULT:      -7.2      2.080      5.527
REMARK  3 active torsions:
REMARK  status: ('A' for Active; 'I' for Inactive)
REMARK    1  A    between atoms: C_3  and  C_7 
REMARK       I    between atoms: N_9  and  C_18 
REMARK    2  A    between atoms: C_10  and  C_12 
REMARK       I    between atoms: C_18  and  N_19 
REMARK    3  A    between atoms: N_19  and  C_20 
ROOT
HETATM    1  C   UNK N   1      36.190  12.909  12.731  0.00  0.00    -0.028 A 
HETATM    2  C   UNK N   1      35.288  13.301  11.630  0.00  0.00     0.168 A 
HETATM    3  N   UNK N   1      36.176  13.403  10.506  0.00  0.00    -0.318 N 
HETATM    4  C   UNK N   1      37.522  12.927  10.828  0.00  0.00     0.146 A 
HETATM    5  C   UNK N   1      37.417  12.640  12.295  0.00  0.00     0.013 A 
HETATM    6  C   UNK N   1      35.926  14.184   9.392  0.00  0.00     0.321 C 
HETATM    7  N   UNK N   1      34.805  15.016   9.291  0.00  0.00    -0.334 N 
HETATM    8  O   UNK N   1      36.765  14.202   8.507  0.00  0.00    -0.247 OA
HETATM    9  C   UNK N   1      33.890  15.185  10.400  0.00  0.00     0.155 C 
ENDROOT
BRANCH   4  10
HETATM   10  C   UNK N   1      38.166  11.848   9.985  0.00  0.00    -0.032 A 
HETATM   11  C   UNK N   1      39.369  12.028   9.287  0.00  0.00     0.009 A 
HETATM   12  C   UNK N   1      39.975  10.939   8.642  0.00  0.00     0.001 A 
HETATM   13  C   UNK N   1      39.389   9.669   8.698  0.00  0.00     0.000 A 
HETATM   14  C   UNK N   1      38.188   9.486   9.383  0.00  0.00     0.001 A 
HETATM   15  C   UNK N   1      37.585  10.568  10.024  0.00  0.00     0.009 A 
ENDBRANCH   4  10
BRANCH   1  16
HETATM   16  C   UNK N   1      35.837  13.168  14.148  0.00  0.00     0.013 A 
HETATM   17  C   UNK N   1      36.611  14.105  14.854  0.00  0.00     0.057 A 
HETATM   18  C   UNK N   1      36.427  14.303  16.221  0.00  0.00     0.117 A 
HETATM   19  C   UNK N   1      35.453  13.574  16.903  0.00  0.00     0.045 A 
HETATM   20  F   UNK N   1      37.219  15.177  16.890  0.00  0.00    -0.206 F 
HETATM   21  C   UNK N   1      34.663  12.649  16.213  0.00  0.00     0.046 A 
HETATM   22  C   UNK N   1      34.856  12.433  14.843  0.00  0.00     0.127 A 
HETATM   23  F   UNK N   1      34.098  11.505  14.209  0.00  0.00    -0.205 F 
ENDBRANCH   1  16
BRANCH   7  24
HETATM   24  C   UNK N   1      34.668  16.013   8.213  0.00  0.00     0.091 C 
HETATM   25  C   UNK N   1      33.742  17.189   8.593  0.00  0.00     0.044 C 
HETATM   26  C   UNK N   1      32.349  17.069   7.970  0.00  0.00     0.115 C 
HETATM   27  N   UNK N   1      32.001  15.666   7.760  0.00  0.00    -0.421 N 
HETATM   28  C   UNK N   1      32.838  15.098   6.697  0.00  0.00     0.115 C 
HETATM   29  H   UNK N   1      31.284  15.156   8.276  0.00  0.00     0.153 HD
HETATM   30  C   UNK N   1      34.318  15.489   6.816  0.00  0.00     0.044 C 
ENDBRANCH   7  24
TORSDOF 3
ENDMDL
