MODEL 1
REMARK VINA RESULT:      -7.5      0.000      0.000
REMARK  6 active torsions:
REMARK  status: ('A' for Active; 'I' for Inactive)
REMARK    1  A    between atoms: C_11  and  C_15 
REMARK       I    between atoms: C_11  and  N_18 
REMARK    2  A    between atoms: C_13  and  N_18 
REMARK    3  A    between atoms: C_14  and  O_23 
REMARK    4  A    between atoms: O_21  and  P_25 
REMARK    5  A    between atoms: O_22  and  P_25 
REMARK    6  A    between atoms: O_23  and  P_25 
ROOT
HETATM    1  C   UNK N   1      23.404  11.879  11.815  0.00  0.00     0.001 A 
HETATM    2  C   UNK N   1      24.526  11.961  10.984  0.00  0.00     0.001 A 
HETATM    3  C   UNK N   1      22.194  12.458  11.421  0.00  0.00     0.012 A 
HETATM    4  C   UNK N   1      24.440  12.621   9.752  0.00  0.00     0.012 A 
HETATM    5  C   UNK N   1      20.902  13.704   9.798  0.00  0.00     0.050 A 
HETATM    6  C   UNK N   1      23.143  13.865   8.131  0.00  0.00     0.032 A 
HETATM    7  C   UNK N   1      20.797  14.373   8.566  0.00  0.00     0.097 A 
HETATM    8  C   UNK N   1      21.937  14.461   7.723  0.00  0.00     0.067 A 
HETATM    9  C   UNK N   1      22.104  13.121  10.194  0.00  0.00    -0.023 A 
HETATM   10  C   UNK N   1      23.233  13.199   9.353  0.00  0.00    -0.025 A 
ENDROOT
BRANCH   8  11
HETATM   11  C   UNK N   1      21.904  15.213   6.436  0.00  0.00     0.259 C 
HETATM   12  O   UNK N   1      22.651  16.169   6.274  0.00  0.00    -0.267 OA
HETATM   13  N   UNK N   1      20.997  14.873   5.480  0.00  0.00    -0.323 N 
HETATM   14  H   UNK N   1      20.416  14.106   5.685  0.00  0.00     0.169 HD
BRANCH  13  15
HETATM   15  C   UNK N   1      20.791  15.499   4.221  0.00  0.00     0.035 A 
HETATM   16  C   UNK N   1      21.181  14.810   3.068  0.00  0.00     0.031 A 
HETATM   17  C   UNK N   1      20.989  15.377   1.806  0.00  0.00     0.026 A 
HETATM   18  C   UNK N   1      20.410  16.641   1.690  0.00  0.00     0.034 A 
HETATM   19  C   UNK N   1      20.022  17.341   2.837  0.00  0.00     0.026 A 
HETATM   20 Cl   UNK N   1      20.171  17.348   0.107  0.00  0.00    -0.084 Cl
HETATM   21  C   UNK N   1      20.210  16.772   4.101  0.00  0.00     0.031 A 
ENDBRANCH  13  15
ENDBRANCH   8  11
BRANCH   7  22
HETATM   22  O   UNK N   1      19.615  14.938   8.159  0.00  0.00    -0.254 OA
BRANCH  22  23
HETATM   23  P   UNK N   1      18.993  16.563   8.322  0.00  0.00     0.396 P 
HETATM   24  O   UNK N   1      18.526  16.278   6.869  0.00  0.00    -0.631 OA
BRANCH  23  25
HETATM   25  O   UNK N   1      18.207  15.646   9.572  0.00  0.00    -0.307 OA
HETATM   26  H   UNK N   1      17.484  15.369  10.157  0.00  0.00     0.222 HD
ENDBRANCH  23  25
BRANCH  23  27
HETATM   27  O   UNK N   1      17.271  16.765   8.346  0.00  0.00    -0.307 OA
HETATM   28  H   UNK N   1      16.798  17.395   8.912  0.00  0.00     0.222 HD
ENDBRANCH  23  27
ENDBRANCH  22  23
ENDBRANCH   7  22
TORSDOF 6
ENDMDL
MODEL 2
REMARK VINA RESULT:      -7.2     14.183     16.016
REMARK  6 active torsions:
REMARK  status: ('A' for Active; 'I' for Inactive)
REMARK    1  A    between atoms: C_11  and  C_15 
REMARK       I    between atoms: C_11  and  N_18 
REMARK    2  A    between atoms: C_13  and  N_18 
REMARK    3  A    between atoms: C_14  and  O_23 
REMARK    4  A    between atoms: O_21  and  P_25 
REMARK    5  A    between atoms: O_22  and  P_25 
REMARK    6  A    between atoms: O_23  and  P_25 
ROOT
HETATM    1  C   UNK N   1      35.196  11.322  19.588  0.00  0.00     0.001 A 
HETATM    2  C   UNK N   1      35.132  12.720  19.621  0.00  0.00     0.001 A 
HETATM    3  C   UNK N   1      35.377  10.656  18.371  0.00  0.00     0.012 A 
HETATM    4  C   UNK N   1      35.252  13.456  18.436  0.00  0.00     0.012 A 
HETATM    5  C   UNK N   1      35.669  10.728  15.970  0.00  0.00     0.050 A 
HETATM    6  C   UNK N   1      35.547  13.522  16.034  0.00  0.00     0.032 A 
HETATM    7  C   UNK N   1      35.789  11.450  14.770  0.00  0.00     0.097 A 
HETATM    8  C   UNK N   1      35.720  12.869  14.803  0.00  0.00     0.067 A 
HETATM    9  C   UNK N   1      35.494  11.387  17.186  0.00  0.00    -0.023 A 
HETATM   10  C   UNK N   1      35.435  12.795  17.219  0.00  0.00    -0.025 A 
ENDROOT
BRANCH   8  11
HETATM   11  C   UNK N   1      35.776  13.685  13.556  0.00  0.00     0.259 C 
HETATM   12  O   UNK N   1      36.378  14.751  13.556  0.00  0.00    -0.267 OA
HETATM   13  N   UNK N   1      35.100  13.271  12.450  0.00  0.00    -0.323 N 
HETATM   14  H   UNK N   1      34.622  12.414  12.527  0.00  0.00     0.169 HD
BRANCH  13  15
HETATM   15  C   UNK N   1      35.002  13.934  11.197  0.00  0.00     0.035 A 
HETATM   16  C   UNK N   1      35.956  13.641  10.216  0.00  0.00     0.031 A 
HETATM   17  C   UNK N   1      35.897  14.256   8.964  0.00  0.00     0.026 A 
HETATM   18  C   UNK N   1      34.885  15.176   8.686  0.00  0.00     0.034 A 
HETATM   19  C   UNK N   1      33.930  15.482   9.661  0.00  0.00     0.026 A 
HETATM   20 Cl   UNK N   1      34.814  15.946   7.117  0.00  0.00    -0.084 Cl
HETATM   21  C   UNK N   1      33.985  14.861  10.914  0.00  0.00     0.031 A 
ENDBRANCH  13  15
ENDBRANCH   8  11
BRANCH   7  22
HETATM   22  O   UNK N   1      35.977  10.814  13.570  0.00  0.00    -0.254 OA
BRANCH  22  23
HETATM   23  P   UNK N   1      34.955   9.720  12.668  0.00  0.00     0.396 P 
HETATM   24  O   UNK N   1      33.850  10.630  13.272  0.00  0.00    -0.631 OA
BRANCH  23  25
HETATM   25  O   UNK N   1      35.990  10.459  11.483  0.00  0.00    -0.307 OA
HETATM   26  H   UNK N   1      36.641  10.498  10.765  0.00  0.00     0.222 HD
ENDBRANCH  23  25
BRANCH  23  27
HETATM   27  O   UNK N   1      34.095  10.363  11.306  0.00  0.00    -0.307 OA
HETATM   28  H   UNK N   1      34.273  10.131  10.382  0.00  0.00     0.222 HD
ENDBRANCH  23  27
ENDBRANCH  22  23
ENDBRANCH   7  22
TORSDOF 6
ENDMDL
MODEL 3
REMARK VINA RESULT:      -7.1     16.482     17.878
REMARK  6 active torsions:
REMARK  status: ('A' for Active; 'I' for Inactive)
REMARK    1  A    between atoms: C_11  and  C_15 
REMARK       I    between atoms: C_11  and  N_18 
REMARK    2  A    between atoms: C_13  and  N_18 
REMARK    3  A    between atoms: C_14  and  O_23 
REMARK    4  A    between atoms: O_21  and  P_25 
REMARK    5  A    between atoms: O_22  and  P_25 
REMARK    6  A    between atoms: O_23  and  P_25 
ROOT
HETATM    1  C   UNK N   1      25.562  27.451  -3.984  0.00  0.00     0.001 A 
HETATM    2  C   UNK N   1      25.427  27.426  -5.376  0.00  0.00     0.001 A 
HETATM    3  C   UNK N   1      26.401  26.533  -3.343  0.00  0.00     0.012 A 
HETATM    4  C   UNK N   1      26.134  26.485  -6.133  0.00  0.00     0.012 A 
HETATM    5  C   UNK N   1      27.939  24.668  -3.461  0.00  0.00     0.050 A 
HETATM    6  C   UNK N   1      27.675  24.621  -6.246  0.00  0.00     0.032 A 
HETATM    7  C   UNK N   1      28.655  23.713  -4.205  0.00  0.00     0.097 A 
HETATM    8  C   UNK N   1      28.515  23.685  -5.618  0.00  0.00     0.067 A 
HETATM    9  C   UNK N   1      27.106  25.589  -4.095  0.00  0.00    -0.023 A 
HETATM   10  C   UNK N   1      26.974  25.567  -5.498  0.00  0.00    -0.025 A 
ENDROOT
BRANCH   8  11
HETATM   11  C   UNK N   1      29.197  22.655  -6.452  0.00  0.00     0.259 C 
HETATM   12  O   UNK N   1      30.406  22.726  -6.634  0.00  0.00    -0.267 OA
HETATM   13  N   UNK N   1      28.462  21.685  -7.061  0.00  0.00    -0.323 N 
HETATM   14  H   UNK N   1      27.493  21.699  -6.885  0.00  0.00     0.169 HD
BRANCH  13  15
HETATM   15  C   UNK N   1      28.930  20.655  -7.920  0.00  0.00     0.035 A 
HETATM   16  C   UNK N   1      28.994  20.917  -9.293  0.00  0.00     0.031 A 
HETATM   17  C   UNK N   1      29.459  19.942 -10.179  0.00  0.00     0.026 A 
HETATM   18  C   UNK N   1      29.857  18.694  -9.696  0.00  0.00     0.034 A 
HETATM   19  C   UNK N   1      29.791  18.420  -8.325  0.00  0.00     0.026 A 
HETATM   20 Cl   UNK N   1      30.438  17.475 -10.808  0.00  0.00    -0.084 Cl
HETATM   21  C   UNK N   1      29.331  19.399  -7.438  0.00  0.00     0.031 A 
ENDBRANCH  13  15
ENDBRANCH   8  11
BRANCH   7  22
HETATM   22  O   UNK N   1      29.489  22.812  -3.594  0.00  0.00    -0.254 OA
BRANCH  22  23
HETATM   23  P   UNK N   1      31.143  22.953  -3.047  0.00  0.00     0.396 P 
HETATM   24  O   UNK N   1      30.438  22.952  -1.663  0.00  0.00    -0.631 OA
BRANCH  23  25
HETATM   25  O   UNK N   1      31.082  21.461  -3.937  0.00  0.00    -0.307 OA
HETATM   26  H   UNK N   1      30.703  20.629  -4.262  0.00  0.00     0.222 HD
ENDBRANCH  23  25
BRANCH  23  27
HETATM   27  O   UNK N   1      31.822  21.609  -2.188  0.00  0.00    -0.307 OA
HETATM   28  H   UNK N   1      32.454  20.976  -2.563  0.00  0.00     0.222 HD
ENDBRANCH  23  27
ENDBRANCH  22  23
ENDBRANCH   7  22
TORSDOF 6
ENDMDL
MODEL 4
REMARK VINA RESULT:      -7.0      9.978     12.567
REMARK  6 active torsions:
REMARK  status: ('A' for Active; 'I' for Inactive)
REMARK    1  A    between atoms: C_11  and  C_15 
REMARK       I    between atoms: C_11  and  N_18 
REMARK    2  A    between atoms: C_13  and  N_18 
REMARK    3  A    between atoms: C_14  and  O_23 
REMARK    4  A    between atoms: O_21  and  P_25 
REMARK    5  A    between atoms: O_22  and  P_25 
REMARK    6  A    between atoms: O_23  and  P_25 
ROOT
HETATM    1  C   UNK N   1      26.339  20.562   4.522  0.00  0.00     0.001 A 
HETATM    2  C   UNK N   1      26.314  21.035   5.839  0.00  0.00     0.001 A 
HETATM    3  C   UNK N   1      27.181  19.501   4.174  0.00  0.00     0.012 A 
HETATM    4  C   UNK N   1      27.128  20.445   6.812  0.00  0.00     0.012 A 
HETATM    5  C   UNK N   1      28.842  17.856   4.798  0.00  0.00     0.050 A 
HETATM    6  C   UNK N   1      28.789  18.796   7.433  0.00  0.00     0.032 A 
HETATM    7  C   UNK N   1      29.669  17.252   5.762  0.00  0.00     0.097 A 
HETATM    8  C   UNK N   1      29.647  17.735   7.098  0.00  0.00     0.067 A 
HETATM    9  C   UNK N   1      27.998  18.911   5.141  0.00  0.00    -0.023 A 
HETATM   10  C   UNK N   1      27.969  19.383   6.469  0.00  0.00    -0.025 A 
ENDROOT
BRANCH   8  11
HETATM   11  C   UNK N   1      30.548  17.178   8.146  0.00  0.00     0.259 C 
HETATM   12  O   UNK N   1      30.133  17.038   9.290  0.00  0.00    -0.267 OA
HETATM   13  N   UNK N   1      31.843  16.894   7.841  0.00  0.00    -0.323 N 
HETATM   14  H   UNK N   1      32.113  17.047   6.906  0.00  0.00     0.169 HD
BRANCH  13  15
HETATM   15  C   UNK N   1      32.851  16.403   8.713  0.00  0.00     0.035 A 
HETATM   16  C   UNK N   1      33.927  17.242   9.022  0.00  0.00     0.031 A 
HETATM   17  C   UNK N   1      34.937  16.811   9.884  0.00  0.00     0.026 A 
HETATM   18  C   UNK N   1      34.880  15.533  10.441  0.00  0.00     0.034 A 
HETATM   19  C   UNK N   1      33.812  14.683  10.135  0.00  0.00     0.026 A 
HETATM   20 Cl   UNK N   1      36.148  14.996  11.521  0.00  0.00    -0.084 Cl
HETATM   21  C   UNK N   1      32.797  15.117   9.275  0.00  0.00     0.031 A 
ENDBRANCH  13  15
ENDBRANCH   8  11
BRANCH   7  22
HETATM   22  O   UNK N   1      30.493  16.204   5.439  0.00  0.00    -0.254 OA
BRANCH  22  23
HETATM   23  P   UNK N   1      31.899  16.113   4.405  0.00  0.00     0.396 P 
HETATM   24  O   UNK N   1      32.087  17.562   4.931  0.00  0.00    -0.631 OA
BRANCH  23  25
HETATM   25  O   UNK N   1      32.109  14.843   5.574  0.00  0.00    -0.307 OA
HETATM   26  H   UNK N   1      32.101  14.424   6.449  0.00  0.00     0.222 HD
ENDBRANCH  23  25
BRANCH  23  27
HETATM   27  O   UNK N   1      33.457  16.127   5.167  0.00  0.00    -0.307 OA
HETATM   28  H   UNK N   1      34.226  16.618   4.839  0.00  0.00     0.222 HD
ENDBRANCH  23  27
ENDBRANCH  22  23
ENDBRANCH   7  22
TORSDOF 6
ENDMDL
MODEL 5
REMARK VINA RESULT:      -6.7      3.029      3.547
REMARK  6 active torsions:
REMARK  status: ('A' for Active; 'I' for Inactive)
REMARK    1  A    between atoms: C_11  and  C_15 
REMARK       I    between atoms: C_11  and  N_18 
REMARK    2  A    between atoms: C_13  and  N_18 
REMARK    3  A    between atoms: C_14  and  O_23 
REMARK    4  A    between atoms: O_21  and  P_25 
REMARK    5  A    between atoms: O_22  and  P_25 
REMARK    6  A    between atoms: O_23  and  P_25 
ROOT
HETATM    1  C   UNK N   1      21.342  12.210  11.204  0.00  0.00     0.001 A 
HETATM    2  C   UNK N   1      22.722  12.096  10.999  0.00  0.00     0.001 A 
HETATM    3  C   UNK N   1      20.566  12.987  10.339  0.00  0.00     0.012 A 
HETATM    4  C   UNK N   1      23.328  12.756   9.924  0.00  0.00     0.012 A 
HETATM    5  C   UNK N   1      20.399  14.431   8.404  0.00  0.00     0.050 A 
HETATM    6  C   UNK N   1      23.155  14.199   7.988  0.00  0.00     0.032 A 
HETATM    7  C   UNK N   1      20.991  15.104   7.321  0.00  0.00     0.097 A 
HETATM    8  C   UNK N   1      22.392  14.991   7.114  0.00  0.00     0.067 A 
HETATM    9  C   UNK N   1      21.167  13.651   9.267  0.00  0.00    -0.023 A 
HETATM   10  C   UNK N   1      22.556  13.532   9.056  0.00  0.00    -0.025 A 
ENDROOT
BRANCH   8  11
HETATM   11  C   UNK N   1      23.084  15.734   6.023  0.00  0.00     0.259 C 
HETATM   12  O   UNK N   1      23.648  15.112   5.131  0.00  0.00    -0.267 OA
HETATM   13  N   UNK N   1      23.143  17.092   6.063  0.00  0.00    -0.323 N 
HETATM   14  H   UNK N   1      22.683  17.525   6.818  0.00  0.00     0.169 HD
BRANCH  13  15
HETATM   15  C   UNK N   1      23.791  17.959   5.143  0.00  0.00     0.035 A 
HETATM   16  C   UNK N   1      22.998  18.786   4.340  0.00  0.00     0.031 A 
HETATM   17  C   UNK N   1      23.587  19.664   3.428  0.00  0.00     0.026 A 
HETATM   18  C   UNK N   1      24.977  19.716   3.308  0.00  0.00     0.034 A 
HETATM   19  C   UNK N   1      25.779  18.890   4.102  0.00  0.00     0.026 A 
HETATM   20 Cl   UNK N   1      25.712  20.818   2.165  0.00  0.00    -0.084 Cl
HETATM   21  C   UNK N   1      25.189  18.014   5.020  0.00  0.00     0.031 A 
ENDBRANCH  13  15
ENDBRANCH   8  11
BRANCH   7  22
HETATM   22  O   UNK N   1      20.242  15.862   6.457  0.00  0.00    -0.254 OA
BRANCH  22  23
HETATM   23  P   UNK N   1      19.349  15.434   5.018  0.00  0.00     0.396 P 
HETATM   24  O   UNK N   1      18.160  15.894   5.903  0.00  0.00    -0.631 OA
BRANCH  23  25
HETATM   25  O   UNK N   1      20.455  16.677   4.515  0.00  0.00    -0.307 OA
HETATM   26  H   UNK N   1      21.170  17.327   4.605  0.00  0.00     0.222 HD
ENDBRANCH  23  25
BRANCH  23  27
HETATM   27  O   UNK N   1      18.589  16.716   4.133  0.00  0.00    -0.307 OA
HETATM   28  H   UNK N   1      18.145  17.478   4.537  0.00  0.00     0.222 HD
ENDBRANCH  23  27
ENDBRANCH  22  23
ENDBRANCH   7  22
TORSDOF 6
ENDMDL
MODEL 6
REMARK VINA RESULT:      -6.7      7.817      9.129
REMARK  6 active torsions:
REMARK  status: ('A' for Active; 'I' for Inactive)
REMARK    1  A    between atoms: C_11  and  C_15 
REMARK       I    between atoms: C_11  and  N_18 
REMARK    2  A    between atoms: C_13  and  N_18 
REMARK    3  A    between atoms: C_14  and  O_23 
REMARK    4  A    between atoms: O_21  and  P_25 
REMARK    5  A    between atoms: O_22  and  P_25 
REMARK    6  A    between atoms: O_23  and  P_25 
ROOT
HETATM    1  C   UNK N   1      34.301  15.422   5.187  0.00  0.00     0.001 A 
HETATM    2  C   UNK N   1      34.007  15.270   3.828  0.00  0.00     0.001 A 
HETATM    3  C   UNK N   1      33.324  15.898   6.068  0.00  0.00     0.012 A 
HETATM    4  C   UNK N   1      32.733  15.589   3.346  0.00  0.00     0.012 A 
HETATM    5  C   UNK N   1      31.076  16.700   6.462  0.00  0.00     0.050 A 
HETATM    6  C   UNK N   1      30.483  16.389   3.746  0.00  0.00     0.032 A 
HETATM    7  C   UNK N   1      29.790  17.028   5.996  0.00  0.00     0.097 A 
HETATM    8  C   UNK N   1      29.493  16.877   4.615  0.00  0.00     0.067 A 
HETATM    9  C   UNK N   1      32.052  16.221   5.590  0.00  0.00    -0.023 A 
HETATM   10  C   UNK N   1      31.753  16.062   4.222  0.00  0.00    -0.025 A 
ENDROOT
BRANCH   8  11
HETATM   11  C   UNK N   1      28.170  17.270   4.052  0.00  0.00     0.259 C 
HETATM   12  O   UNK N   1      27.693  16.631   3.122  0.00  0.00    -0.267 OA
HETATM   13  N   UNK N   1      27.536  18.376   4.528  0.00  0.00    -0.323 N 
HETATM   14  H   UNK N   1      27.986  18.852   5.263  0.00  0.00     0.169 HD
BRANCH  13  15
HETATM   15  C   UNK N   1      26.302  18.924   4.087  0.00  0.00     0.035 A 
HETATM   16  C   UNK N   1      25.116  18.366   4.579  0.00  0.00     0.031 A 
HETATM   17  C   UNK N   1      23.877  18.876   4.186  0.00  0.00     0.026 A 
HETATM   18  C   UNK N   1      23.815  19.946   3.292  0.00  0.00     0.034 A 
HETATM   19  C   UNK N   1      24.994  20.508   2.790  0.00  0.00     0.026 A 
HETATM   20 Cl   UNK N   1      22.261  20.582   2.802  0.00  0.00    -0.084 Cl
HETATM   21  C   UNK N   1      26.236  20.000   3.188  0.00  0.00     0.031 A 
ENDBRANCH  13  15
ENDBRANCH   8  11
BRANCH   7  22
HETATM   22  O   UNK N   1      28.818  17.486   6.847  0.00  0.00    -0.254 OA
BRANCH  22  23
HETATM   23  P   UNK N   1      28.707  17.473   8.591  0.00  0.00     0.396 P 
HETATM   24  O   UNK N   1      29.005  18.983   8.386  0.00  0.00    -0.631 OA
BRANCH  23  25
HETATM   25  O   UNK N   1      27.158  16.917   8.031  0.00  0.00    -0.307 OA
HETATM   26  H   UNK N   1      26.513  16.296   7.657  0.00  0.00     0.222 HD
ENDBRANCH  23  25
BRANCH  23  27
HETATM   27  O   UNK N   1      27.371  18.307   9.317  0.00  0.00    -0.307 OA
HETATM   28  H   UNK N   1      26.972  18.073  10.169  0.00  0.00     0.222 HD
ENDBRANCH  23  27
ENDBRANCH  22  23
ENDBRANCH   7  22
TORSDOF 6
ENDMDL
MODEL 7
REMARK VINA RESULT:      -6.5     15.152     17.312
REMARK  6 active torsions:
REMARK  status: ('A' for Active; 'I' for Inactive)
REMARK    1  A    between atoms: C_11  and  C_15 
REMARK       I    between atoms: C_11  and  N_18 
REMARK    2  A    between atoms: C_13  and  N_18 
REMARK    3  A    between atoms: C_14  and  O_23 
REMARK    4  A    between atoms: O_21  and  P_25 
REMARK    5  A    between atoms: O_22  and  P_25 
REMARK    6  A    between atoms: O_23  and  P_25 
ROOT
HETATM    1  C   UNK N   1      34.785  16.196   7.882  0.00  0.00     0.001 A 
HETATM    2  C   UNK N   1      34.752  17.230   8.824  0.00  0.00     0.001 A 
HETATM    3  C   UNK N   1      35.002  14.877   8.294  0.00  0.00     0.012 A 
HETATM    4  C   UNK N   1      34.934  16.948  10.182  0.00  0.00     0.012 A 
HETATM    5  C   UNK N   1      35.410  13.279  10.065  0.00  0.00     0.050 A 
HETATM    6  C   UNK N   1      35.340  15.345  11.951  0.00  0.00     0.032 A 
HETATM    7  C   UNK N   1      35.597  12.977  11.426  0.00  0.00     0.097 A 
HETATM    8  C   UNK N   1      35.569  14.027  12.382  0.00  0.00     0.067 A 
HETATM    9  C   UNK N   1      35.188  14.591   9.649  0.00  0.00    -0.023 A 
HETATM   10  C   UNK N   1      35.150  15.632  10.599  0.00  0.00    -0.025 A 
ENDROOT
BRANCH   8  11
HETATM   11  C   UNK N   1      35.826  13.776  13.828  0.00  0.00     0.259 C 
HETATM   12  O   UNK N   1      36.796  14.291  14.369  0.00  0.00    -0.267 OA
HETATM   13  N   UNK N   1      35.021  12.924  14.518  0.00  0.00    -0.323 N 
HETATM   14  H   UNK N   1      34.270  12.532  14.016  0.00  0.00     0.169 HD
BRANCH  13  15
HETATM   15  C   UNK N   1      35.138  12.533  15.879  0.00  0.00     0.035 A 
HETATM   16  C   UNK N   1      35.456  11.200  16.160  0.00  0.00     0.031 A 
HETATM   17  C   UNK N   1      35.595  10.768  17.481  0.00  0.00     0.026 A 
HETATM   18  C   UNK N   1      35.410  11.668  18.532  0.00  0.00     0.034 A 
HETATM   19  C   UNK N   1      35.086  13.002  18.262  0.00  0.00     0.026 A 
HETATM   20 Cl   UNK N   1      35.584  11.124  20.185  0.00  0.00    -0.084 Cl
HETATM   21  C   UNK N   1      34.952  13.435  16.939  0.00  0.00     0.031 A 
ENDBRANCH  13  15
ENDBRANCH   8  11
BRANCH   7  22
HETATM   22  O   UNK N   1      35.802  11.688  11.848  0.00  0.00    -0.254 OA
BRANCH  22  23
HETATM   23  P   UNK N   1      35.017  10.189  11.412  0.00  0.00     0.396 P 
HETATM   24  O   UNK N   1      36.344   9.606  11.970  0.00  0.00    -0.631 OA
BRANCH  23  25
HETATM   25  O   UNK N   1      33.961  10.935  12.574  0.00  0.00    -0.307 OA
HETATM   26  H   UNK N   1      33.427  11.005  13.381  0.00  0.00     0.222 HD
ENDBRANCH  23  25
BRANCH  23  27
HETATM   27  O   UNK N   1      34.545   9.126  12.697  0.00  0.00    -0.307 OA
HETATM   28  H   UNK N   1      35.150   8.764  13.364  0.00  0.00     0.222 HD
ENDBRANCH  23  27
ENDBRANCH  22  23
ENDBRANCH   7  22
TORSDOF 6
ENDMDL
MODEL 8
REMARK VINA RESULT:      -6.4     14.316     15.872
REMARK  6 active torsions:
REMARK  status: ('A' for Active; 'I' for Inactive)
REMARK    1  A    between atoms: C_11  and  C_15 
REMARK       I    between atoms: C_11  and  N_18 
REMARK    2  A    between atoms: C_13  and  N_18 
REMARK    3  A    between atoms: C_14  and  O_23 
REMARK    4  A    between atoms: O_21  and  P_25 
REMARK    5  A    between atoms: O_22  and  P_25 
REMARK    6  A    between atoms: O_23  and  P_25 
ROOT
HETATM    1  C   UNK N   1      36.430  11.431  16.185  0.00  0.00     0.001 A 
HETATM    2  C   UNK N   1      35.556  12.506  16.382  0.00  0.00     0.001 A 
HETATM    3  C   UNK N   1      37.083  11.273  14.959  0.00  0.00     0.012 A 
HETATM    4  C   UNK N   1      35.336  13.428  15.352  0.00  0.00     0.012 A 
HETATM    5  C   UNK N   1      37.509  12.033  12.702  0.00  0.00     0.050 A 
HETATM    6  C   UNK N   1      35.766  14.186  13.094  0.00  0.00     0.032 A 
HETATM    7  C   UNK N   1      37.298  12.948  11.655  0.00  0.00     0.097 A 
HETATM    8  C   UNK N   1      36.407  14.037  11.852  0.00  0.00     0.067 A 
HETATM    9  C   UNK N   1      36.864  12.189  13.927  0.00  0.00    -0.023 A 
HETATM   10  C   UNK N   1      35.988  13.275  14.126  0.00  0.00    -0.025 A 
ENDROOT
BRANCH   8  11
HETATM   11  C   UNK N   1      36.094  15.001  10.759  0.00  0.00     0.259 C 
HETATM   12  O   UNK N   1      36.540  16.140  10.810  0.00  0.00    -0.267 OA
HETATM   13  N   UNK N   1      35.261  14.628   9.750  0.00  0.00    -0.323 N 
HETATM   14  H   UNK N   1      34.926  13.703   9.782  0.00  0.00     0.169 HD
BRANCH  13  15
HETATM   15  C   UNK N   1      34.819  15.419   8.656  0.00  0.00     0.035 A 
HETATM   16  C   UNK N   1      35.154  15.006   7.362  0.00  0.00     0.031 A 
HETATM   17  C   UNK N   1      34.733  15.742   6.252  0.00  0.00     0.026 A 
HETATM   18  C   UNK N   1      33.977  16.902   6.430  0.00  0.00     0.034 A 
HETATM   19  C   UNK N   1      33.641  17.327   7.720  0.00  0.00     0.026 A 
HETATM   20 Cl   UNK N   1      33.451  17.821   5.038  0.00  0.00    -0.084 Cl
HETATM   21  C   UNK N   1      34.058  16.586   8.832  0.00  0.00     0.031 A 
ENDBRANCH  13  15
ENDBRANCH   8  11
BRANCH   7  22
HETATM   22  O   UNK N   1      37.938  12.813  10.450  0.00  0.00    -0.254 OA
BRANCH  22  23
HETATM   23  P   UNK N   1      38.062  11.460   9.350  0.00  0.00     0.396 P 
HETATM   24  O   UNK N   1      36.916  12.233   8.643  0.00  0.00    -0.631 OA
BRANCH  23  25
HETATM   25  O   UNK N   1      39.627  12.217   9.321  0.00  0.00    -0.307 OA
HETATM   26  H   UNK N   1      40.308  12.870   9.546  0.00  0.00     0.222 HD
ENDBRANCH  23  25
BRANCH  23  27
HETATM   27  O   UNK N   1      38.644  11.778   7.748  0.00  0.00    -0.307 OA
HETATM   28  H   UNK N   1      38.333  11.325   6.949  0.00  0.00     0.222 HD
ENDBRANCH  23  27
ENDBRANCH  22  23
ENDBRANCH   7  22
TORSDOF 6
ENDMDL
MODEL 9
REMARK VINA RESULT:      -6.3      5.401      8.033
REMARK  6 active torsions:
REMARK  status: ('A' for Active; 'I' for Inactive)
REMARK    1  A    between atoms: C_11  and  C_15 
REMARK       I    between atoms: C_11  and  N_18 
REMARK    2  A    between atoms: C_13  and  N_18 
REMARK    3  A    between atoms: C_14  and  O_23 
REMARK    4  A    between atoms: O_21  and  P_25 
REMARK    5  A    between atoms: O_22  and  P_25 
REMARK    6  A    between atoms: O_23  and  P_25 
ROOT
HETATM    1  C   UNK N   1      18.882  14.219   0.131  0.00  0.00     0.001 A 
HETATM    2  C   UNK N   1      19.670  13.209   0.694  0.00  0.00     0.001 A 
HETATM    3  C   UNK N   1      19.086  15.553   0.496  0.00  0.00     0.012 A 
HETATM    4  C   UNK N   1      20.668  13.531   1.620  0.00  0.00     0.012 A 
HETATM    5  C   UNK N   1      20.284  17.208   1.794  0.00  0.00     0.050 A 
HETATM    6  C   UNK N   1      21.865  15.191   2.915  0.00  0.00     0.032 A 
HETATM    7  C   UNK N   1      21.280  17.551   2.725  0.00  0.00     0.097 A 
HETATM    8  C   UNK N   1      22.077  16.525   3.300  0.00  0.00     0.067 A 
HETATM    9  C   UNK N   1      20.079  15.880   1.423  0.00  0.00    -0.023 A 
HETATM   10  C   UNK N   1      20.877  14.863   1.986  0.00  0.00    -0.025 A 
ENDROOT
BRANCH   8  11
HETATM   11  C   UNK N   1      23.103  16.821   4.340  0.00  0.00     0.259 C 
HETATM   12  O   UNK N   1      22.748  17.180   5.455  0.00  0.00    -0.267 OA
HETATM   13  N   UNK N   1      24.424  16.756   4.022  0.00  0.00    -0.323 N 
HETATM   14  H   UNK N   1      24.637  16.478   3.101  0.00  0.00     0.169 HD
BRANCH  13  15
HETATM   15  C   UNK N   1      25.532  17.044   4.863  0.00  0.00     0.035 A 
HETATM   16  C   UNK N   1      26.106  18.318   4.790  0.00  0.00     0.031 A 
HETATM   17  C   UNK N   1      27.189  18.655   5.604  0.00  0.00     0.026 A 
HETATM   18  C   UNK N   1      27.711  17.716   6.495  0.00  0.00     0.034 A 
HETATM   19  C   UNK N   1      27.148  16.437   6.572  0.00  0.00     0.026 A 
HETATM   20 Cl   UNK N   1      29.068  18.141   7.514  0.00  0.00    -0.084 Cl
HETATM   21  C   UNK N   1      26.060  16.101   5.760  0.00  0.00     0.031 A 
ENDBRANCH  13  15
ENDBRANCH   8  11
BRANCH   7  22
HETATM   22  O   UNK N   1      21.500  18.855   3.086  0.00  0.00    -0.254 OA
BRANCH  22  23
HETATM   23  P   UNK N   1      20.944  20.358   2.389  0.00  0.00     0.396 P 
HETATM   24  O   UNK N   1      20.478  20.592   3.852  0.00  0.00    -0.631 OA
BRANCH  23  25
HETATM   25  O   UNK N   1      22.663  20.342   2.128  0.00  0.00    -0.307 OA
HETATM   26  H   UNK N   1      23.575  20.672   2.157  0.00  0.00     0.222 HD
ENDBRANCH  23  25
BRANCH  23  27
HETATM   27  O   UNK N   1      21.733  21.818   2.894  0.00  0.00    -0.307 OA
HETATM   28  H   UNK N   1      21.889  22.069   3.817  0.00  0.00     0.222 HD
ENDBRANCH  23  27
ENDBRANCH  22  23
ENDBRANCH   7  22
TORSDOF 6
ENDMDL
