MODEL 1
REMARK VINA RESULT:      -8.1      0.000      0.000
REMARK  5 active torsions:
REMARK  status: ('A' for Active; 'I' for Inactive)
REMARK       I    between atoms: C_1  and  N_25 
REMARK    1  A    between atoms: C_2  and  C_3 
REMARK    2  A    between atoms: C_2  and  O_17 
REMARK    3  A    between atoms: C_10  and  C_28 
REMARK       I    between atoms: N_13  and  C_28 
REMARK    4  A    between atoms: C_16  and  O_17 
REMARK    5  A    between atoms: N_25  and  C_26 
ROOT
HETATM    1  C   UNK N   1      34.081  14.903  10.306  0.00  0.00     0.686 A 
HETATM    2  N   UNK N   1      34.114  14.538  11.638  0.00  0.00    -0.168 N 
ATOM      3  HN  UNK N   1      33.287  14.665  12.221  1.00  0.00     0.186 HD
HETATM    4  C   UNK N   1      35.263  14.003  12.181  0.00  0.00     0.188 A 
HETATM    5  C   UNK N   1      36.361  13.841  11.355  0.00  0.00     0.130 A 
HETATM    6  N   UNK N   1      37.578  13.350  11.629  0.00  0.00    -0.346 N 
ATOM      7  HN  UNK N   1      37.927  12.998  12.521  1.00  0.00     0.167 HD
HETATM    8  N   UNK N   1      37.461  13.950   9.459  0.00  0.00    -0.336 N 
HETATM    9  C   UNK N   1      36.299  14.193  10.073  0.00  0.00     0.153 A 
HETATM   10  N   UNK N   1      35.192  14.720   9.528  0.00  0.00    -0.174 N 
ATOM     11  HN  UNK N   1      35.179  14.982   8.542  1.00  0.00     0.186 HD
HETATM   12  N   UNK N   1      32.902  15.483   9.737  0.00  0.00    -0.192 N 
HETATM   13  C   UNK N   1      38.240  13.427  10.443  0.00  0.00     0.182 A 
HETATM   14  H   UNK N   1      37.698  14.113   8.517  0.00  0.00     0.168 HD
HETATM   15  H   UNK N   1      32.109  15.592  10.310  0.00  0.00     0.184 HD
ENDROOT
BRANCH  12  16
HETATM   16  C   UNK N   1      32.823  15.914   8.371  0.00  0.00     0.049 A 
HETATM   17  C   UNK N   1      33.248  17.199   8.000  0.00  0.00     0.031 A 
HETATM   18  C   UNK N   1      33.162  17.606   6.654  0.00  0.00     0.019 A 
HETATM   19  C   UNK N   1      32.651  16.729   5.677  0.00  0.00     0.032 A 
HETATM   20  C   UNK N   1      32.235  15.458   6.055  0.00  0.00     0.019 A 
HETATM   21  C   UNK N   1      32.321  15.063   7.377  0.00  0.00     0.031 A 
BRANCH  19  22
HETATM   22  C   UNK N   1      32.540  17.119   4.257  0.00  0.00     0.249 C 
HETATM   23  N   UNK N   1      31.611  18.020   3.871  0.00  0.00    -0.366 N 
HETATM   24  H   UNK N   1      31.537  18.279   2.925  0.00  0.00     0.159 HD
HETATM   25  H   UNK N   1      31.006  18.419   4.539  0.00  0.00     0.159 HD
HETATM   26  O   UNK N   1      33.286  16.633   3.422  0.00  0.00    -0.268 OA
ENDBRANCH  19  22
ENDBRANCH  12  16
BRANCH   4  27
HETATM   27  O   UNK N   1      35.360  13.643  13.475  0.00  0.00    -0.333 OA
BRANCH  27  28
HETATM   28  C   UNK N   1      34.947  12.444  14.000  0.00  0.00     0.182 C 
BRANCH  28  29
HETATM   29  C   UNK N   1      35.469  12.340  15.429  0.00  0.00     0.010 C 
HETATM   30  C   UNK N   1      34.607  13.173  16.372  0.00  0.00     0.007 C 
HETATM   31  C   UNK N   1      35.165  13.097  17.793  0.00  0.00     0.000 C 
HETATM   32  C   UNK N   1      35.242  11.648  18.270  0.00  0.00     0.000 C 
HETATM   33  C   UNK N   1      36.099  10.821  17.315  0.00  0.00     0.000 C 
HETATM   34  C   UNK N   1      35.508  10.886  15.912  0.00  0.00     0.007 C 
ENDBRANCH  28  29
ENDBRANCH  27  28
ENDBRANCH   4  27
TORSDOF 5
ENDMDL
MODEL 2
REMARK VINA RESULT:      -7.8      6.121      9.713
REMARK  5 active torsions:
REMARK  status: ('A' for Active; 'I' for Inactive)
REMARK       I    between atoms: C_1  and  N_25 
REMARK    1  A    between atoms: C_2  and  C_3 
REMARK    2  A    between atoms: C_2  and  O_17 
REMARK    3  A    between atoms: C_10  and  C_28 
REMARK       I    between atoms: N_13  and  C_28 
REMARK    4  A    between atoms: C_16  and  O_17 
REMARK    5  A    between atoms: N_25  and  C_26 
ROOT
HETATM    1  C   UNK N   1      27.943  17.556   5.184  0.00  0.00     0.686 A 
HETATM    2  N   UNK N   1      29.158  16.908   5.284  0.00  0.00    -0.168 N 
ATOM      3  HN  UNK N   1      29.559  16.449   4.465  1.00  0.00     0.186 HD
HETATM    4  C   UNK N   1      29.831  16.877   6.487  0.00  0.00     0.188 A 
HETATM    5  C   UNK N   1      29.257  17.516   7.571  0.00  0.00     0.130 A 
HETATM    6  N   UNK N   1      29.698  17.635   8.832  0.00  0.00    -0.346 N 
ATOM      7  HN  UNK N   1      30.560  17.265   9.233  1.00  0.00     0.167 HD
HETATM    8  N   UNK N   1      27.719  18.691   8.607  0.00  0.00    -0.336 N 
HETATM    9  C   UNK N   1      28.088  18.141   7.446  0.00  0.00     0.153 A 
HETATM   10  N   UNK N   1      27.416  18.177   6.285  0.00  0.00    -0.174 N 
ATOM     11  HN  UNK N   1      26.521  18.663   6.223  1.00  0.00     0.186 HD
HETATM   12  N   UNK N   1      27.223  17.574   3.946  0.00  0.00    -0.192 N 
HETATM   13  C   UNK N   1      28.731  18.364   9.453  0.00  0.00     0.182 A 
HETATM   14  H   UNK N   1      26.904  19.208   8.804  0.00  0.00     0.168 HD
HETATM   15  H   UNK N   1      27.626  17.134   3.164  0.00  0.00     0.184 HD
ENDROOT
BRANCH  12  16
HETATM   16  C   UNK N   1      25.942  18.200   3.795  0.00  0.00     0.049 A 
HETATM   17  C   UNK N   1      24.762  17.498   4.087  0.00  0.00     0.031 A 
HETATM   18  C   UNK N   1      23.511  18.128   3.933  0.00  0.00     0.019 A 
HETATM   19  C   UNK N   1      23.438  19.462   3.483  0.00  0.00     0.032 A 
HETATM   20  C   UNK N   1      24.613  20.149   3.199  0.00  0.00     0.019 A 
HETATM   21  C   UNK N   1      25.837  19.526   3.353  0.00  0.00     0.031 A 
BRANCH  19  22
HETATM   22  C   UNK N   1      22.148  20.156   3.304  0.00  0.00     0.249 C 
HETATM   23  N   UNK N   1      21.007  19.599   3.767  0.00  0.00    -0.366 N 
HETATM   24  H   UNK N   1      20.147  20.061   3.645  0.00  0.00     0.159 HD
HETATM   25  H   UNK N   1      21.037  18.727   4.226  0.00  0.00     0.159 HD
HETATM   26  O   UNK N   1      22.100  21.236   2.739  0.00  0.00    -0.268 OA
ENDBRANCH  19  22
ENDBRANCH  12  16
BRANCH   4  27
HETATM   27  O   UNK N   1      31.010  16.247   6.648  0.00  0.00    -0.333 OA
BRANCH  27  28
HETATM   28  C   UNK N   1      32.112  16.407   5.846  0.00  0.00     0.182 C 
BRANCH  28  29
HETATM   29  C   UNK N   1      33.331  16.608   6.740  0.00  0.00     0.010 C 
HETATM   30  C   UNK N   1      33.294  17.989   7.386  0.00  0.00     0.007 C 
HETATM   31  C   UNK N   1      34.542  18.198   8.244  0.00  0.00     0.000 C 
HETATM   32  C   UNK N   1      34.657  17.108   9.308  0.00  0.00     0.000 C 
HETATM   33  C   UNK N   1      34.684  15.730   8.653  0.00  0.00     0.000 C 
HETATM   34  C   UNK N   1      33.419  15.532   7.828  0.00  0.00     0.007 C 
ENDBRANCH  28  29
ENDBRANCH  27  28
ENDBRANCH   4  27
TORSDOF 5
ENDMDL
MODEL 3
REMARK VINA RESULT:      -7.7      7.290     13.168
REMARK  5 active torsions:
REMARK  status: ('A' for Active; 'I' for Inactive)
REMARK       I    between atoms: C_1  and  N_25 
REMARK    1  A    between atoms: C_2  and  C_3 
REMARK    2  A    between atoms: C_2  and  O_17 
REMARK    3  A    between atoms: C_10  and  C_28 
REMARK       I    between atoms: N_13  and  C_28 
REMARK    4  A    between atoms: C_16  and  O_17 
REMARK    5  A    between atoms: N_25  and  C_26 
ROOT
HETATM    1  C   UNK N   1      27.324  17.375   5.914  0.00  0.00     0.686 A 
HETATM    2  N   UNK N   1      25.994  17.034   5.770  0.00  0.00    -0.168 N 
ATOM      3  HN  UNK N   1      25.608  16.253   6.300  1.00  0.00     0.186 HD
HETATM    4  C   UNK N   1      25.184  17.748   4.911  0.00  0.00     0.188 A 
HETATM    5  C   UNK N   1      25.744  18.805   4.216  0.00  0.00     0.130 A 
HETATM    6  N   UNK N   1      25.185  19.647   3.335  0.00  0.00    -0.346 N 
ATOM      7  HN  UNK N   1      24.219  19.661   3.007  1.00  0.00     0.167 HD
HETATM    8  N   UNK N   1      27.360  20.166   3.621  0.00  0.00    -0.336 N 
HETATM    9  C   UNK N   1      27.028  19.118   4.380  0.00  0.00     0.153 A 
HETATM   10  N   UNK N   1      27.832  18.431   5.206  0.00  0.00    -0.174 N 
ATOM     11  HN  UNK N   1      28.812  18.695   5.307  1.00  0.00     0.186 HD
HETATM   12  N   UNK N   1      28.180  16.625   6.784  0.00  0.00    -0.192 N 
HETATM   13  C   UNK N   1      26.202  20.479   2.981  0.00  0.00     0.182 A 
HETATM   14  H   UNK N   1      28.237  20.607   3.542  0.00  0.00     0.168 HD
HETATM   15  H   UNK N   1      27.792  15.879   7.295  0.00  0.00     0.184 HD
ENDROOT
BRANCH  12  16
HETATM   16  C   UNK N   1      29.576  16.911   6.944  0.00  0.00     0.049 A 
HETATM   17  C   UNK N   1      30.493  16.596   5.929  0.00  0.00     0.031 A 
HETATM   18  C   UNK N   1      31.862  16.882   6.103  0.00  0.00     0.019 A 
HETATM   19  C   UNK N   1      32.316  17.484   7.294  0.00  0.00     0.032 A 
HETATM   20  C   UNK N   1      31.399  17.794   8.292  0.00  0.00     0.019 A 
HETATM   21  C   UNK N   1      30.058  17.511   8.116  0.00  0.00     0.031 A 
BRANCH  19  22
HETATM   22  C   UNK N   1      33.742  17.796   7.517  0.00  0.00     0.249 C 
HETATM   23  N   UNK N   1      34.211  17.961   8.774  0.00  0.00    -0.366 N 
HETATM   24  H   UNK N   1      35.161  18.170   8.922  0.00  0.00     0.159 HD
HETATM   25  H   UNK N   1      33.601  17.872   9.542  0.00  0.00     0.159 HD
HETATM   26  O   UNK N   1      34.506  17.907   6.573  0.00  0.00    -0.268 OA
ENDBRANCH  19  22
ENDBRANCH  12  16
BRANCH   4  27
HETATM   27  O   UNK N   1      23.885  17.453   4.718  0.00  0.00    -0.333 OA
BRANCH  27  28
HETATM   28  C   UNK N   1      22.834  18.007   5.405  0.00  0.00     0.182 C 
BRANCH  28  29
HETATM   29  C   UNK N   1      21.605  17.984   4.502  0.00  0.00     0.010 C 
HETATM   30  C   UNK N   1      21.408  19.344   3.838  0.00  0.00     0.007 C 
HETATM   31  C   UNK N   1      20.150  19.324   2.971  0.00  0.00     0.000 C 
HETATM   32  C   UNK N   1      20.232  18.217   1.921  0.00  0.00     0.000 C 
HETATM   33  C   UNK N   1      20.438  16.863   2.594  0.00  0.00     0.000 C 
HETATM   34  C   UNK N   1      21.712  16.896   3.428  0.00  0.00     0.007 C 
ENDBRANCH  28  29
ENDBRANCH  27  28
ENDBRANCH   4  27
TORSDOF 5
ENDMDL
MODEL 4
REMARK VINA RESULT:      -7.6     12.188     14.350
REMARK  5 active torsions:
REMARK  status: ('A' for Active; 'I' for Inactive)
REMARK       I    between atoms: C_1  and  N_25 
REMARK    1  A    between atoms: C_2  and  C_3 
REMARK    2  A    between atoms: C_2  and  O_17 
REMARK    3  A    between atoms: C_10  and  C_28 
REMARK       I    between atoms: N_13  and  C_28 
REMARK    4  A    between atoms: C_16  and  O_17 
REMARK    5  A    between atoms: N_25  and  C_26 
ROOT
HETATM    1  C   UNK N   1      21.264  15.798   5.984  0.00  0.00     0.686 A 
HETATM    2  N   UNK N   1      21.501  14.658   6.726  0.00  0.00    -0.168 N 
ATOM      3  HN  UNK N   1      22.172  13.965   6.394  1.00  0.00     0.186 HD
HETATM    4  C   UNK N   1      20.832  14.452   7.914  0.00  0.00     0.188 A 
HETATM    5  C   UNK N   1      19.934  15.417   8.332  0.00  0.00     0.130 A 
HETATM    6  N   UNK N   1      19.169  15.461   9.433  0.00  0.00    -0.346 N 
ATOM      7  HN  UNK N   1      19.105  14.770  10.180  1.00  0.00     0.167 HD
HETATM    8  N   UNK N   1      18.832  17.311   8.188  0.00  0.00    -0.336 N 
HETATM    9  C   UNK N   1      19.731  16.512   7.603  0.00  0.00     0.153 A 
HETATM   10  N   UNK N   1      20.368  16.728   6.442  0.00  0.00    -0.174 N 
ATOM     11  HN  UNK N   1      20.188  17.576   5.905  1.00  0.00     0.186 HD
HETATM   12  N   UNK N   1      21.934  16.011   4.737  0.00  0.00    -0.192 N 
HETATM   13  C   UNK N   1      18.497  16.639   9.321  0.00  0.00     0.182 A 
HETATM   14  H   UNK N   1      18.493  18.179   7.872  0.00  0.00     0.168 HD
HETATM   15  H   UNK N   1      22.584  15.339   4.433  0.00  0.00     0.184 HD
ENDROOT
BRANCH  12  16
HETATM   16  C   UNK N   1      21.699  17.159   3.909  0.00  0.00     0.049 A 
HETATM   17  C   UNK N   1      22.442  18.336   4.089  0.00  0.00     0.031 A 
HETATM   18  C   UNK N   1      22.199  19.454   3.267  0.00  0.00     0.019 A 
HETATM   19  C   UNK N   1      21.210  19.397   2.264  0.00  0.00     0.032 A 
HETATM   20  C   UNK N   1      20.482  18.226   2.093  0.00  0.00     0.019 A 
HETATM   21  C   UNK N   1      20.725  17.132   2.901  0.00  0.00     0.031 A 
BRANCH  19  22
HETATM   22  C   UNK N   1      20.921  20.549   1.386  0.00  0.00     0.249 C 
HETATM   23  N   UNK N   1      20.500  21.718   1.916  0.00  0.00    -0.366 N 
HETATM   24  H   UNK N   1      20.306  22.484   1.330  0.00  0.00     0.159 HD
HETATM   25  H   UNK N   1      20.386  21.803   2.891  0.00  0.00     0.159 HD
HETATM   26  O   UNK N   1      21.060  20.455   0.177  0.00  0.00    -0.268 OA
ENDBRANCH  19  22
ENDBRANCH  12  16
BRANCH   4  27
HETATM   27  O   UNK N   1      21.009  13.353   8.671  0.00  0.00    -0.333 OA
BRANCH  27  28
HETATM   28  C   UNK N   1      21.873  12.324   8.387  0.00  0.00     0.182 C 
BRANCH  28  29
HETATM   29  C   UNK N   1      22.501  11.851   9.694  0.00  0.00     0.010 C 
HETATM   30  C   UNK N   1      23.901  12.435   9.854  0.00  0.00     0.007 C 
HETATM   31  C   UNK N   1      24.538  11.919  11.144  0.00  0.00     0.000 C 
HETATM   32  C   UNK N   1      23.669  12.263  12.353  0.00  0.00     0.000 C 
HETATM   33  C   UNK N   1      22.268  11.682  12.180  0.00  0.00     0.000 C 
HETATM   34  C   UNK N   1      21.641  12.231  10.905  0.00  0.00     0.007 C 
ENDBRANCH  28  29
ENDBRANCH  27  28
ENDBRANCH   4  27
TORSDOF 5
ENDMDL
MODEL 5
REMARK VINA RESULT:      -7.6      7.563     11.161
REMARK  5 active torsions:
REMARK  status: ('A' for Active; 'I' for Inactive)
REMARK       I    between atoms: C_1  and  N_25 
REMARK    1  A    between atoms: C_2  and  C_3 
REMARK    2  A    between atoms: C_2  and  O_17 
REMARK    3  A    between atoms: C_10  and  C_28 
REMARK       I    between atoms: N_13  and  C_28 
REMARK    4  A    between atoms: C_16  and  O_17 
REMARK    5  A    between atoms: N_25  and  C_26 
ROOT
HETATM    1  C   UNK N   1      26.410  17.703   4.916  0.00  0.00     0.686 A 
HETATM    2  N   UNK N   1      27.467  17.361   5.736  0.00  0.00    -0.168 N 
ATOM      3  HN  UNK N   1      27.564  17.801   6.651  1.00  0.00     0.186 HD
HETATM    4  C   UNK N   1      28.392  16.427   5.321  0.00  0.00     0.188 A 
HETATM    5  C   UNK N   1      28.221  15.849   4.076  0.00  0.00     0.130 A 
HETATM    6  N   UNK N   1      28.964  14.928   3.446  0.00  0.00    -0.346 N 
ATOM      7  HN  UNK N   1      29.815  14.474   3.778  1.00  0.00     0.167 HD
HETATM    8  N   UNK N   1      27.211  15.514   2.155  0.00  0.00    -0.336 N 
HETATM    9  C   UNK N   1      27.188  16.190   3.308  0.00  0.00     0.153 A 
HETATM   10  N   UNK N   1      26.281  17.101   3.693  0.00  0.00    -0.174 N 
ATOM     11  HN  UNK N   1      25.502  17.343   3.080  1.00  0.00     0.186 HD
HETATM   12  N   UNK N   1      25.457  18.691   5.326  0.00  0.00    -0.192 N 
HETATM   13  C   UNK N   1      28.321  14.737   2.262  0.00  0.00     0.182 A 
HETATM   14  H   UNK N   1      26.575  15.568   1.406  0.00  0.00     0.168 HD
HETATM   15  H   UNK N   1      25.559  19.100   6.215  0.00  0.00     0.184 HD
ENDROOT
BRANCH  12  16
HETATM   16  C   UNK N   1      24.362  19.111   4.501  0.00  0.00     0.049 A 
HETATM   17  C   UNK N   1      24.515  20.167   3.589  0.00  0.00     0.031 A 
HETATM   18  C   UNK N   1      23.429  20.568   2.787  0.00  0.00     0.019 A 
HETATM   19  C   UNK N   1      22.185  19.913   2.896  0.00  0.00     0.032 A 
HETATM   20  C   UNK N   1      22.044  18.867   3.801  0.00  0.00     0.019 A 
HETATM   21  C   UNK N   1      23.114  18.478   4.585  0.00  0.00     0.031 A 
BRANCH  19  22
HETATM   22  C   UNK N   1      21.021  20.305   2.077  0.00  0.00     0.249 C 
HETATM   23  N   UNK N   1      19.882  19.580   2.126  0.00  0.00    -0.366 N 
HETATM   24  H   UNK N   1      19.107  19.842   1.579  0.00  0.00     0.159 HD
HETATM   25  H   UNK N   1      19.828  18.789   2.710  0.00  0.00     0.159 HD
HETATM   26  O   UNK N   1      21.076  21.285   1.351  0.00  0.00    -0.268 OA
ENDBRANCH  19  22
ENDBRANCH  12  16
BRANCH   4  27
HETATM   27  O   UNK N   1      29.451  16.065   6.069  0.00  0.00    -0.333 OA
BRANCH  27  28
HETATM   28  C   UNK N   1      29.853  16.682   7.228  0.00  0.00     0.182 C 
BRANCH  28  29
HETATM   29  C   UNK N   1      31.195  17.359   6.971  0.00  0.00     0.010 C 
HETATM   30  C   UNK N   1      31.989  17.472   8.268  0.00  0.00     0.007 C 
HETATM   31  C   UNK N   1      33.313  18.192   8.008  0.00  0.00     0.000 C 
HETATM   32  C   UNK N   1      34.126  17.463   6.940  0.00  0.00     0.000 C 
HETATM   33  C   UNK N   1      33.320  17.346   5.649  0.00  0.00     0.000 C 
HETATM   34  C   UNK N   1      32.020  16.601   5.925  0.00  0.00     0.007 C 
ENDBRANCH  28  29
ENDBRANCH  27  28
ENDBRANCH   4  27
TORSDOF 5
ENDMDL
MODEL 6
REMARK VINA RESULT:      -7.5      2.865      9.757
REMARK  5 active torsions:
REMARK  status: ('A' for Active; 'I' for Inactive)
REMARK       I    between atoms: C_1  and  N_25 
REMARK    1  A    between atoms: C_2  and  C_3 
REMARK    2  A    between atoms: C_2  and  O_17 
REMARK    3  A    between atoms: C_10  and  C_28 
REMARK       I    between atoms: N_13  and  C_28 
REMARK    4  A    between atoms: C_16  and  O_17 
REMARK    5  A    between atoms: N_25  and  C_26 
ROOT
HETATM    1  C   UNK N   1      35.967  13.934  13.589  0.00  0.00     0.686 A 
HETATM    2  N   UNK N   1      36.217  14.930  12.666  0.00  0.00    -0.168 N 
ATOM      3  HN  UNK N   1      36.676  15.793  12.960  1.00  0.00     0.186 HD
HETATM    4  C   UNK N   1      35.849  14.763  11.348  0.00  0.00     0.188 A 
HETATM    5  C   UNK N   1      35.236  13.577  10.988  0.00  0.00     0.130 A 
HETATM    6  N   UNK N   1      34.788  13.169   9.792  0.00  0.00    -0.346 N 
ATOM      7  HN  UNK N   1      34.817  13.672   8.906  1.00  0.00     0.167 HD
HETATM    8  N   UNK N   1      34.417  11.570  11.339  0.00  0.00    -0.336 N 
HETATM    9  C   UNK N   1      35.013  12.628  11.896  0.00  0.00     0.153 A 
HETATM   10  N   UNK N   1      35.360  12.776  13.184  0.00  0.00    -0.174 N 
ATOM     11  HN  UNK N   1      35.173  12.030  13.855  1.00  0.00     0.186 HD
HETATM   12  N   UNK N   1      36.323  14.107  14.965  0.00  0.00    -0.192 N 
HETATM   13  C   UNK N   1      34.287  11.926  10.034  0.00  0.00     0.182 A 
HETATM   14  H   UNK N   1      34.137  10.731  11.772  0.00  0.00     0.168 HD
HETATM   15  H   UNK N   1      36.772  14.940  15.232  0.00  0.00     0.184 HD
ENDROOT
BRANCH  12  16
HETATM   16  C   UNK N   1      36.054  13.121  15.972  0.00  0.00     0.049 A 
HETATM   17  C   UNK N   1      36.465  11.790  15.800  0.00  0.00     0.031 A 
HETATM   18  C   UNK N   1      36.192  10.835  16.798  0.00  0.00     0.019 A 
HETATM   19  C   UNK N   1      35.506  11.209  17.972  0.00  0.00     0.032 A 
HETATM   20  C   UNK N   1      35.105  12.530  18.133  0.00  0.00     0.019 A 
HETATM   21  C   UNK N   1      35.377  13.463  17.151  0.00  0.00     0.031 A 
BRANCH  19  22
HETATM   22  C   UNK N   1      35.196  10.237  19.040  0.00  0.00     0.249 C 
HETATM   23  N   UNK N   1      34.182   9.358  18.884  0.00  0.00    -0.366 N 
HETATM   24  H   UNK N   1      33.976   8.712  19.596  0.00  0.00     0.159 HD
HETATM   25  H   UNK N   1      33.649   9.365  18.055  0.00  0.00     0.159 HD
HETATM   26  O   UNK N   1      35.852  10.218  20.068  0.00  0.00    -0.268 OA
ENDBRANCH  19  22
ENDBRANCH  12  16
BRANCH   4  27
HETATM   27  O   UNK N   1      36.052  15.705  10.408  0.00  0.00    -0.333 OA
BRANCH  27  28
HETATM   28  C   UNK N   1      35.264  16.810  10.206  0.00  0.00     0.182 C 
BRANCH  28  29
HETATM   29  C   UNK N   1      34.539  16.646   8.875  0.00  0.00     0.010 C 
HETATM   30  C   UNK N   1      33.125  16.121   9.101  0.00  0.00     0.007 C 
HETATM   31  C   UNK N   1      32.423  15.918   7.758  0.00  0.00     0.000 C 
HETATM   32  C   UNK N   1      32.393  17.220   6.959  0.00  0.00     0.000 C 
HETATM   33  C   UNK N   1      33.811  17.742   6.746  0.00  0.00     0.000 C 
HETATM   34  C   UNK N   1      34.481  17.965   8.096  0.00  0.00     0.007 C 
ENDBRANCH  28  29
ENDBRANCH  27  28
ENDBRANCH   4  27
TORSDOF 5
ENDMDL
MODEL 7
REMARK VINA RESULT:      -7.4      1.654      1.896
REMARK  5 active torsions:
REMARK  status: ('A' for Active; 'I' for Inactive)
REMARK       I    between atoms: C_1  and  N_25 
REMARK    1  A    between atoms: C_2  and  C_3 
REMARK    2  A    between atoms: C_2  and  O_17 
REMARK    3  A    between atoms: C_10  and  C_28 
REMARK       I    between atoms: N_13  and  C_28 
REMARK    4  A    between atoms: C_16  and  O_17 
REMARK    5  A    between atoms: N_25  and  C_26 
ROOT
HETATM    1  C   UNK N   1      34.515  14.962  10.496  0.00  0.00     0.686 A 
HETATM    2  N   UNK N   1      35.096  14.747  11.730  0.00  0.00    -0.168 N 
ATOM      3  HN  UNK N   1      35.229  15.528  12.373  1.00  0.00     0.186 HD
HETATM    4  C   UNK N   1      35.499  13.480  12.096  0.00  0.00     0.188 A 
HETATM    5  C   UNK N   1      35.296  12.448  11.199  0.00  0.00     0.130 A 
HETATM    6  N   UNK N   1      35.589  11.144  11.308  0.00  0.00    -0.346 N 
ATOM      7  HN  UNK N   1      36.028  10.662  12.092  1.00  0.00     0.167 HD
HETATM    8  N   UNK N   1      34.621  11.550   9.312  0.00  0.00    -0.336 N 
HETATM    9  C   UNK N   1      34.725  12.680  10.018  0.00  0.00     0.153 A 
HETATM   10  N   UNK N   1      34.332  13.907   9.643  0.00  0.00    -0.174 N 
ATOM     11  HN  UNK N   1      33.900  14.052   8.730  1.00  0.00     0.186 HD
HETATM   12  N   UNK N   1      34.116  16.278  10.095  0.00  0.00    -0.192 N 
HETATM   13  C   UNK N   1      35.163  10.610  10.130  0.00  0.00     0.182 A 
HETATM   14  H   UNK N   1      34.243  11.428   8.411  0.00  0.00     0.168 HD
HETATM   15  H   UNK N   1      34.243  17.019  10.729  0.00  0.00     0.184 HD
ENDROOT
BRANCH  12  16
HETATM   16  C   UNK N   1      33.541  16.564   8.812  0.00  0.00     0.049 A 
HETATM   17  C   UNK N   1      32.170  16.371   8.582  0.00  0.00     0.031 A 
HETATM   18  C   UNK N   1      31.622  16.656   7.316  0.00  0.00     0.019 A 
HETATM   19  C   UNK N   1      32.445  17.135   6.277  0.00  0.00     0.032 A 
HETATM   20  C   UNK N   1      33.801  17.325   6.516  0.00  0.00     0.019 A 
HETATM   21  C   UNK N   1      34.334  17.044   7.760  0.00  0.00     0.031 A 
BRANCH  19  22
HETATM   22  C   UNK N   1      31.911  17.442   4.935  0.00  0.00     0.249 C 
HETATM   23  N   UNK N   1      32.729  17.429   3.860  0.00  0.00    -0.366 N 
HETATM   24  H   UNK N   1      32.373  17.635   2.966  0.00  0.00     0.159 HD
HETATM   25  H   UNK N   1      33.684  17.214   3.972  0.00  0.00     0.159 HD
HETATM   26  O   UNK N   1      30.730  17.707   4.785  0.00  0.00    -0.268 OA
ENDBRANCH  19  22
ENDBRANCH  12  16
BRANCH   4  27
HETATM   27  O   UNK N   1      36.085  13.213  13.278  0.00  0.00    -0.333 OA
BRANCH  27  28
HETATM   28  C   UNK N   1      35.954  13.966  14.418  0.00  0.00     0.182 C 
BRANCH  28  29
HETATM   29  C   UNK N   1      36.139  13.049  15.622  0.00  0.00     0.010 C 
HETATM   30  C   UNK N   1      35.006  13.252  16.623  0.00  0.00     0.007 C 
HETATM   31  C   UNK N   1      35.224  12.362  17.846  0.00  0.00     0.000 C 
HETATM   32  C   UNK N   1      35.326  10.893  17.437  0.00  0.00     0.000 C 
HETATM   33  C   UNK N   1      36.456  10.702  16.429  0.00  0.00     0.000 C 
HETATM   34  C   UNK N   1      36.203  11.575  15.207  0.00  0.00     0.007 C 
ENDBRANCH  28  29
ENDBRANCH  27  28
ENDBRANCH   4  27
TORSDOF 5
ENDMDL
MODEL 8
REMARK VINA RESULT:      -7.1      3.128      9.811
REMARK  5 active torsions:
REMARK  status: ('A' for Active; 'I' for Inactive)
REMARK       I    between atoms: C_1  and  N_25 
REMARK    1  A    between atoms: C_2  and  C_3 
REMARK    2  A    between atoms: C_2  and  O_17 
REMARK    3  A    between atoms: C_10  and  C_28 
REMARK       I    between atoms: N_13  and  C_28 
REMARK    4  A    between atoms: C_16  and  O_17 
REMARK    5  A    between atoms: N_25  and  C_26 
ROOT
HETATM    1  C   UNK N   1      35.449  13.104  13.579  0.00  0.00     0.686 A 
HETATM    2  N   UNK N   1      35.604  13.813  12.405  0.00  0.00    -0.168 N 
ATOM      3  HN  UNK N   1      36.067  14.722  12.416  1.00  0.00     0.186 HD
HETATM    4  C   UNK N   1      35.135  13.296  11.216  0.00  0.00     0.188 A 
HETATM    5  C   UNK N   1      34.519  12.058  11.241  0.00  0.00     0.130 A 
HETATM    6  N   UNK N   1      33.986  11.342  10.241  0.00  0.00    -0.346 N 
ATOM      7  HN  UNK N   1      33.934  11.586   9.252  1.00  0.00     0.167 HD
HETATM    8  N   UNK N   1      33.773  10.222  12.187  0.00  0.00    -0.336 N 
HETATM    9  C   UNK N   1      34.390  11.391  12.386  0.00  0.00     0.153 A 
HETATM   10  N   UNK N   1      34.835  11.880  13.554  0.00  0.00    -0.174 N 
ATOM     11  HN  UNK N   1      34.718  11.345  14.414  1.00  0.00     0.186 HD
HETATM   12  N   UNK N   1      35.910  13.642  14.824  0.00  0.00    -0.192 N 
HETATM   13  C   UNK N   1      33.531  10.212  10.849  0.00  0.00     0.182 A 
HETATM   14  H   UNK N   1      33.546   9.532  12.852  0.00  0.00     0.168 HD
HETATM   15  H   UNK N   1      36.361  14.516  14.818  0.00  0.00     0.184 HD
ENDROOT
BRANCH  12  16
HETATM   16  C   UNK N   1      35.743  12.967  16.078  0.00  0.00     0.049 A 
HETATM   17  C   UNK N   1      35.283  13.659  17.209  0.00  0.00     0.031 A 
HETATM   18  C   UNK N   1      35.125  12.980  18.434  0.00  0.00     0.019 A 
HETATM   19  C   UNK N   1      35.428  11.607  18.529  0.00  0.00     0.032 A 
HETATM   20  C   UNK N   1      35.880  10.931  17.403  0.00  0.00     0.019 A 
HETATM   21  C   UNK N   1      36.033  11.601  16.204  0.00  0.00     0.031 A 
BRANCH  19  22
HETATM   22  C   UNK N   1      35.281  10.861  19.795  0.00  0.00     0.249 C 
HETATM   23  N   UNK N   1      36.154  11.062  20.806  0.00  0.00    -0.366 N 
HETATM   24  H   UNK N   1      36.056  10.563  21.649  0.00  0.00     0.159 HD
HETATM   25  H   UNK N   1      36.890  11.708  20.700  0.00  0.00     0.159 HD
HETATM   26  O   UNK N   1      34.372  10.060  19.939  0.00  0.00    -0.268 OA
ENDBRANCH  19  22
ENDBRANCH  12  16
BRANCH   4  27
HETATM   27  O   UNK N   1      35.243  13.948  10.043  0.00  0.00    -0.333 OA
BRANCH  27  28
HETATM   28  C   UNK N   1      35.611  15.262   9.895  0.00  0.00     0.182 C 
BRANCH  28  29
HETATM   29  C   UNK N   1      34.617  15.935   8.954  0.00  0.00     0.010 C 
HETATM   30  C   UNK N   1      33.199  15.460   9.250  0.00  0.00     0.007 C 
HETATM   31  C   UNK N   1      32.217  16.106   8.273  0.00  0.00     0.000 C 
HETATM   32  C   UNK N   1      32.302  17.630   8.346  0.00  0.00     0.000 C 
HETATM   33  C   UNK N   1      33.726  18.095   8.058  0.00  0.00     0.000 C 
HETATM   34  C   UNK N   1      34.683  17.463   9.061  0.00  0.00     0.007 C 
ENDBRANCH  28  29
ENDBRANCH  27  28
ENDBRANCH   4  27
TORSDOF 5
ENDMDL
MODEL 9
REMARK VINA RESULT:      -7.0      2.611      3.474
REMARK  5 active torsions:
REMARK  status: ('A' for Active; 'I' for Inactive)
REMARK       I    between atoms: C_1  and  N_25 
REMARK    1  A    between atoms: C_2  and  C_3 
REMARK    2  A    between atoms: C_2  and  O_17 
REMARK    3  A    between atoms: C_10  and  C_28 
REMARK       I    between atoms: N_13  and  C_28 
REMARK    4  A    between atoms: C_16  and  O_17 
REMARK    5  A    between atoms: N_25  and  C_26 
ROOT
HETATM    1  C   UNK N   1      35.435  12.718  11.998  0.00  0.00     0.686 A 
HETATM    2  N   UNK N   1      35.451  11.747  12.980  0.00  0.00    -0.168 N 
ATOM      3  HN  UNK N   1      34.834  11.831  13.788  1.00  0.00     0.186 HD
HETATM    4  C   UNK N   1      36.300  10.666  12.873  0.00  0.00     0.188 A 
HETATM    5  C   UNK N   1      37.117  10.587  11.759  0.00  0.00     0.130 A 
HETATM    6  N   UNK N   1      38.017   9.653  11.417  0.00  0.00    -0.346 N 
ATOM      7  HN  UNK N   1      38.271   8.809  11.930  1.00  0.00     0.167 HD
HETATM    8  N   UNK N   1      37.938  11.260   9.838  0.00  0.00    -0.336 N 
HETATM    9  C   UNK N   1      37.076  11.532  10.822  0.00  0.00     0.153 A 
HETATM   10  N   UNK N   1      36.261  12.594  10.912  0.00  0.00    -0.174 N 
ATOM     11  HN  UNK N   1      36.255  13.302  10.178  1.00  0.00     0.186 HD
HETATM   12  N   UNK N   1      34.576  13.858  12.111  0.00  0.00    -0.192 N 
HETATM   13  C   UNK N   1      38.511  10.091  10.227  0.00  0.00     0.182 A 
HETATM   14  H   UNK N   1      38.117  11.784   9.023  0.00  0.00     0.168 HD
HETATM   15  H   UNK N   1      33.981  13.920  12.892  0.00  0.00     0.184 HD
ENDROOT
BRANCH  12  16
HETATM   16  C   UNK N   1      34.545  14.913  11.140  0.00  0.00     0.049 A 
HETATM   17  C   UNK N   1      33.640  14.874  10.068  0.00  0.00     0.031 A 
HETATM   18  C   UNK N   1      33.623  15.918   9.123  0.00  0.00     0.019 A 
HETATM   19  C   UNK N   1      34.512  17.005   9.248  0.00  0.00     0.032 A 
HETATM   20  C   UNK N   1      35.403  17.035  10.315  0.00  0.00     0.019 A 
HETATM   21  C   UNK N   1      35.414  16.008  11.240  0.00  0.00     0.031 A 
BRANCH  19  22
HETATM   22  C   UNK N   1      34.530  18.117   8.276  0.00  0.00     0.249 C 
HETATM   23  N   UNK N   1      33.794  18.040   7.146  0.00  0.00    -0.366 N 
HETATM   24  H   UNK N   1      33.807  18.781   6.498  0.00  0.00     0.159 HD
HETATM   25  H   UNK N   1      33.244  17.242   6.970  0.00  0.00     0.159 HD
HETATM   26  O   UNK N   1      35.205  19.111   8.486  0.00  0.00    -0.268 OA
ENDBRANCH  19  22
ENDBRANCH  12  16
BRANCH   4  27
HETATM   27  O   UNK N   1      36.371   9.698  13.805  0.00  0.00    -0.333 OA
BRANCH  27  28
HETATM   28  C   UNK N   1      35.417   9.441  14.757  0.00  0.00     0.182 C 
BRANCH  28  29
HETATM   29  C   UNK N   1      35.856  10.091  16.065  0.00  0.00     0.010 C 
HETATM   30  C   UNK N   1      34.897  11.213  16.449  0.00  0.00     0.007 C 
HETATM   31  C   UNK N   1      35.371  11.887  17.737  0.00  0.00     0.000 C 
HETATM   32  C   UNK N   1      35.491  10.868  18.870  0.00  0.00     0.000 C 
HETATM   33  C   UNK N   1      36.445   9.745  18.473  0.00  0.00     0.000 C 
HETATM   34  C   UNK N   1      35.938   9.069  17.205  0.00  0.00     0.007 C 
ENDBRANCH  28  29
ENDBRANCH  27  28
ENDBRANCH   4  27
TORSDOF 5
ENDMDL
