REMARK  5 active torsions:
REMARK  status: ('A' for Active; 'I' for Inactive)
REMARK       I    between atoms: C_1  and  N_25 
REMARK    1  A    between atoms: C_2  and  C_3 
REMARK    2  A    between atoms: C_2  and  O_17 
REMARK    3  A    between atoms: C_10  and  C_28 
REMARK       I    between atoms: N_13  and  C_28 
REMARK    4  A    between atoms: C_16  and  O_17 
REMARK    5  A    between atoms: N_25  and  C_26 
ROOT
HETATM    1  C   UNK N   1       1.092   1.048   0.020  0.00  0.00     0.686 A 
HETATM    2  N   UNK N   1       0.969  -0.327  -0.007  0.00  0.00    -0.168 N 
ATOM      3  HN  UNK N   1       1.804  -0.913  -0.006  1.00  0.00     0.186 HD
HETATM    4  C   UNK N   1      -0.280  -0.911  -0.036  0.00  0.00     0.188 A 
HETATM    5  C   UNK N   1      -1.387  -0.082  -0.030  0.00  0.00     0.130 A 
HETATM    6  N   UNK N   1      -2.692  -0.390  -0.051  0.00  0.00    -0.346 N 
ATOM      7  HN  UNK N   1      -3.118  -1.316  -0.078  1.00  0.00     0.167 HD
HETATM    8  N   UNK N   1      -2.431   1.849   0.008  0.00  0.00    -0.336 N 
HETATM    9  C   UNK N   1      -1.241   1.241   0.005  0.00  0.00     0.153 A 
HETATM   10  N   UNK N   1      -0.034   1.827   0.028  0.00  0.00    -0.174 N 
ATOM     11  HN  UNK N   1       0.044   2.844   0.052  1.00  0.00     0.186 HD
HETATM   12  N   UNK N   1       2.384   1.666   0.025  0.00  0.00    -0.192 N 
HETATM   13  C   UNK N   1      -3.317   0.819  -0.027  0.00  0.00     0.182 A 
HETATM   14  H   UNK N   1      -2.621   2.815   0.029  0.00  0.00     0.168 HD
HETATM   15  H   UNK N   1       3.180   1.088   0.034  0.00  0.00     0.184 HD
ENDROOT
BRANCH  12  16
HETATM   16  C   UNK N   1       2.571   3.088   0.016  0.00  0.00     0.049 A 
HETATM   17  C   UNK N   1       3.861   3.641   0.018  0.00  0.00     0.031 A 
HETATM   18  C   UNK N   1       4.027   5.040   0.010  0.00  0.00     0.019 A 
HETATM   19  C   UNK N   1       2.902   5.889   0.001  0.00  0.00     0.032 A 
HETATM   20  C   UNK N   1       1.629   5.331  -0.003  0.00  0.00     0.019 A 
HETATM   21  C   UNK N   1       1.472   3.958   0.004  0.00  0.00     0.031 A 
BRANCH  19  22
HETATM   22  C   UNK N   1       3.033   7.360  -0.003  0.00  0.00     0.249 C 
HETATM   23  N   UNK N   1       1.929   8.139  -0.008  0.00  0.00    -0.366 N 
HETATM   24  H   UNK N   1       2.017   9.119  -0.012  0.00  0.00     0.159 HD
HETATM   25  H   UNK N   1       1.035   7.725  -0.008  0.00  0.00     0.159 HD
HETATM   26  O   UNK N   1       4.135   7.883  -0.001  0.00  0.00    -0.268 OA
ENDBRANCH  19  22
ENDBRANCH  12  16
BRANCH   4  27
HETATM   27  O   UNK N   1      -0.462  -2.244  -0.079  0.00  0.00    -0.333 OA
BRANCH  27  28
HETATM   28  C   UNK N   1       0.523  -3.186   0.083  0.00  0.00     0.182 C 
BRANCH  28  29
HETATM   29  C   UNK N   1      -0.048  -4.548  -0.298  0.00  0.00     0.010 C 
HETATM   30  C   UNK N   1       0.905  -5.661   0.126  0.00  0.00     0.007 C 
HETATM   31  C   UNK N   1       0.345  -7.018  -0.300  0.00  0.00     0.000 C 
HETATM   32  C   UNK N   1      -1.045  -7.242   0.294  0.00  0.00     0.000 C 
HETATM   33  C   UNK N   1      -1.988  -6.119  -0.128  0.00  0.00     0.000 C 
HETATM   34  C   UNK N   1      -1.426  -4.780   0.332  0.00  0.00     0.007 C 
ENDBRANCH  28  29
ENDBRANCH  27  28
ENDBRANCH   4  27
TORSDOF 5
