MODEL 1
REMARK VINA RESULT:      -8.2      0.000      0.000
REMARK  4 active torsions:
REMARK  status: ('A' for Active; 'I' for Inactive)
REMARK    1  A    between atoms: C_2  and  C_9 
REMARK       I    between atoms: C_2  and  N_29 
REMARK    2  A    between atoms: C_3  and  N_28 
REMARK    3  A    between atoms: C_5  and  N_28 
REMARK    4  A    between atoms: C_20  and  N_27 
ROOT
HETATM    1  C   UNK N   1      33.473  15.904   9.082  0.00  0.00     0.122 A 
HETATM    2  C   UNK N   1      34.782  14.621  10.590  0.00  0.00     0.143 A 
HETATM    3  C   UNK N   1      34.495  15.824  10.028  0.00  0.00     0.071 A 
HETATM    4  C   UNK N   1      35.382  16.725  10.596  0.00  0.00     0.127 A 
HETATM    5  C   UNK N   1      33.134  13.547   9.351  0.00  0.00     0.183 A 
HETATM    6  N   UNK N   1      36.164  16.028  11.473  0.00  0.00    -0.302 N 
ATOM      7  HN  UNK N   1      36.913  16.422  12.044  1.00  0.00     0.186 HD
HETATM    8  N   UNK N   1      34.124  13.482  10.276  0.00  0.00    -0.336 N 
ATOM      9  HN  UNK N   1      34.367  12.597  10.722  1.00  0.00     0.168 HD
HETATM   10  N   UNK N   1      32.824  14.739   8.768  0.00  0.00    -0.338 N 
ATOM     11  HN  UNK N   1      32.079  14.766   8.070  1.00  0.00     0.168 HD
HETATM   12  N   UNK N   1      35.789  14.753  11.462  0.00  0.00    -0.239 N 
ENDROOT
BRANCH   1  13
HETATM   13  N   UNK N   1      33.118  17.132   8.435  0.00  0.00    -0.341 N 
HETATM   14  H   UNK N   1      33.738  17.896   8.493  0.00  0.00     0.167 HD
BRANCH  13  15
HETATM   15  C   UNK N   1      31.894  17.289   7.704  0.00  0.00     0.040 A 
HETATM   16  C   UNK N   1      31.831  17.077   6.315  0.00  0.00    -0.035 A 
HETATM   17  C   UNK N   1      33.048  16.718   5.534  0.00  0.00     0.050 C 
HETATM   18  C   UNK N   1      30.595  17.175   5.654  0.00  0.00     0.010 A 
HETATM   19  C   UNK N   1      29.425  17.478   6.369  0.00  0.00     0.017 A 
HETATM   20  C   UNK N   1      29.483  17.712   7.751  0.00  0.00     0.034 A 
HETATM   21  C   UNK N   1      30.716  17.621   8.378  0.00  0.00     0.047 A 
BRANCH  20  22
HETATM   22  C   UNK N   1      28.296  18.027   8.609  0.00  0.00     0.251 C 
HETATM   23  N   UNK N   1      27.469  19.084   8.396  0.00  0.00    -0.361 N 
HETATM   24  C   UNK N   1      27.588  20.014   7.307  0.00  0.00     0.149 C 
HETATM   25  H   UNK N   1      26.733  19.223   9.036  0.00  0.00     0.162 HD
HETATM   26  O   UNK N   1      28.039  17.277   9.540  0.00  0.00    -0.268 OA
ENDBRANCH  20  22
ENDBRANCH  13  15
ENDBRANCH   1  13
BRANCH  12  27
HETATM   27  C   UNK N   1      36.375  13.701  12.256  0.00  0.00     0.058 A 
HETATM   28  C   UNK N   1      36.198  13.679  13.652  0.00  0.00     0.031 A 
HETATM   29  C   UNK N   1      36.760  12.669  14.430  0.00  0.00     0.002 A 
HETATM   30  C   UNK N   1      37.506  11.660  13.820  0.00  0.00     0.000 A 
HETATM   31  C   UNK N   1      37.688  11.667  12.433  0.00  0.00     0.002 A 
HETATM   32  C   UNK N   1      37.127  12.686  11.652  0.00  0.00     0.031 A 
ENDBRANCH  12  27
TORSDOF 4
ENDMDL
MODEL 2
REMARK VINA RESULT:      -8.2      3.112      8.700
REMARK  4 active torsions:
REMARK  status: ('A' for Active; 'I' for Inactive)
REMARK    1  A    between atoms: C_2  and  C_9 
REMARK       I    between atoms: C_2  and  N_29 
REMARK    2  A    between atoms: C_3  and  N_28 
REMARK    3  A    between atoms: C_5  and  N_28 
REMARK    4  A    between atoms: C_20  and  N_27 
ROOT
HETATM    1  C   UNK N   1      36.286  14.093  11.533  0.00  0.00     0.122 A 
HETATM    2  C   UNK N   1      35.001  15.098   9.808  0.00  0.00     0.143 A 
HETATM    3  C   UNK N   1      35.656  15.215  10.993  0.00  0.00     0.071 A 
HETATM    4  C   UNK N   1      35.500  16.537  11.379  0.00  0.00     0.127 A 
HETATM    5  C   UNK N   1      35.525  12.839   9.637  0.00  0.00     0.183 A 
HETATM    6  N   UNK N   1      34.759  17.158  10.415  0.00  0.00    -0.302 N 
ATOM      7  HN  UNK N   1      34.478  18.139  10.421  1.00  0.00     0.186 HD
HETATM    8  N   UNK N   1      34.923  13.938   9.117  0.00  0.00    -0.336 N 
ATOM      9  HN  UNK N   1      34.424  13.891   8.229  1.00  0.00     0.168 HD
HETATM   10  N   UNK N   1      36.188  12.924  10.825  0.00  0.00    -0.338 N 
ATOM     11  HN  UNK N   1      36.629  12.085  11.202  1.00  0.00     0.168 HD
HETATM   12  N   UNK N   1      34.464  16.275   9.465  0.00  0.00    -0.239 N 
ENDROOT
BRANCH   1  13
HETATM   13  N   UNK N   1      36.985  14.131  12.783  0.00  0.00    -0.341 N 
HETATM   14  H   UNK N   1      37.877  14.550  12.816  0.00  0.00     0.167 HD
BRANCH  13  15
HETATM   15  C   UNK N   1      36.433  13.583  13.988  0.00  0.00     0.040 A 
HETATM   16  C   UNK N   1      36.563  14.238  15.225  0.00  0.00    -0.035 A 
HETATM   17  C   UNK N   1      37.318  15.518  15.343  0.00  0.00     0.050 C 
HETATM   18  C   UNK N   1      35.946  13.696  16.365  0.00  0.00     0.010 A 
HETATM   19  C   UNK N   1      35.201  12.510  16.277  0.00  0.00     0.017 A 
HETATM   20  C   UNK N   1      35.084  11.838  15.051  0.00  0.00     0.034 A 
HETATM   21  C   UNK N   1      35.712  12.387  13.943  0.00  0.00     0.047 A 
BRANCH  20  22
HETATM   22  C   UNK N   1      34.302  10.577  14.846  0.00  0.00     0.251 C 
HETATM   23  N   UNK N   1      34.828   9.331  14.978  0.00  0.00    -0.361 N 
HETATM   24  C   UNK N   1      36.181   9.049  15.372  0.00  0.00     0.149 C 
HETATM   25  H   UNK N   1      34.238   8.565  14.791  0.00  0.00     0.162 HD
HETATM   26  O   UNK N   1      33.115  10.672  14.567  0.00  0.00    -0.268 OA
ENDBRANCH  20  22
ENDBRANCH  13  15
ENDBRANCH   1  13
BRANCH  12  27
HETATM   27  C   UNK N   1      33.695  16.550   8.276  0.00  0.00     0.058 A 
HETATM   28  C   UNK N   1      34.307  17.131   7.151  0.00  0.00     0.031 A 
HETATM   29  C   UNK N   1      33.575  17.402   5.996  0.00  0.00     0.002 A 
HETATM   30  C   UNK N   1      32.216  17.091   5.951  0.00  0.00     0.000 A 
HETATM   31  C   UNK N   1      31.594  16.511   7.061  0.00  0.00     0.002 A 
HETATM   32  C   UNK N   1      32.330  16.243   8.222  0.00  0.00     0.031 A 
ENDBRANCH  12  27
TORSDOF 4
ENDMDL
MODEL 3
REMARK VINA RESULT:      -8.1      3.417     10.288
REMARK  4 active torsions:
REMARK  status: ('A' for Active; 'I' for Inactive)
REMARK    1  A    between atoms: C_2  and  C_9 
REMARK       I    between atoms: C_2  and  N_29 
REMARK    2  A    between atoms: C_3  and  N_28 
REMARK    3  A    between atoms: C_5  and  N_28 
REMARK    4  A    between atoms: C_20  and  N_27 
ROOT
HETATM    1  C   UNK N   1      29.094  17.264   6.746  0.00  0.00     0.122 A 
HETATM    2  C   UNK N   1      27.252  18.153   5.540  0.00  0.00     0.143 A 
HETATM    3  C   UNK N   1      28.176  17.170   5.700  0.00  0.00     0.071 A 
HETATM    4  C   UNK N   1      27.935  16.260   4.682  0.00  0.00     0.127 A 
HETATM    5  C   UNK N   1      28.069  19.341   7.365  0.00  0.00     0.183 A 
HETATM    6  N   UNK N   1      26.880  16.733   3.955  0.00  0.00    -0.302 N 
ATOM      7  HN  UNK N   1      26.471  16.279   3.137  1.00  0.00     0.186 HD
HETATM    8  N   UNK N   1      27.175  19.234   6.349  0.00  0.00    -0.336 N 
ATOM      9  HN  UNK N   1      26.465  19.950   6.199  1.00  0.00     0.168 HD
HETATM   10  N   UNK N   1      29.008  18.371   7.549  0.00  0.00    -0.338 N 
ATOM     11  HN  UNK N   1      29.675  18.473   8.316  1.00  0.00     0.168 HD
HETATM   12  N   UNK N   1      26.473  17.881   4.486  0.00  0.00    -0.239 N 
ENDROOT
BRANCH   1  13
HETATM   13  N   UNK N   1      30.106  16.276   6.973  0.00  0.00    -0.341 N 
HETATM   14  H   UNK N   1      29.846  15.409   7.361  0.00  0.00     0.167 HD
BRANCH  13  15
HETATM   15  C   UNK N   1      31.486  16.505   6.654  0.00  0.00     0.040 A 
HETATM   16  C   UNK N   1      32.013  16.197   5.387  0.00  0.00    -0.035 A 
HETATM   17  C   UNK N   1      31.163  15.580   4.329  0.00  0.00     0.050 C 
HETATM   18  C   UNK N   1      33.353  16.503   5.100  0.00  0.00     0.010 A 
HETATM   19  C   UNK N   1      34.168  17.115   6.066  0.00  0.00     0.017 A 
HETATM   20  C   UNK N   1      33.657  17.406   7.339  0.00  0.00     0.034 A 
HETATM   21  C   UNK N   1      32.335  17.084   7.602  0.00  0.00     0.047 A 
BRANCH  20  22
HETATM   22  C   UNK N   1      34.435  18.070   8.434  0.00  0.00     0.251 C 
HETATM   23  N   UNK N   1      34.839  17.436   9.566  0.00  0.00    -0.361 N 
HETATM   24  C   UNK N   1      34.617  16.045   9.851  0.00  0.00     0.149 C 
HETATM   25  H   UNK N   1      35.319  17.969  10.240  0.00  0.00     0.162 HD
HETATM   26  O   UNK N   1      34.748  19.243   8.291  0.00  0.00    -0.268 OA
ENDBRANCH  20  22
ENDBRANCH  13  15
ENDBRANCH   1  13
BRANCH  12  27
HETATM   27  C   UNK N   1      25.380  18.687   4.001  0.00  0.00     0.058 A 
HETATM   28  C   UNK N   1      25.631  19.846   3.243  0.00  0.00     0.031 A 
HETATM   29  C   UNK N   1      24.582  20.633   2.770  0.00  0.00     0.002 A 
HETATM   30  C   UNK N   1      23.264  20.269   3.046  0.00  0.00     0.000 A 
HETATM   31  C   UNK N   1      23.000  19.119   3.796  0.00  0.00     0.002 A 
HETATM   32  C   UNK N   1      24.054  18.331   4.276  0.00  0.00     0.031 A 
ENDBRANCH  12  27
TORSDOF 4
ENDMDL
MODEL 4
REMARK VINA RESULT:      -8.0      5.324     10.670
REMARK  4 active torsions:
REMARK  status: ('A' for Active; 'I' for Inactive)
REMARK    1  A    between atoms: C_2  and  C_9 
REMARK       I    between atoms: C_2  and  N_29 
REMARK    2  A    between atoms: C_3  and  N_28 
REMARK    3  A    between atoms: C_5  and  N_28 
REMARK    4  A    between atoms: C_20  and  N_27 
ROOT
HETATM    1  C   UNK N   1      28.829  17.678   6.728  0.00  0.00     0.122 A 
HETATM    2  C   UNK N   1      26.938  18.430   5.505  0.00  0.00     0.143 A 
HETATM    3  C   UNK N   1      27.939  17.525   5.664  0.00  0.00     0.071 A 
HETATM    4  C   UNK N   1      27.791  16.617   4.629  0.00  0.00     0.127 A 
HETATM    5  C   UNK N   1      27.624  19.651   7.362  0.00  0.00     0.183 A 
HETATM    6  N   UNK N   1      26.712  17.012   3.891  0.00  0.00    -0.302 N 
ATOM      7  HN  UNK N   1      26.356  16.540   3.059  1.00  0.00     0.186 HD
HETATM    8  N   UNK N   1      26.758  19.487   6.330  0.00  0.00    -0.336 N 
ATOM      9  HN  UNK N   1      25.993  20.144   6.179  1.00  0.00     0.168 HD
HETATM   10  N   UNK N   1      28.639  18.760   7.547  0.00  0.00    -0.338 N 
ATOM     11  HN  UNK N   1      29.282  18.903   8.326  1.00  0.00     0.168 HD
HETATM   12  N   UNK N   1      26.202  18.113   4.434  0.00  0.00    -0.239 N 
ENDROOT
BRANCH   1  13
HETATM   13  N   UNK N   1      29.917  16.774   6.956  0.00  0.00    -0.341 N 
HETATM   14  H   UNK N   1      29.765  15.980   7.518  0.00  0.00     0.167 HD
BRANCH  13  15
HETATM   15  C   UNK N   1      31.220  16.986   6.395  0.00  0.00     0.040 A 
HETATM   16  C   UNK N   1      32.300  17.430   7.179  0.00  0.00    -0.035 A 
HETATM   17  C   UNK N   1      32.124  17.739   8.627  0.00  0.00     0.050 C 
HETATM   18  C   UNK N   1      33.573  17.556   6.600  0.00  0.00     0.010 A 
HETATM   19  C   UNK N   1      33.776  17.240   5.246  0.00  0.00     0.017 A 
HETATM   20  C   UNK N   1      32.700  16.816   4.452  0.00  0.00     0.034 A 
HETATM   21  C   UNK N   1      31.451  16.711   5.044  0.00  0.00     0.047 A 
BRANCH  20  22
HETATM   22  C   UNK N   1      32.810  16.441   3.005  0.00  0.00     0.251 C 
HETATM   23  N   UNK N   1      33.467  15.340   2.557  0.00  0.00    -0.361 N 
HETATM   24  C   UNK N   1      34.107  14.366   3.400  0.00  0.00     0.149 C 
HETATM   25  H   UNK N   1      33.508  15.198   1.584  0.00  0.00     0.162 HD
HETATM   26  O   UNK N   1      32.255  17.153   2.180  0.00  0.00    -0.268 OA
ENDBRANCH  20  22
ENDBRANCH  13  15
ENDBRANCH   1  13
BRANCH  12  27
HETATM   27  C   UNK N   1      25.053  18.833   3.943  0.00  0.00     0.058 A 
HETATM   28  C   UNK N   1      23.752  18.373   4.218  0.00  0.00     0.031 A 
HETATM   29  C   UNK N   1      22.634  19.060   3.748  0.00  0.00     0.002 A 
HETATM   30  C   UNK N   1      22.802  20.224   2.997  0.00  0.00     0.000 A 
HETATM   31  C   UNK N   1      24.089  20.694   2.718  0.00  0.00     0.002 A 
HETATM   32  C   UNK N   1      25.212  20.001   3.186  0.00  0.00     0.031 A 
ENDBRANCH  12  27
TORSDOF 4
ENDMDL
MODEL 5
REMARK VINA RESULT:      -7.9      2.750      3.690
REMARK  4 active torsions:
REMARK  status: ('A' for Active; 'I' for Inactive)
REMARK    1  A    between atoms: C_2  and  C_9 
REMARK       I    between atoms: C_2  and  N_29 
REMARK    2  A    between atoms: C_3  and  N_28 
REMARK    3  A    between atoms: C_5  and  N_28 
REMARK    4  A    between atoms: C_20  and  N_27 
ROOT
HETATM    1  C   UNK N   1      35.390  13.253   8.509  0.00  0.00     0.122 A 
HETATM    2  C   UNK N   1      35.704  12.888  10.834  0.00  0.00     0.143 A 
HETATM    3  C   UNK N   1      36.113  13.479   9.681  0.00  0.00     0.071 A 
HETATM    4  C   UNK N   1      37.244  14.207  10.014  0.00  0.00     0.127 A 
HETATM    5  C   UNK N   1      33.916  11.847   9.771  0.00  0.00     0.183 A 
HETATM    6  N   UNK N   1      37.468  14.024  11.348  0.00  0.00    -0.302 N 
ATOM      7  HN  UNK N   1      38.233  14.435  11.884  1.00  0.00     0.186 HD
HETATM    8  N   UNK N   1      34.621  12.080  10.907  0.00  0.00    -0.336 N 
ATOM      9  HN  UNK N   1      34.344  11.657  11.792  1.00  0.00     0.168 HD
HETATM   10  N   UNK N   1      34.303  12.424   8.599  0.00  0.00    -0.338 N 
ATOM     11  HN  UNK N   1      33.763  12.231   7.755  1.00  0.00     0.168 HD
HETATM   12  N   UNK N   1      36.525  13.223  11.835  0.00  0.00    -0.239 N 
ENDROOT
BRANCH   1  13
HETATM   13  N   UNK N   1      35.765  13.829   7.251  0.00  0.00    -0.341 N 
HETATM   14  H   UNK N   1      36.503  13.420   6.742  0.00  0.00     0.167 HD
BRANCH  13  15
HETATM   15  C   UNK N   1      35.103  14.979   6.707  0.00  0.00     0.040 A 
HETATM   16  C   UNK N   1      34.640  15.006   5.379  0.00  0.00    -0.035 A 
HETATM   17  C   UNK N   1      34.853  13.847   4.466  0.00  0.00     0.050 C 
HETATM   18  C   UNK N   1      33.936  16.129   4.913  0.00  0.00     0.010 A 
HETATM   19  C   UNK N   1      33.691  17.221   5.761  0.00  0.00     0.017 A 
HETATM   20  C   UNK N   1      34.168  17.211   7.080  0.00  0.00     0.034 A 
HETATM   21  C   UNK N   1      34.870  16.097   7.513  0.00  0.00     0.047 A 
BRANCH  20  22
HETATM   22  C   UNK N   1      33.950  18.315   8.069  0.00  0.00     0.251 C 
HETATM   23  N   UNK N   1      32.781  18.519   8.729  0.00  0.00    -0.361 N 
HETATM   24  C   UNK N   1      31.613  17.689   8.607  0.00  0.00     0.149 C 
HETATM   25  H   UNK N   1      32.729  19.292   9.337  0.00  0.00     0.162 HD
HETATM   26  O   UNK N   1      34.886  19.063   8.316  0.00  0.00    -0.268 OA
ENDBRANCH  20  22
ENDBRANCH  13  15
ENDBRANCH   1  13
BRANCH  12  27
HETATM   27  C   UNK N   1      36.417  12.795  13.208  0.00  0.00     0.058 A 
HETATM   28  C   UNK N   1      37.156  11.690  13.670  0.00  0.00     0.031 A 
HETATM   29  C   UNK N   1      37.059  11.266  14.995  0.00  0.00     0.002 A 
HETATM   30  C   UNK N   1      36.223  11.947  15.879  0.00  0.00     0.000 A 
HETATM   31  C   UNK N   1      35.485  13.048  15.435  0.00  0.00     0.002 A 
HETATM   32  C   UNK N   1      35.578  13.471  14.103  0.00  0.00     0.031 A 
ENDBRANCH  12  27
TORSDOF 4
ENDMDL
MODEL 6
REMARK VINA RESULT:      -7.8      3.697      6.356
REMARK  4 active torsions:
REMARK  status: ('A' for Active; 'I' for Inactive)
REMARK    1  A    between atoms: C_2  and  C_9 
REMARK       I    between atoms: C_2  and  N_29 
REMARK    2  A    between atoms: C_3  and  N_28 
REMARK    3  A    between atoms: C_5  and  N_28 
REMARK    4  A    between atoms: C_20  and  N_27 
ROOT
HETATM    1  C   UNK N   1      35.065  12.817  13.225  0.00  0.00     0.122 A 
HETATM    2  C   UNK N   1      35.471  12.093  15.449  0.00  0.00     0.143 A 
HETATM    3  C   UNK N   1      34.811  11.931  14.272  0.00  0.00     0.071 A 
HETATM    4  C   UNK N   1      33.986  10.833  14.453  0.00  0.00     0.127 A 
HETATM    5  C   UNK N   1      36.618  13.953  14.655  0.00  0.00     0.183 A 
HETATM    6  N   UNK N   1      34.182  10.381  15.726  0.00  0.00    -0.302 N 
ATOM      7  HN  UNK N   1      33.711   9.582  16.152  1.00  0.00     0.186 HD
HETATM    8  N   UNK N   1      36.369  13.080  15.664  0.00  0.00    -0.336 N 
ATOM      9  HN  UNK N   1      36.847  13.167  16.561  1.00  0.00     0.168 HD
HETATM   10  N   UNK N   1      35.971  13.818  13.463  0.00  0.00    -0.338 N 
ATOM     11  HN  UNK N   1      36.168  14.488  12.719  1.00  0.00     0.168 HD
HETATM   12  N   UNK N   1      35.087  11.153  16.320  0.00  0.00    -0.239 N 
ENDROOT
BRANCH   1  13
HETATM   13  N   UNK N   1      34.402  12.722  11.959  0.00  0.00    -0.341 N 
HETATM   14  H   UNK N   1      33.593  12.164  11.887  0.00  0.00     0.167 HD
BRANCH  13  15
HETATM   15  C   UNK N   1      34.873  13.412  10.792  0.00  0.00     0.040 A 
HETATM   16  C   UNK N   1      35.590  12.747   9.781  0.00  0.00    -0.035 A 
HETATM   17  C   UNK N   1      35.925  11.300   9.898  0.00  0.00     0.050 C 
HETATM   18  C   UNK N   1      35.970  13.449   8.625  0.00  0.00     0.010 A 
HETATM   19  C   UNK N   1      35.639  14.805   8.472  0.00  0.00     0.017 A 
HETATM   20  C   UNK N   1      34.942  15.481   9.485  0.00  0.00     0.034 A 
HETATM   21  C   UNK N   1      34.588  14.769  10.621  0.00  0.00     0.047 A 
BRANCH  20  22
HETATM   22  C   UNK N   1      34.527  16.918   9.416  0.00  0.00     0.251 C 
HETATM   23  N   UNK N   1      33.315  17.335   8.967  0.00  0.00    -0.361 N 
HETATM   24  C   UNK N   1      32.254  16.464   8.539  0.00  0.00     0.149 C 
HETATM   25  H   UNK N   1      33.150  18.305   8.932  0.00  0.00     0.162 HD
HETATM   26  O   UNK N   1      35.315  17.767   9.811  0.00  0.00    -0.268 OA
ENDBRANCH  20  22
ENDBRANCH  13  15
ENDBRANCH   1  13
BRANCH  12  27
HETATM   27  C   UNK N   1      35.564  10.995  17.672  0.00  0.00     0.058 A 
HETATM   28  C   UNK N   1      35.193  11.914  18.671  0.00  0.00     0.031 A 
HETATM   29  C   UNK N   1      35.648  11.772  19.981  0.00  0.00     0.002 A 
HETATM   30  C   UNK N   1      36.480  10.702  20.311  0.00  0.00     0.000 A 
HETATM   31  C   UNK N   1      36.856   9.780  19.330  0.00  0.00     0.002 A 
HETATM   32  C   UNK N   1      36.402   9.925  18.013  0.00  0.00     0.031 A 
ENDBRANCH  12  27
TORSDOF 4
ENDMDL
MODEL 7
REMARK VINA RESULT:      -7.7     10.988     12.917
REMARK  4 active torsions:
REMARK  status: ('A' for Active; 'I' for Inactive)
REMARK    1  A    between atoms: C_2  and  C_9 
REMARK       I    between atoms: C_2  and  N_29 
REMARK    2  A    between atoms: C_3  and  N_28 
REMARK    3  A    between atoms: C_5  and  N_28 
REMARK    4  A    between atoms: C_20  and  N_27 
ROOT
HETATM    1  C   UNK N   1      21.768  17.019   6.103  0.00  0.00     0.122 A 
HETATM    2  C   UNK N   1      21.782  15.394   7.835  0.00  0.00     0.143 A 
HETATM    3  C   UNK N   1      22.282  15.845   6.655  0.00  0.00     0.071 A 
HETATM    4  C   UNK N   1      23.253  14.929   6.284  0.00  0.00     0.127 A 
HETATM    5  C   UNK N   1      20.283  17.166   7.980  0.00  0.00     0.183 A 
HETATM    6  N   UNK N   1      23.296  13.967   7.253  0.00  0.00    -0.302 N 
ATOM      7  HN  UNK N   1      23.915  13.155   7.257  1.00  0.00     0.186 HD
HETATM    8  N   UNK N   1      20.798  16.028   8.511  0.00  0.00    -0.336 N 
ATOM      9  HN  UNK N   1      20.450  15.660   9.396  1.00  0.00     0.168 HD
HETATM   10  N   UNK N   1      20.763  17.643   6.796  0.00  0.00    -0.338 N 
ATOM     11  HN  UNK N   1      20.359  18.497   6.411  1.00  0.00     0.168 HD
HETATM   12  N   UNK N   1      22.400  14.262   8.189  0.00  0.00    -0.239 N 
ENDROOT
BRANCH   1  13
HETATM   13  N   UNK N   1      22.232  17.552   4.858  0.00  0.00    -0.341 N 
HETATM   14  H   UNK N   1      23.064  18.081   4.847  0.00  0.00     0.167 HD
BRANCH  13  15
HETATM   15  C   UNK N   1      21.530  17.343   3.624  0.00  0.00     0.040 A 
HETATM   16  C   UNK N   1      20.779  18.367   3.019  0.00  0.00    -0.035 A 
HETATM   17  C   UNK N   1      20.649  19.708   3.658  0.00  0.00     0.050 C 
HETATM   18  C   UNK N   1      20.165  18.136   1.777  0.00  0.00     0.010 A 
HETATM   19  C   UNK N   1      20.298  16.894   1.136  0.00  0.00     0.017 A 
HETATM   20  C   UNK N   1      21.028  15.861   1.742  0.00  0.00     0.034 A 
HETATM   21  C   UNK N   1      21.614  16.110   2.974  0.00  0.00     0.047 A 
BRANCH  20  22
HETATM   22  C   UNK N   1      21.243  14.506   1.138  0.00  0.00     0.251 C 
HETATM   23  N   UNK N   1      20.353  13.484   1.236  0.00  0.00    -0.361 N 
HETATM   24  C   UNK N   1      19.074  13.569   1.888  0.00  0.00     0.149 C 
HETATM   25  H   UNK N   1      20.602  12.623   0.830  0.00  0.00     0.162 HD
HETATM   26  O   UNK N   1      22.267  14.315   0.498  0.00  0.00    -0.268 OA
ENDBRANCH  20  22
ENDBRANCH  13  15
ENDBRANCH   1  13
BRANCH  12  27
HETATM   27  C   UNK N   1      22.145  13.486   9.378  0.00  0.00     0.058 A 
HETATM   28  C   UNK N   1      23.213  12.936  10.113  0.00  0.00     0.031 A 
HETATM   29  C   UNK N   1      22.979  12.184  11.263  0.00  0.00     0.002 A 
HETATM   30  C   UNK N   1      21.670  11.974  11.697  0.00  0.00     0.000 A 
HETATM   31  C   UNK N   1      20.600  12.516  10.979  0.00  0.00     0.002 A 
HETATM   32  C   UNK N   1      20.835  13.268   9.821  0.00  0.00     0.031 A 
ENDBRANCH  12  27
TORSDOF 4
ENDMDL
MODEL 8
REMARK VINA RESULT:      -7.7      2.686      8.511
REMARK  4 active torsions:
REMARK  status: ('A' for Active; 'I' for Inactive)
REMARK    1  A    between atoms: C_2  and  C_9 
REMARK       I    between atoms: C_2  and  N_29 
REMARK    2  A    between atoms: C_3  and  N_28 
REMARK    3  A    between atoms: C_5  and  N_28 
REMARK    4  A    between atoms: C_20  and  N_27 
ROOT
HETATM    1  C   UNK N   1      35.084  14.319   9.776  0.00  0.00     0.122 A 
HETATM    2  C   UNK N   1      33.205  15.508   8.945  0.00  0.00     0.143 A 
HETATM    3  C   UNK N   1      34.451  15.528   9.486  0.00  0.00     0.071 A 
HETATM    4  C   UNK N   1      34.781  16.867   9.619  0.00  0.00     0.127 A 
HETATM    5  C   UNK N   1      33.138  13.183   8.958  0.00  0.00     0.183 A 
HETATM    6  N   UNK N   1      33.723  17.595   9.154  0.00  0.00    -0.302 N 
ATOM      7  HN  UNK N   1      33.670  18.614   9.125  1.00  0.00     0.186 HD
HETATM    8  N   UNK N   1      32.536  14.365   8.672  0.00  0.00    -0.336 N 
ATOM      9  HN  UNK N   1      31.602  14.391   8.262  1.00  0.00     0.168 HD
HETATM   10  N   UNK N   1      34.387  13.171   9.503  0.00  0.00    -0.338 N 
ATOM     11  HN  UNK N   1      34.821  12.272   9.717  1.00  0.00     0.168 HD
HETATM   12  N   UNK N   1      32.773  16.759   8.746  0.00  0.00    -0.239 N 
ENDROOT
BRANCH   1  13
HETATM   13  N   UNK N   1      36.391  14.256  10.360  0.00  0.00    -0.341 N 
HETATM   14  H   UNK N   1      37.107  14.818   9.983  0.00  0.00     0.167 HD
BRANCH  13  15
HETATM   15  C   UNK N   1      36.694  13.403  11.472  0.00  0.00     0.040 A 
HETATM   16  C   UNK N   1      37.252  12.124  11.293  0.00  0.00    -0.035 A 
HETATM   17  C   UNK N   1      37.516  11.584   9.929  0.00  0.00     0.050 C 
HETATM   18  C   UNK N   1      37.595  11.353  12.415  0.00  0.00     0.010 A 
HETATM   19  C   UNK N   1      37.388  11.850  13.713  0.00  0.00     0.017 A 
HETATM   20  C   UNK N   1      36.814  13.115  13.901  0.00  0.00     0.034 A 
HETATM   21  C   UNK N   1      36.472  13.852  12.777  0.00  0.00     0.047 A 
BRANCH  20  22
HETATM   22  C   UNK N   1      36.564  13.744  15.238  0.00  0.00     0.251 C 
HETATM   23  N   UNK N   1      35.494  13.453  16.022  0.00  0.00    -0.361 N 
HETATM   24  C   UNK N   1      34.482  12.482  15.705  0.00  0.00     0.149 C 
HETATM   25  H   UNK N   1      35.404  13.944  16.871  0.00  0.00     0.162 HD
HETATM   26  O   UNK N   1      37.384  14.546  15.661  0.00  0.00    -0.268 OA
ENDBRANCH  20  22
ENDBRANCH  13  15
ENDBRANCH   1  13
BRANCH  12  27
HETATM   27  C   UNK N   1      31.501  17.145   8.188  0.00  0.00     0.058 A 
HETATM   28  C   UNK N   1      31.221  16.921   6.828  0.00  0.00     0.031 A 
HETATM   29  C   UNK N   1      29.995  17.291   6.277  0.00  0.00     0.002 A 
HETATM   30  C   UNK N   1      29.027  17.889   7.084  0.00  0.00     0.000 A 
HETATM   31  C   UNK N   1      29.290  18.115   8.439  0.00  0.00     0.002 A 
HETATM   32  C   UNK N   1      30.523  17.748   8.990  0.00  0.00     0.031 A 
ENDBRANCH  12  27
TORSDOF 4
ENDMDL
MODEL 9
REMARK VINA RESULT:      -7.7      2.508      9.186
REMARK  4 active torsions:
REMARK  status: ('A' for Active; 'I' for Inactive)
REMARK    1  A    between atoms: C_2  and  C_9 
REMARK       I    between atoms: C_2  and  N_29 
REMARK    2  A    between atoms: C_3  and  N_28 
REMARK    3  A    between atoms: C_5  and  N_28 
REMARK    4  A    between atoms: C_20  and  N_27 
ROOT
HETATM    1  C   UNK N   1      31.329  16.370   8.175  0.00  0.00     0.122 A 
HETATM    2  C   UNK N   1      29.574  17.572   7.123  0.00  0.00     0.143 A 
HETATM    3  C   UNK N   1      30.709  16.833   7.015  0.00  0.00     0.071 A 
HETATM    4  C   UNK N   1      30.967  16.738   5.657  0.00  0.00     0.127 A 
HETATM    5  C   UNK N   1      29.607  17.451   9.445  0.00  0.00     0.183 A 
HETATM    6  N   UNK N   1      29.980  17.422   5.006  0.00  0.00    -0.302 N 
ATOM      7  HN  UNK N   1      29.901  17.531   3.994  1.00  0.00     0.186 HD
HETATM    8  N   UNK N   1      29.007  17.889   8.309  0.00  0.00    -0.336 N 
ATOM      9  HN  UNK N   1      28.152  18.444   8.349  1.00  0.00     0.168 HD
HETATM   10  N   UNK N   1      30.748  16.709   9.369  0.00  0.00    -0.338 N 
ATOM     11  HN  UNK N   1      31.187  16.393  10.235  1.00  0.00     0.168 HD
HETATM   12  N   UNK N   1      29.140  17.922   5.906  0.00  0.00    -0.239 N 
ENDROOT
BRANCH   1  13
HETATM   13  N   UNK N   1      32.535  15.596   8.147  0.00  0.00    -0.341 N 
HETATM   14  H   UNK N   1      32.625  14.880   7.476  0.00  0.00     0.167 HD
BRANCH  13  15
HETATM   15  C   UNK N   1      33.617  15.828   9.060  0.00  0.00     0.040 A 
HETATM   16  C   UNK N   1      34.289  17.063   9.110  0.00  0.00    -0.035 A 
HETATM   17  C   UNK N   1      33.929  18.174   8.185  0.00  0.00     0.050 C 
HETATM   18  C   UNK N   1      35.296  17.265  10.068  0.00  0.00     0.010 A 
HETATM   19  C   UNK N   1      35.634  16.247  10.975  0.00  0.00     0.017 A 
HETATM   20  C   UNK N   1      34.983  15.006  10.918  0.00  0.00     0.034 A 
HETATM   21  C   UNK N   1      34.001  14.827   9.956  0.00  0.00     0.047 A 
BRANCH  20  22
HETATM   22  C   UNK N   1      35.256  13.861  11.845  0.00  0.00     0.251 C 
HETATM   23  N   UNK N   1      36.278  12.982  11.681  0.00  0.00    -0.361 N 
HETATM   24  C   UNK N   1      37.258  13.049  10.631  0.00  0.00     0.149 C 
HETATM   25  H   UNK N   1      36.354  12.245  12.329  0.00  0.00     0.162 HD
HETATM   26  O   UNK N   1      34.532  13.723  12.821  0.00  0.00    -0.268 OA
ENDBRANCH  20  22
ENDBRANCH  13  15
ENDBRANCH   1  13
BRANCH  12  27
HETATM   27  C   UNK N   1      27.966  18.706   5.611  0.00  0.00     0.058 A 
HETATM   28  C   UNK N   1      27.965  20.097   5.826  0.00  0.00     0.031 A 
HETATM   29  C   UNK N   1      26.836  20.865   5.545  0.00  0.00     0.002 A 
HETATM   30  C   UNK N   1      25.690  20.251   5.040  0.00  0.00     0.000 A 
HETATM   31  C   UNK N   1      25.677  18.870   4.819  0.00  0.00     0.002 A 
HETATM   32  C   UNK N   1      26.809  18.098   5.106  0.00  0.00     0.031 A 
ENDBRANCH  12  27
TORSDOF 4
ENDMDL
