REMARK  4 active torsions:
REMARK  status: ('A' for Active; 'I' for Inactive)
REMARK    1  A    between atoms: C_2  and  C_9 
REMARK       I    between atoms: C_2  and  N_29 
REMARK    2  A    between atoms: C_3  and  N_28 
REMARK    3  A    between atoms: C_5  and  N_28 
REMARK    4  A    between atoms: C_20  and  N_27 
ROOT
HETATM    1  C   UNK N   1      -0.787  -0.454  -0.033  0.00  0.00     0.122 A 
HETATM    2  C   UNK N   1      -1.981   1.597  -0.098  0.00  0.00     0.143 A 
HETATM    3  C   UNK N   1      -1.995   0.243   0.010  0.00  0.00     0.071 A 
HETATM    4  C   UNK N   1      -3.329  -0.109   0.140  0.00  0.00     0.127 A 
HETATM    5  C   UNK N   1       0.335   1.647  -0.302  0.00  0.00     0.183 A 
HETATM    6  N   UNK N   1      -4.060   1.044   0.104  0.00  0.00    -0.302 N 
ATOM      7  HN  UNK N   1      -5.076   1.106   0.175  1.00  0.00     0.186 HD
HETATM    8  N   UNK N   1      -0.845   2.315  -0.250  0.00  0.00    -0.336 N 
ATOM      9  HN  UNK N   1      -0.875   3.332  -0.325  1.00  0.00     0.168 HD
HETATM   10  N   UNK N   1       0.353   0.288  -0.198  0.00  0.00    -0.338 N 
ATOM     11  HN  UNK N   1       1.250  -0.196  -0.245  1.00  0.00     0.168 HD
HETATM   12  N   UNK N   1      -3.230   2.073  -0.039  0.00  0.00    -0.239 N 
ENDROOT
BRANCH   1  13
HETATM   13  N   UNK N   1      -0.719  -1.882   0.061  0.00  0.00    -0.341 N 
HETATM   14  H   UNK N   1      -1.558  -2.395   0.117  0.00  0.00     0.167 HD
BRANCH  13  15
HETATM   15  C   UNK N   1       0.528  -2.591   0.076  0.00  0.00     0.040 A 
HETATM   16  C   UNK N   1       0.590  -3.981  -0.131  0.00  0.00    -0.035 A 
HETATM   17  C   UNK N   1      -0.648  -4.785  -0.337  0.00  0.00     0.050 C 
HETATM   18  C   UNK N   1       1.840  -4.620  -0.176  0.00  0.00     0.010 A 
HETATM   19  C   UNK N   1       3.025  -3.883  -0.019  0.00  0.00     0.017 A 
HETATM   20  C   UNK N   1       2.971  -2.500   0.209  0.00  0.00     0.034 A 
HETATM   21  C   UNK N   1       1.725  -1.894   0.261  0.00  0.00     0.047 A 
BRANCH  20  22
HETATM   22  C   UNK N   1       4.172  -1.620   0.375  0.00  0.00     0.251 C 
HETATM   23  N   UNK N   1       5.448  -2.032   0.156  0.00  0.00    -0.361 N 
HETATM   24  C   UNK N   1       5.820  -3.343  -0.302  0.00  0.00     0.149 C 
HETATM   25  H   UNK N   1       6.171  -1.385   0.323  0.00  0.00     0.162 HD
HETATM   26  O   UNK N   1       3.994  -0.455   0.702  0.00  0.00    -0.268 OA
ENDBRANCH  20  22
ENDBRANCH  13  15
ENDBRANCH   1  13
BRANCH  12  27
HETATM   27  C   UNK N   1      -3.621   3.459  -0.117  0.00  0.00     0.058 A 
HETATM   28  C   UNK N   1      -2.647   4.470  -0.213  0.00  0.00     0.031 A 
HETATM   29  C   UNK N   1      -3.013   5.813  -0.288  0.00  0.00     0.002 A 
HETATM   30  C   UNK N   1      -4.363   6.164  -0.272  0.00  0.00     0.000 A 
HETATM   31  C   UNK N   1      -5.342   5.170  -0.179  0.00  0.00     0.002 A 
HETATM   32  C   UNK N   1      -4.974   3.821  -0.099  0.00  0.00     0.031 A 
ENDBRANCH  12  27
TORSDOF 4
