REMARK  5 active torsions:
REMARK  status: ('A' for Active; 'I' for Inactive)
REMARK    1  A    between atoms: C_3  and  C_7 
REMARK       I    between atoms: N_9  and  C_18 
REMARK    2  A    between atoms: C_10  and  C_12 
REMARK    3  A    between atoms: C_18  and  C_19 
REMARK    4  A    between atoms: C_19  and  C_20 
REMARK    5  A    between atoms: C_19  and  N_25 
ROOT
HETATM    1  C   UNK N   1       1.160  -0.950  -0.121  0.00  0.00    -0.028 A 
HETATM    2  C   UNK N   1      -0.222  -0.700   0.318  0.00  0.00     0.166 A 
HETATM    3  N   UNK N   1      -0.420   0.680  -0.036  0.00  0.00    -0.334 N 
HETATM    4  C   UNK N   1       0.767   1.291  -0.629  0.00  0.00     0.144 A 
HETATM    5  C   UNK N   1       1.723   0.133  -0.643  0.00  0.00     0.013 A 
HETATM    6  C   UNK N   1      -1.683   1.192  -0.151  0.00  0.00     0.243 C 
HETATM    7  O   UNK N   1      -1.833   2.368  -0.466  0.00  0.00    -0.271 OA
ENDROOT
BRANCH   4   8
HETATM    8  C   UNK N   1       1.379   2.552  -0.036  0.00  0.00    -0.032 A 
HETATM    9  C   UNK N   1       0.605   3.699   0.189  0.00  0.00     0.009 A 
HETATM   10  C   UNK N   1       1.217   4.919   0.506  0.00  0.00     0.001 A 
HETATM   11  C   UNK N   1       2.611   5.017   0.550  0.00  0.00     0.000 A 
HETATM   12  C   UNK N   1       3.395   3.891   0.301  0.00  0.00     0.001 A 
HETATM   13  C   UNK N   1       2.784   2.671   0.006  0.00  0.00     0.009 A 
ENDBRANCH   4   8
BRANCH   6  14
HETATM   14  C   UNK N   1      -2.912   0.280  -0.094  0.00  0.00     0.171 C 
BRANCH  14  15
HETATM   15  C   UNK N   1      -3.114  -0.512   1.214  0.00  0.00     0.017 A 
HETATM   16  C   UNK N   1      -2.748  -1.988   1.071  0.00  0.00     0.007 A 
HETATM   17  C   UNK N   1      -4.197  -1.568   1.012  0.00  0.00     0.007 A 
ENDBRANCH  14  15
BRANCH  14  18
HETATM   18  N   UNK N   1      -4.119   1.046  -0.367  0.00  0.00    -0.418 N 
HETATM   19  H   UNK N   1      -4.077   2.047  -0.559  0.00  0.00     0.150 HD
HETATM   20  H   UNK N   1      -5.023   0.574  -0.367  0.00  0.00     0.150 HD
ENDBRANCH  14  18
ENDBRANCH   6  14
BRANCH   1  21
HETATM   21  C   UNK N   1       1.743  -2.308  -0.124  0.00  0.00     0.013 A 
HETATM   22  C   UNK N   1       0.883  -3.398   0.079  0.00  0.00     0.057 A 
HETATM   23  C   UNK N   1       1.360  -4.705   0.001  0.00  0.00     0.117 A 
HETATM   24  C   UNK N   1       2.709  -4.937  -0.267  0.00  0.00     0.045 A 
HETATM   25  F   UNK N   1       0.506  -5.745   0.157  0.00  0.00    -0.206 F 
HETATM   26  C   UNK N   1       3.581  -3.860  -0.452  0.00  0.00     0.046 A 
HETATM   27  C   UNK N   1       3.104  -2.546  -0.391  0.00  0.00     0.127 A 
HETATM   28  F   UNK N   1       3.969  -1.519  -0.583  0.00  0.00    -0.205 F 
ENDBRANCH   1  21
TORSDOF 5
