MODEL 1
REMARK VINA RESULT:      -7.1      0.000      0.000
REMARK  5 active torsions:
REMARK  status: ('A' for Active; 'I' for Inactive)
REMARK    1  A    between atoms: C_3  and  C_7 
REMARK       I    between atoms: N_9  and  C_18 
REMARK    2  A    between atoms: C_10  and  C_12 
REMARK    3  A    between atoms: C_18  and  C_19 
REMARK    4  A    between atoms: C_19  and  C_20 
REMARK    5  A    between atoms: C_19  and  N_25 
ROOT
HETATM    1  C   UNK N   1      22.927  17.868   4.572  0.00  0.00    -0.028 A 
HETATM    2  C   UNK N   1      22.345  16.817   3.723  0.00  0.00     0.166 A 
HETATM    3  N   UNK N   1      21.258  16.328   4.528  0.00  0.00    -0.334 N 
HETATM    4  C   UNK N   1      21.167  16.993   5.825  0.00  0.00     0.144 A 
HETATM    5  C   UNK N   1      22.295  17.980   5.734  0.00  0.00     0.013 A 
HETATM    6  C   UNK N   1      20.236  15.621   3.956  0.00  0.00     0.243 C 
HETATM    7  O   UNK N   1      19.310  15.223   4.656  0.00  0.00    -0.271 OA
ENDROOT
BRANCH   4   8
HETATM    8  C   UNK N   1      21.188  16.192   7.119  0.00  0.00    -0.032 A 
HETATM    9  C   UNK N   1      22.066  15.113   7.292  0.00  0.00     0.009 A 
HETATM   10  C   UNK N   1      21.916  14.241   8.378  0.00  0.00     0.001 A 
HETATM   11  C   UNK N   1      20.856  14.408   9.274  0.00  0.00     0.000 A 
HETATM   12  C   UNK N   1      19.958  15.460   9.099  0.00  0.00     0.001 A 
HETATM   13  C   UNK N   1      20.120  16.341   8.029  0.00  0.00     0.009 A 
ENDBRANCH   4   8
BRANCH   6  14
HETATM   14  C   UNK N   1      20.120  15.492   2.435  0.00  0.00     0.171 C 
BRANCH  14  15
HETATM   15  C   UNK N   1      19.452  14.205   1.908  0.00  0.00     0.017 A 
HETATM   16  C   UNK N   1      20.235  13.560   0.766  0.00  0.00     0.007 A 
HETATM   17  C   UNK N   1      19.024  14.407   0.457  0.00  0.00     0.007 A 
ENDBRANCH  14  15
BRANCH  14  18
HETATM   18  N   UNK N   1      19.417  16.641   1.885  0.00  0.00    -0.418 N 
HETATM   19  H   UNK N   1      18.487  16.546   1.477  0.00  0.00     0.150 HD
HETATM   20  H   UNK N   1      19.861  17.559   1.908  0.00  0.00     0.150 HD
ENDBRANCH  14  18
ENDBRANCH   6  14
BRANCH   1  21
HETATM   21  C   UNK N   1      23.974  18.783   4.072  0.00  0.00     0.013 A 
HETATM   22  C   UNK N   1      25.315  18.451   4.316  0.00  0.00     0.057 A 
HETATM   23  C   UNK N   1      26.347  19.229   3.795  0.00  0.00     0.117 A 
HETATM   24  C   UNK N   1      26.049  20.360   3.034  0.00  0.00     0.045 A 
HETATM   25  F   UNK N   1      27.636  18.869   4.005  0.00  0.00    -0.206 F 
HETATM   26  C   UNK N   1      24.716  20.713   2.799  0.00  0.00     0.046 A 
HETATM   27  C   UNK N   1      23.677  19.926   3.307  0.00  0.00     0.127 A 
HETATM   28  F   UNK N   1      22.393  20.286   3.057  0.00  0.00    -0.205 F 
ENDBRANCH   1  21
TORSDOF 5
ENDMDL
MODEL 2
REMARK VINA RESULT:      -7.0      7.118      9.161
REMARK  5 active torsions:
REMARK  status: ('A' for Active; 'I' for Inactive)
REMARK    1  A    between atoms: C_3  and  C_7 
REMARK       I    between atoms: N_9  and  C_18 
REMARK    2  A    between atoms: C_10  and  C_12 
REMARK    3  A    between atoms: C_18  and  C_19 
REMARK    4  A    between atoms: C_19  and  C_20 
REMARK    5  A    between atoms: C_19  and  N_25 
ROOT
HETATM    1  C   UNK N   1      29.215  17.905   6.111  0.00  0.00    -0.028 A 
HETATM    2  C   UNK N   1      29.422  16.806   5.155  0.00  0.00     0.166 A 
HETATM    3  N   UNK N   1      30.273  15.908   5.888  0.00  0.00    -0.334 N 
HETATM    4  C   UNK N   1      30.624  16.411   7.214  0.00  0.00     0.144 A 
HETATM    5  C   UNK N   1      29.869  17.709   7.249  0.00  0.00     0.013 A 
HETATM    6  C   UNK N   1      30.386  14.598   5.512  0.00  0.00     0.243 C 
HETATM    7  O   UNK N   1      31.107  13.843   6.156  0.00  0.00    -0.271 OA
ENDROOT
BRANCH   4   8
HETATM    8  C   UNK N   1      32.078  16.565   7.634  0.00  0.00    -0.032 A 
HETATM    9  C   UNK N   1      32.583  15.899   8.760  0.00  0.00     0.009 A 
HETATM   10  C   UNK N   1      33.844  16.229   9.276  0.00  0.00     0.001 A 
HETATM   11  C   UNK N   1      34.590  17.264   8.703  0.00  0.00     0.000 A 
HETATM   12  C   UNK N   1      34.088  17.954   7.600  0.00  0.00     0.001 A 
HETATM   13  C   UNK N   1      32.842  17.610   7.074  0.00  0.00     0.009 A 
ENDBRANCH   4   8
BRANCH   6  14
HETATM   14  C   UNK N   1      29.477  14.006   4.431  0.00  0.00     0.171 C 
BRANCH  14  15
HETATM   15  C   UNK N   1      29.982  14.119   2.978  0.00  0.00     0.017 A 
HETATM   16  C   UNK N   1      28.973  14.798   2.054  0.00  0.00     0.007 A 
HETATM   17  C   UNK N   1      29.087  13.293   2.058  0.00  0.00     0.007 A 
ENDBRANCH  14  15
BRANCH  14  18
HETATM   18  N   UNK N   1      29.196  12.608   4.720  0.00  0.00    -0.418 N 
HETATM   19  H   UNK N   1      28.812  11.988   4.007  0.00  0.00     0.150 HD
HETATM   20  H   UNK N   1      29.386  12.241   5.652  0.00  0.00     0.150 HD
ENDBRANCH  14  18
ENDBRANCH   6  14
BRANCH   1  21
HETATM   21  C   UNK N   1      28.241  18.987   5.855  0.00  0.00     0.013 A 
HETATM   22  C   UNK N   1      27.913  19.282   4.523  0.00  0.00     0.057 A 
HETATM   23  C   UNK N   1      26.939  20.231   4.223  0.00  0.00     0.117 A 
HETATM   24  C   UNK N   1      26.290  20.910   5.254  0.00  0.00     0.045 A 
HETATM   25  F   UNK N   1      26.605  20.471   2.932  0.00  0.00    -0.206 F 
HETATM   26  C   UNK N   1      26.621  20.641   6.586  0.00  0.00     0.046 A 
HETATM   27  C   UNK N   1      27.587  19.677   6.893  0.00  0.00     0.127 A 
HETATM   28  F   UNK N   1      27.883  19.428   8.193  0.00  0.00    -0.205 F 
ENDBRANCH   1  21
TORSDOF 5
ENDMDL
MODEL 3
REMARK VINA RESULT:      -7.0      1.467      2.211
REMARK  5 active torsions:
REMARK  status: ('A' for Active; 'I' for Inactive)
REMARK    1  A    between atoms: C_3  and  C_7 
REMARK       I    between atoms: N_9  and  C_18 
REMARK    2  A    between atoms: C_10  and  C_12 
REMARK    3  A    between atoms: C_18  and  C_19 
REMARK    4  A    between atoms: C_19  and  C_20 
REMARK    5  A    between atoms: C_19  and  N_25 
ROOT
HETATM    1  C   UNK N   1      23.366  17.843   4.750  0.00  0.00    -0.028 A 
HETATM    2  C   UNK N   1      22.412  17.385   3.727  0.00  0.00     0.166 A 
HETATM    3  N   UNK N   1      21.226  17.124   4.498  0.00  0.00    -0.334 N 
HETATM    4  C   UNK N   1      21.413  17.361   5.927  0.00  0.00     0.144 A 
HETATM    5  C   UNK N   1      22.837  17.836   5.967  0.00  0.00     0.013 A 
HETATM    6  C   UNK N   1      20.005  17.051   3.887  0.00  0.00     0.243 C 
HETATM    7  O   UNK N   1      19.002  16.840   4.562  0.00  0.00    -0.271 OA
ENDROOT
BRANCH   4   8
HETATM    8  C   UNK N   1      21.128  16.268   6.947  0.00  0.00    -0.032 A 
HETATM    9  C   UNK N   1      20.183  16.454   7.966  0.00  0.00     0.009 A 
HETATM   10  C   UNK N   1      20.100  15.548   9.032  0.00  0.00     0.001 A 
HETATM   11  C   UNK N   1      20.995  14.477   9.118  0.00  0.00     0.000 A 
HETATM   12  C   UNK N   1      21.958  14.296   8.126  0.00  0.00     0.001 A 
HETATM   13  C   UNK N   1      22.027  15.186   7.054  0.00  0.00     0.009 A 
ENDBRANCH   4   8
BRANCH   6  14
HETATM   14  C   UNK N   1      19.837  17.427   2.412  0.00  0.00     0.171 C 
BRANCH  14  15
HETATM   15  C   UNK N   1      19.507  16.271   1.446  0.00  0.00     0.017 A 
HETATM   16  C   UNK N   1      20.751  15.690   0.777  0.00  0.00     0.007 A 
HETATM   17  C   UNK N   1      19.885  16.669   0.022  0.00  0.00     0.007 A 
ENDBRANCH  14  15
BRANCH  14  18
HETATM   18  N   UNK N   1      18.820  18.459   2.270  0.00  0.00    -0.418 N 
HETATM   19  H   UNK N   1      19.037  19.441   2.441  0.00  0.00     0.150 HD
HETATM   20  H   UNK N   1      17.874  18.196   1.994  0.00  0.00     0.150 HD
ENDBRANCH  14  18
ENDBRANCH   6  14
BRANCH   1  21
HETATM   21  C   UNK N   1      24.685  18.405   4.389  0.00  0.00     0.013 A 
HETATM   22  C   UNK N   1      24.719  19.514   3.531  0.00  0.00     0.057 A 
HETATM   23  C   UNK N   1      25.926  20.140   3.224  0.00  0.00     0.117 A 
HETATM   24  C   UNK N   1      27.117  19.652   3.763  0.00  0.00     0.045 A 
HETATM   25  F   UNK N   1      25.935  21.236   2.428  0.00  0.00    -0.206 F 
HETATM   26  C   UNK N   1      27.100  18.536   4.604  0.00  0.00     0.046 A 
HETATM   27  C   UNK N   1      25.889  17.914   4.928  0.00  0.00     0.127 A 
HETATM   28  F   UNK N   1      25.898  16.838   5.754  0.00  0.00    -0.205 F 
ENDBRANCH   1  21
TORSDOF 5
ENDMDL
MODEL 4
REMARK VINA RESULT:      -6.9      5.970      8.615
REMARK  5 active torsions:
REMARK  status: ('A' for Active; 'I' for Inactive)
REMARK    1  A    between atoms: C_3  and  C_7 
REMARK       I    between atoms: N_9  and  C_18 
REMARK    2  A    between atoms: C_10  and  C_12 
REMARK    3  A    between atoms: C_18  and  C_19 
REMARK    4  A    between atoms: C_19  and  C_20 
REMARK    5  A    between atoms: C_19  and  N_25 
ROOT
HETATM    1  C   UNK N   1      28.169  17.513   5.010  0.00  0.00    -0.028 A 
HETATM    2  C   UNK N   1      28.601  16.299   4.299  0.00  0.00     0.166 A 
HETATM    3  N   UNK N   1      29.632  15.781   5.158  0.00  0.00    -0.334 N 
HETATM    4  C   UNK N   1      29.877  16.625   6.325  0.00  0.00     0.144 A 
HETATM    5  C   UNK N   1      28.860  17.712   6.126  0.00  0.00     0.013 A 
HETATM    6  C   UNK N   1      30.023  14.474   5.063  0.00  0.00     0.243 C 
HETATM    7  O   UNK N   1      30.895  14.047   5.812  0.00  0.00    -0.271 OA
ENDROOT
BRANCH   4   8
HETATM    8  C   UNK N   1      31.267  17.168   6.623  0.00  0.00    -0.032 A 
HETATM    9  C   UNK N   1      32.254  17.224   5.629  0.00  0.00     0.009 A 
HETATM   10  C   UNK N   1      33.587  17.496   5.964  0.00  0.00     0.001 A 
HETATM   11  C   UNK N   1      33.956  17.664   7.302  0.00  0.00     0.000 A 
HETATM   12  C   UNK N   1      32.990  17.584   8.305  0.00  0.00     0.001 A 
HETATM   13  C   UNK N   1      31.659  17.333   7.968  0.00  0.00     0.009 A 
ENDBRANCH   4   8
BRANCH   6  14
HETATM   14  C   UNK N   1      29.254  13.483   4.184  0.00  0.00     0.171 C 
BRANCH  14  15
HETATM   15  C   UNK N   1      29.797  13.274   2.755  0.00  0.00     0.017 A 
HETATM   16  C   UNK N   1      28.831  13.767   1.680  0.00  0.00     0.007 A 
HETATM   17  C   UNK N   1      28.901  12.294   2.004  0.00  0.00     0.007 A 
ENDBRANCH  14  15
BRANCH  14  18
HETATM   18  N   UNK N   1      29.167  12.189   4.844  0.00  0.00    -0.418 N 
HETATM   19  H   UNK N   1      28.812  12.105   5.796  0.00  0.00     0.150 HD
HETATM   20  H   UNK N   1      29.465  11.351   4.345  0.00  0.00     0.150 HD
ENDBRANCH  14  18
ENDBRANCH   6  14
BRANCH   1  21
HETATM   21  C   UNK N   1      26.982  18.284   4.584  0.00  0.00     0.013 A 
HETATM   22  C   UNK N   1      27.184  19.430   3.800  0.00  0.00     0.057 A 
HETATM   23  C   UNK N   1      26.101  20.149   3.298  0.00  0.00     0.117 A 
HETATM   24  C   UNK N   1      24.801  19.736   3.586  0.00  0.00     0.045 A 
HETATM   25  F   UNK N   1      26.316  21.228   2.507  0.00  0.00    -0.206 F 
HETATM   26  C   UNK N   1      24.585  18.607   4.381  0.00  0.00     0.046 A 
HETATM   27  C   UNK N   1      25.669  17.872   4.875  0.00  0.00     0.127 A 
HETATM   28  F   UNK N   1      25.432  16.776   5.637  0.00  0.00    -0.205 F 
ENDBRANCH   1  21
TORSDOF 5
ENDMDL
MODEL 5
REMARK VINA RESULT:      -6.8     12.839     15.476
REMARK  5 active torsions:
REMARK  status: ('A' for Active; 'I' for Inactive)
REMARK    1  A    between atoms: C_3  and  C_7 
REMARK       I    between atoms: N_9  and  C_18 
REMARK    2  A    between atoms: C_10  and  C_12 
REMARK    3  A    between atoms: C_18  and  C_19 
REMARK    4  A    between atoms: C_19  and  C_20 
REMARK    5  A    between atoms: C_19  and  N_25 
ROOT
HETATM    1  C   UNK N   1      28.270  24.434  -4.922  0.00  0.00    -0.028 A 
HETATM    2  C   UNK N   1      28.070  25.875  -4.704  0.00  0.00     0.166 A 
HETATM    3  N   UNK N   1      26.819  26.124  -5.369  0.00  0.00    -0.334 N 
HETATM    4  C   UNK N   1      26.267  24.931  -6.007  0.00  0.00     0.144 A 
HETATM    5  C   UNK N   1      27.290  23.896  -5.639  0.00  0.00     0.013 A 
HETATM    6  C   UNK N   1      26.090  27.243  -5.078  0.00  0.00     0.243 C 
HETATM    7  O   UNK N   1      25.019  27.433  -5.646  0.00  0.00    -0.271 OA
ENDROOT
BRANCH   4   8
HETATM    8  C   UNK N   1      25.928  24.922  -7.491  0.00  0.00    -0.032 A 
HETATM    9  C   UNK N   1      25.589  23.733  -8.151  0.00  0.00     0.009 A 
HETATM   10  C   UNK N   1      25.513  23.692  -9.550  0.00  0.00     0.001 A 
HETATM   11  C   UNK N   1      25.828  24.826 -10.305  0.00  0.00     0.000 A 
HETATM   12  C   UNK N   1      26.195  26.009  -9.663  0.00  0.00     0.001 A 
HETATM   13  C   UNK N   1      26.249  26.054  -8.269  0.00  0.00     0.009 A 
ENDBRANCH   4   8
BRANCH   6  14
HETATM   14  C   UNK N   1      26.480  28.159  -3.914  0.00  0.00     0.171 C 
BRANCH  14  15
HETATM   15  C   UNK N   1      26.197  29.663  -4.104  0.00  0.00     0.017 A 
HETATM   16  C   UNK N   1      27.432  30.442  -4.553  0.00  0.00     0.007 A 
HETATM   17  C   UNK N   1      27.018  30.470  -3.101  0.00  0.00     0.007 A 
ENDBRANCH  14  15
BRANCH  14  18
HETATM   18  N   UNK N   1      25.836  27.714  -2.687  0.00  0.00    -0.418 N 
HETATM   19  H   UNK N   1      25.955  28.225  -1.812  0.00  0.00     0.150 HD
HETATM   20  H   UNK N   1      25.254  26.876  -2.701  0.00  0.00     0.150 HD
ENDBRANCH  14  18
ENDBRANCH   6  14
BRANCH   1  21
HETATM   21  C   UNK N   1      29.353  23.686  -4.250  0.00  0.00     0.013 A 
HETATM   22  C   UNK N   1      30.561  23.506  -4.942  0.00  0.00     0.057 A 
HETATM   23  C   UNK N   1      31.647  22.886  -4.327  0.00  0.00     0.117 A 
HETATM   24  C   UNK N   1      31.533  22.425  -3.016  0.00  0.00     0.045 A 
HETATM   25  F   UNK N   1      32.818  22.759  -4.996  0.00  0.00    -0.206 F 
HETATM   26  C   UNK N   1      30.329  22.580  -2.322  0.00  0.00     0.046 A 
HETATM   27  C   UNK N   1      29.241  23.217  -2.928  0.00  0.00     0.127 A 
HETATM   28  F   UNK N   1      28.087  23.363  -2.230  0.00  0.00    -0.205 F 
ENDBRANCH   1  21
TORSDOF 5
ENDMDL
MODEL 6
REMARK VINA RESULT:      -6.8     13.306     14.482
REMARK  5 active torsions:
REMARK  status: ('A' for Active; 'I' for Inactive)
REMARK    1  A    between atoms: C_3  and  C_7 
REMARK       I    between atoms: N_9  and  C_18 
REMARK    2  A    between atoms: C_10  and  C_12 
REMARK    3  A    between atoms: C_18  and  C_19 
REMARK    4  A    between atoms: C_19  and  C_20 
REMARK    5  A    between atoms: C_19  and  N_25 
ROOT
HETATM    1  C   UNK N   1      28.947  23.665  -5.114  0.00  0.00    -0.028 A 
HETATM    2  C   UNK N   1      27.864  23.155  -5.969  0.00  0.00     0.166 A 
HETATM    3  N   UNK N   1      27.287  24.362  -6.499  0.00  0.00    -0.334 N 
HETATM    4  C   UNK N   1      27.930  25.571  -5.990  0.00  0.00     0.144 A 
HETATM    5  C   UNK N   1      29.000  24.992  -5.110  0.00  0.00     0.013 A 
HETATM    6  C   UNK N   1      26.511  24.323  -7.624  0.00  0.00     0.243 C 
HETATM    7  O   UNK N   1      26.037  25.364  -8.069  0.00  0.00    -0.271 OA
ENDROOT
BRANCH   4   8
HETATM    8  C   UNK N   1      27.121  26.657  -5.296  0.00  0.00    -0.032 A 
HETATM    9  C   UNK N   1      27.203  27.996  -5.701  0.00  0.00     0.009 A 
HETATM   10  C   UNK N   1      26.648  29.013  -4.914  0.00  0.00     0.001 A 
HETATM   11  C   UNK N   1      26.050  28.707  -3.687  0.00  0.00     0.000 A 
HETATM   12  C   UNK N   1      25.985  27.382  -3.257  0.00  0.00     0.001 A 
HETATM   13  C   UNK N   1      26.520  26.367  -4.052  0.00  0.00     0.009 A 
ENDBRANCH   4   8
BRANCH   6  14
HETATM   14  C   UNK N   1      26.388  23.042  -8.454  0.00  0.00     0.171 C 
BRANCH  14  15
HETATM   15  C   UNK N   1      25.049  22.284  -8.346  0.00  0.00     0.017 A 
HETATM   16  C   UNK N   1      24.887  21.564  -7.008  0.00  0.00     0.007 A 
HETATM   17  C   UNK N   1      25.316  20.786  -8.229  0.00  0.00     0.007 A 
ENDBRANCH  14  15
BRANCH  14  18
HETATM   18  N   UNK N   1      26.652  23.325  -9.857  0.00  0.00    -0.418 N 
HETATM   19  H   UNK N   1      25.940  23.747 -10.454  0.00  0.00     0.150 HD
HETATM   20  H   UNK N   1      27.565  23.099 -10.251  0.00  0.00     0.150 HD
ENDBRANCH  14  18
ENDBRANCH   6  14
BRANCH   1  21
HETATM   21  C   UNK N   1      29.943  22.764  -4.498  0.00  0.00     0.013 A 
HETATM   22  C   UNK N   1      30.259  21.571  -5.167  0.00  0.00     0.057 A 
HETATM   23  C   UNK N   1      31.253  20.724  -4.679  0.00  0.00     0.117 A 
HETATM   24  C   UNK N   1      31.933  21.053  -3.507  0.00  0.00     0.045 A 
HETATM   25  F   UNK N   1      31.574  19.599  -5.362  0.00  0.00    -0.206 F 
HETATM   26  C   UNK N   1      31.614  22.229  -2.820  0.00  0.00     0.046 A 
HETATM   27  C   UNK N   1      30.629  23.091  -3.314  0.00  0.00     0.127 A 
HETATM   28  F   UNK N   1      30.345  24.229  -2.633  0.00  0.00    -0.205 F 
ENDBRANCH   1  21
TORSDOF 5
ENDMDL
MODEL 7
REMARK VINA RESULT:      -6.7      7.437     10.169
REMARK  5 active torsions:
REMARK  status: ('A' for Active; 'I' for Inactive)
REMARK    1  A    between atoms: C_3  and  C_7 
REMARK       I    between atoms: N_9  and  C_18 
REMARK    2  A    between atoms: C_10  and  C_12 
REMARK    3  A    between atoms: C_18  and  C_19 
REMARK    4  A    between atoms: C_19  and  C_20 
REMARK    5  A    between atoms: C_19  and  N_25 
ROOT
HETATM    1  C   UNK N   1      29.276  15.795   5.149  0.00  0.00    -0.028 A 
HETATM    2  C   UNK N   1      30.497  16.174   5.878  0.00  0.00     0.166 A 
HETATM    3  N   UNK N   1      30.024  17.194   6.775  0.00  0.00    -0.334 N 
HETATM    4  C   UNK N   1      28.601  17.481   6.611  0.00  0.00     0.144 A 
HETATM    5  C   UNK N   1      28.222  16.504   5.536  0.00  0.00     0.013 A 
HETATM    6  C   UNK N   1      30.750  17.534   7.883  0.00  0.00     0.243 C 
HETATM    7  O   UNK N   1      30.326  18.397   8.644  0.00  0.00    -0.271 OA
ENDROOT
BRANCH   4   8
HETATM    8  C   UNK N   1      28.115  18.894   6.320  0.00  0.00    -0.032 A 
HETATM    9  C   UNK N   1      27.517  19.677   7.317  0.00  0.00     0.009 A 
HETATM   10  C   UNK N   1      26.862  20.871   6.986  0.00  0.00     0.001 A 
HETATM   11  C   UNK N   1      26.754  21.268   5.650  0.00  0.00     0.000 A 
HETATM   12  C   UNK N   1      27.320  20.485   4.645  0.00  0.00     0.001 A 
HETATM   13  C   UNK N   1      27.990  19.307   4.977  0.00  0.00     0.009 A 
ENDBRANCH   4   8
BRANCH   6  14
HETATM   14  C   UNK N   1      31.978  16.720   8.301  0.00  0.00     0.171 C 
BRANCH  14  15
HETATM   15  C   UNK N   1      33.272  17.519   8.558  0.00  0.00     0.017 A 
HETATM   16  C   UNK N   1      34.209  17.525   7.351  0.00  0.00     0.007 A 
HETATM   17  C   UNK N   1      34.475  16.581   8.500  0.00  0.00     0.007 A 
ENDBRANCH  14  15
BRANCH  14  18
HETATM   18  N   UNK N   1      31.677  15.928   9.485  0.00  0.00    -0.418 N 
HETATM   19  H   UNK N   1      31.334  16.366  10.340  0.00  0.00     0.150 HD
HETATM   20  H   UNK N   1      31.810  14.917   9.459  0.00  0.00     0.150 HD
ENDBRANCH  14  18
ENDBRANCH   6  14
BRANCH   1  21
HETATM   21  C   UNK N   1      29.242  14.634   4.235  0.00  0.00     0.013 A 
HETATM   22  C   UNK N   1      29.118  13.354   4.796  0.00  0.00     0.057 A 
HETATM   23  C   UNK N   1      28.995  12.230   3.982  0.00  0.00     0.117 A 
HETATM   24  C   UNK N   1      29.009  12.372   2.594  0.00  0.00     0.045 A 
HETATM   25  F   UNK N   1      28.832  11.006   4.541  0.00  0.00    -0.206 F 
HETATM   26  C   UNK N   1      29.151  13.640   2.022  0.00  0.00     0.046 A 
HETATM   27  C   UNK N   1      29.259  14.774   2.835  0.00  0.00     0.127 A 
HETATM   28  F   UNK N   1      29.388  15.993   2.255  0.00  0.00    -0.205 F 
ENDBRANCH   1  21
TORSDOF 5
ENDMDL
MODEL 8
REMARK VINA RESULT:      -6.6      3.454      6.438
REMARK  5 active torsions:
REMARK  status: ('A' for Active; 'I' for Inactive)
REMARK    1  A    between atoms: C_3  and  C_7 
REMARK       I    between atoms: N_9  and  C_18 
REMARK    2  A    between atoms: C_10  and  C_12 
REMARK    3  A    between atoms: C_18  and  C_19 
REMARK    4  A    between atoms: C_19  and  C_20 
REMARK    5  A    between atoms: C_19  and  N_25 
ROOT
HETATM    1  C   UNK N   1      23.427  15.673   5.369  0.00  0.00    -0.028 A 
HETATM    2  C   UNK N   1      23.354  15.127   4.005  0.00  0.00     0.166 A 
HETATM    3  N   UNK N   1      24.584  15.584   3.416  0.00  0.00    -0.334 N 
HETATM    4  C   UNK N   1      25.381  16.402   4.327  0.00  0.00     0.144 A 
HETATM    5  C   UNK N   1      24.534  16.380   5.567  0.00  0.00     0.013 A 
HETATM    6  C   UNK N   1      25.083  14.979   2.295  0.00  0.00     0.243 C 
HETATM    7  O   UNK N   1      26.140  15.374   1.814  0.00  0.00    -0.271 OA
ENDROOT
BRANCH   4   8
HETATM    8  C   UNK N   1      25.820  17.806   3.939  0.00  0.00    -0.032 A 
HETATM    9  C   UNK N   1      27.141  18.234   4.132  0.00  0.00     0.009 A 
HETATM   10  C   UNK N   1      27.476  19.588   3.998  0.00  0.00     0.001 A 
HETATM   11  C   UNK N   1      26.486  20.535   3.722  0.00  0.00     0.000 A 
HETATM   12  C   UNK N   1      25.162  20.128   3.556  0.00  0.00     0.001 A 
HETATM   13  C   UNK N   1      24.832  18.777   3.668  0.00  0.00     0.009 A 
ENDBRANCH   4   8
BRANCH   6  14
HETATM   14  C   UNK N   1      24.456  13.694   1.747  0.00  0.00     0.171 C 
BRANCH  14  15
HETATM   15  C   UNK N   1      23.713  13.817   0.401  0.00  0.00     0.017 A 
HETATM   16  C   UNK N   1      22.258  13.359   0.488  0.00  0.00     0.007 A 
HETATM   17  C   UNK N   1      23.301  12.430  -0.085  0.00  0.00     0.007 A 
ENDBRANCH  14  15
BRANCH  14  18
HETATM   18  N   UNK N   1      25.467  12.653   1.629  0.00  0.00    -0.418 N 
HETATM   19  H   UNK N   1      25.330  11.852   1.013  0.00  0.00     0.150 HD
HETATM   20  H   UNK N   1      26.327  12.727   2.171  0.00  0.00     0.150 HD
ENDBRANCH  14  18
ENDBRANCH   6  14
BRANCH   1  21
HETATM   21  C   UNK N   1      22.448  15.301   6.411  0.00  0.00     0.013 A 
HETATM   22  C   UNK N   1      22.373  13.954   6.798  0.00  0.00     0.057 A 
HETATM   23  C   UNK N   1      21.531  13.557   7.835  0.00  0.00     0.117 A 
HETATM   24  C   UNK N   1      20.741  14.502   8.489  0.00  0.00     0.045 A 
HETATM   25  F   UNK N   1      21.504  12.259   8.222  0.00  0.00    -0.206 F 
HETATM   26  C   UNK N   1      20.792  15.845   8.101  0.00  0.00     0.046 A 
HETATM   27  C   UNK N   1      21.648  16.251   7.072  0.00  0.00     0.127 A 
HETATM   28  F   UNK N   1      21.684  17.561   6.721  0.00  0.00    -0.205 F 
ENDBRANCH   1  21
TORSDOF 5
ENDMDL
MODEL 9
REMARK VINA RESULT:      -6.6     13.409     15.483
REMARK  5 active torsions:
REMARK  status: ('A' for Active; 'I' for Inactive)
REMARK    1  A    between atoms: C_3  and  C_7 
REMARK       I    between atoms: N_9  and  C_18 
REMARK    2  A    between atoms: C_10  and  C_12 
REMARK    3  A    between atoms: C_18  and  C_19 
REMARK    4  A    between atoms: C_19  and  C_20 
REMARK    5  A    between atoms: C_19  and  N_25 
ROOT
HETATM    1  C   UNK N   1      28.839  21.924  -6.585  0.00  0.00    -0.028 A 
HETATM    2  C   UNK N   1      28.214  23.256  -6.574  0.00  0.00     0.166 A 
HETATM    3  N   UNK N   1      27.108  23.093  -7.478  0.00  0.00    -0.334 N 
HETATM    4  C   UNK N   1      27.045  21.756  -8.064  0.00  0.00     0.144 A 
HETATM    5  C   UNK N   1      28.212  21.084  -7.400  0.00  0.00     0.013 A 
HETATM    6  C   UNK N   1      26.057  23.968  -7.454  0.00  0.00     0.243 C 
HETATM    7  O   UNK N   1      25.117  23.806  -8.225  0.00  0.00    -0.271 OA
ENDROOT
BRANCH   4   8
HETATM    8  C   UNK N   1      27.034  21.561  -9.573  0.00  0.00    -0.032 A 
HETATM    9  C   UNK N   1      25.867  21.175 -10.248  0.00  0.00     0.009 A 
HETATM   10  C   UNK N   1      25.922  20.768 -11.588  0.00  0.00     0.001 A 
HETATM   11  C   UNK N   1      27.150  20.693 -12.251  0.00  0.00     0.000 A 
HETATM   12  C   UNK N   1      28.323  21.047 -11.585  0.00  0.00     0.001 A 
HETATM   13  C   UNK N   1      28.265  21.472 -10.256  0.00  0.00     0.009 A 
ENDBRANCH   4   8
BRANCH   6  14
HETATM   14  C   UNK N   1      25.936  25.024  -6.352  0.00  0.00     0.171 C 
BRANCH  14  15
HETATM   15  C   UNK N   1      25.528  26.441  -6.806  0.00  0.00     0.017 A 
HETATM   16  C   UNK N   1      26.306  27.538  -6.083  0.00  0.00     0.007 A 
HETATM   17  C   UNK N   1      24.906  27.196  -5.635  0.00  0.00     0.007 A 
ENDBRANCH  14  15
BRANCH  14  18
HETATM   18  N   UNK N   1      25.005  24.577  -5.328  0.00  0.00    -0.418 N 
HETATM   19  H   UNK N   1      23.998  24.581  -5.491  0.00  0.00     0.150 HD
HETATM   20  H   UNK N   1      25.364  24.251  -4.431  0.00  0.00     0.150 HD
ENDBRANCH  14  18
ENDBRANCH   6  14
BRANCH   1  21
HETATM   21  C   UNK N   1      29.923  21.564  -5.647  0.00  0.00     0.013 A 
HETATM   22  C   UNK N   1      30.007  22.262  -4.433  0.00  0.00     0.057 A 
HETATM   23  C   UNK N   1      30.953  21.909  -3.473  0.00  0.00     0.117 A 
HETATM   24  C   UNK N   1      31.837  20.860  -3.723  0.00  0.00     0.045 A 
HETATM   25  F   UNK N   1      30.990  22.567  -2.289  0.00  0.00    -0.206 F 
HETATM   26  C   UNK N   1      31.778  20.168  -4.936  0.00  0.00     0.046 A 
HETATM   27  C   UNK N   1      30.819  20.508  -5.897  0.00  0.00     0.127 A 
HETATM   28  F   UNK N   1      30.776  19.815  -7.062  0.00  0.00    -0.205 F 
ENDBRANCH   1  21
TORSDOF 5
ENDMDL
