MODEL 1
REMARK VINA RESULT:      -6.8      0.000      0.000
REMARK  7 active torsions:
REMARK  status: ('A' for Active; 'I' for Inactive)
REMARK    1  A    between atoms: N_3  and  C_5 
REMARK    2  A    between atoms: C_14  and  N_11 
REMARK    3  A    between atoms: C_16  and  C_20 
REMARK    4  A    between atoms: C_17  and  O_18 
REMARK    5  A    between atoms: C_20  and  O_21 
REMARK    6  A    between atoms: O_21  and  P_22 
REMARK    7  A    between atoms: P_22  and  O_23 
ROOT
HETATM    1  O   UNK N   1      21.466  20.829   0.318  0.00  0.00    -0.307 OA
HETATM    2  P   UNK N   1      20.681  20.413   1.808  0.00  0.00     0.390 P 
HETATM    3  O   UNK N   1      22.073  21.051   2.050  0.00  0.00    -0.632 OA
HETATM    4  H   UNK N   1      21.919  20.953  -0.529  0.00  0.00     0.222 HD
ENDROOT
BRANCH   2   5
HETATM    5  O   UNK N   1      21.498  19.195   2.824  0.00  0.00    -0.294 OA
BRANCH   5   6
HETATM    6  C   UNK N   1      20.802  17.988   3.068  0.00  0.00     0.215 C 
BRANCH   6   7
HETATM    7  C   UNK N   1      21.674  16.839   3.627  0.00  0.00     0.177 C 
HETATM    8  O   UNK N   1      20.934  16.167   4.625  0.00  0.00    -0.356 OA
HETATM    9  C   UNK N   1      21.047  17.033   5.743  0.00  0.00     0.230 C 
HETATM   10  C   UNK N   1      22.448  17.638   5.717  0.00  0.00     0.088 C 
HETATM   11  C   UNK N   1      22.942  17.286   4.340  0.00  0.00     0.153 C 
BRANCH   9  12
HETATM   12  N   UNK N   1      20.669  16.378   7.002  0.00  0.00    -0.329 N 
HETATM   13  C   UNK N   1      21.222  15.321   7.634  0.00  0.00     0.046 A 
HETATM   14  C   UNK N   1      20.617  15.133   8.844  0.00  0.00    -0.005 A 
HETATM   15  C   UNK N   1      22.274  14.508   7.213  0.00  0.00     0.033 A 
HETATM   16  C   UNK N   1      21.026  14.139   9.729  0.00  0.00     0.049 A 
HETATM   17  C   UNK N   1      19.633  16.086   8.983  0.00  0.00     0.031 A 
HETATM   18  C   UNK N   1      22.093  13.298   9.339  0.00  0.00     0.103 A 
HETATM   19  C   UNK N   1      22.702  13.484   8.074  0.00  0.00     0.038 A 
HETATM   20  C   UNK N   1      19.691  16.849   7.816  0.00  0.00     0.095 A 
BRANCH  18  21
HETATM   21  N   UNK N   1      22.563  12.281  10.214  0.00  0.00    -0.116 N 
HETATM   22  O   UNK N   1      22.460  12.405  11.397  0.00  0.00    -0.532 OA
HETATM   23  O   UNK N   1      23.138  11.202   9.725  0.00  0.00    -0.532 OA
ENDBRANCH  18  21
ENDBRANCH   9  12
BRANCH  11  24
HETATM   24  O   UNK N   1      23.804  16.193   4.459  0.00  0.00    -0.393 OA
HETATM   25  H   UNK N   1      24.412  15.574   4.025  0.00  0.00     0.210 HD
ENDBRANCH  11  24
ENDBRANCH   6   7
ENDBRANCH   5   6
ENDBRANCH   2   5
BRANCH   2  26
HETATM   26  O   UNK N   1      20.535  19.162   0.600  0.00  0.00    -0.307 OA
HETATM   27  H   UNK N   1      21.178  18.992  -0.105  0.00  0.00     0.222 HD
ENDBRANCH   2  26
TORSDOF 7
ENDMDL
MODEL 2
REMARK VINA RESULT:      -6.8     12.658     15.644
REMARK  7 active torsions:
REMARK  status: ('A' for Active; 'I' for Inactive)
REMARK    1  A    between atoms: N_3  and  C_5 
REMARK    2  A    between atoms: C_14  and  N_11 
REMARK    3  A    between atoms: C_16  and  C_20 
REMARK    4  A    between atoms: C_17  and  O_18 
REMARK    5  A    between atoms: C_20  and  O_21 
REMARK    6  A    between atoms: O_21  and  P_22 
REMARK    7  A    between atoms: P_22  and  O_23 
ROOT
HETATM    1  O   UNK N   1      33.430  10.991  14.604  0.00  0.00    -0.307 OA
HETATM    2  P   UNK N   1      34.860  11.695  13.920  0.00  0.00     0.390 P 
HETATM    3  O   UNK N   1      34.210  12.625  14.976  0.00  0.00    -0.632 OA
HETATM    4  H   UNK N   1      32.582  10.618  14.889  0.00  0.00     0.222 HD
ENDROOT
BRANCH   2   5
HETATM    5  O   UNK N   1      34.643  13.220  13.019  0.00  0.00    -0.294 OA
BRANCH   5   6
HETATM    6  C   UNK N   1      35.050  13.231  11.664  0.00  0.00     0.215 C 
BRANCH   6   7
HETATM    7  C   UNK N   1      36.048  14.355  11.298  0.00  0.00     0.177 C 
HETATM    8  O   UNK N   1      35.323  15.415  10.710  0.00  0.00    -0.356 OA
HETATM    9  C   UNK N   1      35.092  14.950   9.390  0.00  0.00     0.230 C 
HETATM   10  C   UNK N   1      36.327  14.166   8.954  0.00  0.00     0.088 C 
HETATM   11  C   UNK N   1      37.079  13.978  10.244  0.00  0.00     0.153 C 
BRANCH   9  12
HETATM   12  N   UNK N   1      34.676  16.025   8.479  0.00  0.00    -0.329 N 
HETATM   13  C   UNK N   1      34.371  15.983   7.165  0.00  0.00     0.046 A 
HETATM   14  C   UNK N   1      33.915  17.203   6.753  0.00  0.00    -0.005 A 
HETATM   15  C   UNK N   1      34.444  14.901   6.288  0.00  0.00     0.033 A 
HETATM   16  C   UNK N   1      33.481  17.430   5.451  0.00  0.00     0.049 A 
HETATM   17  C   UNK N   1      33.948  18.058   7.833  0.00  0.00     0.031 A 
HETATM   18  C   UNK N   1      33.535  16.355   4.534  0.00  0.00     0.103 A 
HETATM   19  C   UNK N   1      34.029  15.098   4.960  0.00  0.00     0.038 A 
HETATM   20  C   UNK N   1      34.427  17.291   8.895  0.00  0.00     0.095 A 
BRANCH  18  21
HETATM   21  N   UNK N   1      33.084  16.527   3.196  0.00  0.00    -0.116 N 
HETATM   22  O   UNK N   1      33.591  15.917   2.304  0.00  0.00    -0.532 OA
HETATM   23  O   UNK N   1      32.118  17.381   2.929  0.00  0.00    -0.532 OA
ENDBRANCH  18  21
ENDBRANCH   9  12
BRANCH  11  24
HETATM   24  O   UNK N   1      38.120  14.909  10.275  0.00  0.00    -0.393 OA
HETATM   25  H   UNK N   1      38.419  15.815  10.097  0.00  0.00     0.210 HD
ENDBRANCH  11  24
ENDBRANCH   6   7
ENDBRANCH   5   6
ENDBRANCH   2   5
BRANCH   2  26
HETATM   26  O   UNK N   1      33.834  10.955  12.717  0.00  0.00    -0.307 OA
HETATM   27  H   UNK N   1      33.285  11.438  12.081  0.00  0.00     0.222 HD
ENDBRANCH   2  26
TORSDOF 7
ENDMDL
MODEL 3
REMARK VINA RESULT:      -6.6      1.369      2.453
REMARK  7 active torsions:
REMARK  status: ('A' for Active; 'I' for Inactive)
REMARK    1  A    between atoms: N_3  and  C_5 
REMARK    2  A    between atoms: C_14  and  N_11 
REMARK    3  A    between atoms: C_16  and  C_20 
REMARK    4  A    between atoms: C_17  and  O_18 
REMARK    5  A    between atoms: C_20  and  O_21 
REMARK    6  A    between atoms: O_21  and  P_22 
REMARK    7  A    between atoms: P_22  and  O_23 
ROOT
HETATM    1  O   UNK N   1      21.333  20.823   0.031  0.00  0.00    -0.307 OA
HETATM    2  P   UNK N   1      20.647  20.258   1.521  0.00  0.00     0.390 P 
HETATM    3  O   UNK N   1      22.030  20.924   1.741  0.00  0.00    -0.632 OA
HETATM    4  H   UNK N   1      21.734  21.032  -0.826  0.00  0.00     0.222 HD
ENDROOT
BRANCH   2   5
HETATM    5  O   UNK N   1      21.560  18.991   2.386  0.00  0.00    -0.294 OA
BRANCH   5   6
HETATM    6  C   UNK N   1      21.612  19.085   3.797  0.00  0.00     0.215 C 
BRANCH   6   7
HETATM    7  C   UNK N   1      20.674  18.110   4.546  0.00  0.00     0.177 C 
HETATM    8  O   UNK N   1      21.370  17.597   5.663  0.00  0.00    -0.356 OA
HETATM    9  C   UNK N   1      22.218  16.617   5.088  0.00  0.00     0.230 C 
HETATM   10  C   UNK N   1      21.450  15.954   3.948  0.00  0.00     0.088 C 
HETATM   11  C   UNK N   1      20.273  16.872   3.756  0.00  0.00     0.153 C 
BRANCH   9  12
HETATM   12  N   UNK N   1      22.773  15.696   6.090  0.00  0.00    -0.329 N 
HETATM   13  C   UNK N   1      22.183  15.106   7.151  0.00  0.00     0.046 A 
HETATM   14  C   UNK N   1      23.050  14.228   7.737  0.00  0.00    -0.005 A 
HETATM   15  C   UNK N   1      20.885  15.276   7.632  0.00  0.00     0.033 A 
HETATM   16  C   UNK N   1      22.684  13.443   8.826  0.00  0.00     0.049 A 
HETATM   17  C   UNK N   1      24.238  14.271   7.041  0.00  0.00     0.031 A 
HETATM   18  C   UNK N   1      21.374  13.582   9.338  0.00  0.00     0.103 A 
HETATM   19  C   UNK N   1      20.486  14.511   8.740  0.00  0.00     0.038 A 
HETATM   20  C   UNK N   1      24.032  15.197   6.018  0.00  0.00     0.095 A 
BRANCH  18  21
HETATM   21  N   UNK N   1      20.943  12.789  10.437  0.00  0.00    -0.116 N 
HETATM   22  O   UNK N   1      19.809  12.837  10.808  0.00  0.00    -0.532 OA
HETATM   23  O   UNK N   1      21.798  12.013  11.068  0.00  0.00    -0.532 OA
ENDBRANCH  18  21
ENDBRANCH   9  12
BRANCH  11  24
HETATM   24  O   UNK N   1      19.164  16.283   4.368  0.00  0.00    -0.393 OA
HETATM   25  H   UNK N   1      18.262  16.387   4.713  0.00  0.00     0.210 HD
ENDBRANCH  11  24
ENDBRANCH   6   7
ENDBRANCH   5   6
ENDBRANCH   2   5
BRANCH   2  26
HETATM   26  O   UNK N   1      20.475  19.105   0.222  0.00  0.00    -0.307 OA
HETATM   27  H   UNK N   1      19.630  18.799  -0.142  0.00  0.00     0.222 HD
ENDBRANCH   2  26
TORSDOF 7
ENDMDL
MODEL 4
REMARK VINA RESULT:      -6.5     13.890     17.162
REMARK  7 active torsions:
REMARK  status: ('A' for Active; 'I' for Inactive)
REMARK    1  A    between atoms: N_3  and  C_5 
REMARK    2  A    between atoms: C_14  and  N_11 
REMARK    3  A    between atoms: C_16  and  C_20 
REMARK    4  A    between atoms: C_17  and  O_18 
REMARK    5  A    between atoms: C_20  and  O_21 
REMARK    6  A    between atoms: O_21  and  P_22 
REMARK    7  A    between atoms: P_22  and  O_23 
ROOT
HETATM    1  O   UNK N   1      37.118   9.015  14.148  0.00  0.00    -0.307 OA
HETATM    2  P   UNK N   1      36.893   9.700  15.726  0.00  0.00     0.390 P 
HETATM    3  O   UNK N   1      35.542   9.326  15.064  0.00  0.00    -0.632 OA
HETATM    4  H   UNK N   1      37.269   8.734  13.233  0.00  0.00     0.222 HD
ENDROOT
BRANCH   2   5
HETATM    5  O   UNK N   1      35.980  11.232  15.805  0.00  0.00    -0.294 OA
BRANCH   5   6
HETATM    6  C   UNK N   1      35.268  11.619  14.645  0.00  0.00     0.215 C 
BRANCH   6   7
HETATM    7  C   UNK N   1      35.358  13.124  14.303  0.00  0.00     0.177 C 
HETATM    8  O   UNK N   1      34.535  13.373  13.182  0.00  0.00    -0.356 OA
HETATM    9  C   UNK N   1      35.319  12.900  12.099  0.00  0.00     0.230 C 
HETATM   10  C   UNK N   1      36.777  13.224  12.410  0.00  0.00     0.088 C 
HETATM   11  C   UNK N   1      36.736  13.602  13.867  0.00  0.00     0.153 C 
BRANCH   9  12
HETATM   12  N   UNK N   1      34.832  13.382  10.800  0.00  0.00    -0.329 N 
HETATM   13  C   UNK N   1      34.818  14.629  10.283  0.00  0.00     0.046 A 
HETATM   14  C   UNK N   1      34.385  14.593   8.989  0.00  0.00    -0.005 A 
HETATM   15  C   UNK N   1      35.199  15.827  10.888  0.00  0.00     0.033 A 
HETATM   16  C   UNK N   1      34.319  15.736   8.198  0.00  0.00     0.049 A 
HETATM   17  C   UNK N   1      34.094  13.284   8.672  0.00  0.00     0.031 A 
HETATM   18  C   UNK N   1      34.703  16.968   8.774  0.00  0.00     0.103 A 
HETATM   19  C   UNK N   1      35.131  17.003  10.124  0.00  0.00     0.038 A 
HETATM   20  C   UNK N   1      34.385  12.553   9.824  0.00  0.00     0.095 A 
BRANCH  18  21
HETATM   21  N   UNK N   1      34.675  18.163   8.004  0.00  0.00    -0.116 N 
HETATM   22  O   UNK N   1      34.215  18.161   6.903  0.00  0.00    -0.532 OA
HETATM   23  O   UNK N   1      35.179  19.277   8.493  0.00  0.00    -0.532 OA
ENDBRANCH  18  21
ENDBRANCH   9  12
BRANCH  11  24
HETATM   24  O   UNK N   1      36.780  14.995  13.951  0.00  0.00    -0.393 OA
HETATM   25  H   UNK N   1      37.227  15.820  13.703  0.00  0.00     0.210 HD
ENDBRANCH  11  24
ENDBRANCH   6   7
ENDBRANCH   5   6
ENDBRANCH   2   5
BRANCH   2  26
HETATM   26  O   UNK N   1      38.073  10.570  14.777  0.00  0.00    -0.307 OA
HETATM   27  H   UNK N   1      38.460  11.425  15.019  0.00  0.00     0.222 HD
ENDBRANCH   2  26
TORSDOF 7
ENDMDL
MODEL 5
REMARK VINA RESULT:      -6.5      3.759      7.733
REMARK  7 active torsions:
REMARK  status: ('A' for Active; 'I' for Inactive)
REMARK    1  A    between atoms: N_3  and  C_5 
REMARK    2  A    between atoms: C_14  and  N_11 
REMARK    3  A    between atoms: C_16  and  C_20 
REMARK    4  A    between atoms: C_17  and  O_18 
REMARK    5  A    between atoms: C_20  and  O_21 
REMARK    6  A    between atoms: O_21  and  P_22 
REMARK    7  A    between atoms: P_22  and  O_23 
ROOT
HETATM    1  O   UNK N   1      19.911  13.145  10.439  0.00  0.00    -0.307 OA
HETATM    2  P   UNK N   1      20.728  14.191   9.324  0.00  0.00     0.390 P 
HETATM    3  O   UNK N   1      19.224  14.547   9.449  0.00  0.00    -0.632 OA
HETATM    4  H   UNK N   1      19.464  12.481  10.986  0.00  0.00     0.222 HD
ENDROOT
BRANCH   2   5
HETATM    5  O   UNK N   1      20.170  14.139   7.629  0.00  0.00    -0.294 OA
BRANCH   5   6
HETATM    6  C   UNK N   1      21.163  14.052   6.626  0.00  0.00     0.215 C 
BRANCH   6   7
HETATM    7  C   UNK N   1      20.654  14.299   5.187  0.00  0.00     0.177 C 
HETATM    8  O   UNK N   1      21.439  15.320   4.608  0.00  0.00    -0.356 OA
HETATM    9  C   UNK N   1      20.905  16.500   5.187  0.00  0.00     0.230 C 
HETATM   10  C   UNK N   1      19.399  16.302   5.331  0.00  0.00     0.088 C 
HETATM   11  C   UNK N   1      19.229  14.825   5.093  0.00  0.00     0.153 C 
BRANCH   9  12
HETATM   12  N   UNK N   1      21.313  17.714   4.467  0.00  0.00    -0.329 N 
HETATM   13  C   UNK N   1      22.530  18.284   4.342  0.00  0.00     0.046 A 
HETATM   14  C   UNK N   1      22.464  19.338   3.476  0.00  0.00    -0.005 A 
HETATM   15  C   UNK N   1      23.734  17.906   4.936  0.00  0.00     0.033 A 
HETATM   16  C   UNK N   1      23.589  20.077   3.123  0.00  0.00     0.049 A 
HETATM   17  C   UNK N   1      21.160  19.459   3.049  0.00  0.00     0.031 A 
HETATM   18  C   UNK N   1      24.829  19.721   3.700  0.00  0.00     0.103 A 
HETATM   19  C   UNK N   1      24.888  18.640   4.614  0.00  0.00     0.038 A 
HETATM   20  C   UNK N   1      20.467  18.430   3.686  0.00  0.00     0.095 A 
BRANCH  18  21
HETATM   21  N   UNK N   1      26.013  20.430   3.358  0.00  0.00    -0.116 N 
HETATM   22  O   UNK N   1      26.983  20.356   4.049  0.00  0.00    -0.532 OA
HETATM   23  O   UNK N   1      26.039  21.194   2.286  0.00  0.00    -0.532 OA
ENDBRANCH  18  21
ENDBRANCH   9  12
BRANCH  11  24
HETATM   24  O   UNK N   1      18.766  14.651   3.786  0.00  0.00    -0.393 OA
HETATM   25  H   UNK N   1      18.465  15.060   2.959  0.00  0.00     0.210 HD
ENDBRANCH  11  24
ENDBRANCH   6   7
ENDBRANCH   5   6
ENDBRANCH   2   5
BRANCH   2  26
HETATM   26  O   UNK N   1      21.175  12.516   9.123  0.00  0.00    -0.307 OA
HETATM   27  H   UNK N   1      20.702  11.764   9.511  0.00  0.00     0.222 HD
ENDBRANCH   2  26
TORSDOF 7
ENDMDL
MODEL 6
REMARK VINA RESULT:      -6.5     11.699     13.194
REMARK  7 active torsions:
REMARK  status: ('A' for Active; 'I' for Inactive)
REMARK    1  A    between atoms: N_3  and  C_5 
REMARK    2  A    between atoms: C_14  and  N_11 
REMARK    3  A    between atoms: C_16  and  C_20 
REMARK    4  A    between atoms: C_17  and  O_18 
REMARK    5  A    between atoms: C_20  and  O_21 
REMARK    6  A    between atoms: O_21  and  P_22 
REMARK    7  A    between atoms: P_22  and  O_23 
ROOT
HETATM    1  O   UNK N   1      27.437  18.208   9.395  0.00  0.00    -0.307 OA
HETATM    2  P   UNK N   1      28.797  18.416   8.339  0.00  0.00     0.390 P 
HETATM    3  O   UNK N   1      27.987  17.142   7.988  0.00  0.00    -0.632 OA
HETATM    4  H   UNK N   1      26.749  18.065  10.063  0.00  0.00     0.222 HD
ENDROOT
BRANCH   2   5
HETATM    5  O   UNK N   1      30.041  17.136   8.383  0.00  0.00    -0.294 OA
BRANCH   5   6
HETATM    6  C   UNK N   1      31.362  17.533   8.694  0.00  0.00     0.215 C 
BRANCH   6   7
HETATM    7  C   UNK N   1      32.406  17.226   7.595  0.00  0.00     0.177 C 
HETATM    8  O   UNK N   1      32.944  15.943   7.841  0.00  0.00    -0.356 OA
HETATM    9  C   UNK N   1      33.863  16.180   8.895  0.00  0.00     0.230 C 
HETATM   10  C   UNK N   1      34.500  17.546   8.653  0.00  0.00     0.088 C 
HETATM   11  C   UNK N   1      33.619  18.145   7.589  0.00  0.00     0.153 C 
BRANCH   9  12
HETATM   12  N   UNK N   1      34.808  15.070   9.077  0.00  0.00    -0.329 N 
HETATM   13  C   UNK N   1      35.144  14.386  10.191  0.00  0.00     0.046 A 
HETATM   14  C   UNK N   1      35.974  13.351   9.870  0.00  0.00    -0.005 A 
HETATM   15  C   UNK N   1      34.732  14.606  11.505  0.00  0.00     0.033 A 
HETATM   16  C   UNK N   1      36.436  12.449  10.824  0.00  0.00     0.049 A 
HETATM   17  C   UNK N   1      36.192  13.383   8.510  0.00  0.00     0.031 A 
HETATM   18  C   UNK N   1      36.035  12.636  12.167  0.00  0.00     0.103 A 
HETATM   19  C   UNK N   1      35.192  13.725  12.498  0.00  0.00     0.038 A 
HETATM   20  C   UNK N   1      35.449  14.468   8.044  0.00  0.00     0.095 A 
BRANCH  18  21
HETATM   21  N   UNK N   1      36.462  11.732  13.177  0.00  0.00    -0.116 N 
HETATM   22  O   UNK N   1      37.400  11.995  13.867  0.00  0.00    -0.532 OA
HETATM   23  O   UNK N   1      35.838  10.584  13.345  0.00  0.00    -0.532 OA
ENDBRANCH  18  21
ENDBRANCH   9  12
BRANCH  11  24
HETATM   24  O   UNK N   1      34.278  18.018   6.364  0.00  0.00    -0.393 OA
HETATM   25  H   UNK N   1      35.003  17.618   5.857  0.00  0.00     0.210 HD
ENDBRANCH  11  24
ENDBRANCH   6   7
ENDBRANCH   5   6
ENDBRANCH   2   5
BRANCH   2  26
HETATM   26  O   UNK N   1      29.192  18.718  10.012  0.00  0.00    -0.307 OA
HETATM   27  H   UNK N   1      29.725  18.133  10.572  0.00  0.00     0.222 HD
ENDBRANCH   2  26
TORSDOF 7
ENDMDL
MODEL 7
REMARK VINA RESULT:      -6.1      8.324     10.117
REMARK  7 active torsions:
REMARK  status: ('A' for Active; 'I' for Inactive)
REMARK    1  A    between atoms: N_3  and  C_5 
REMARK    2  A    between atoms: C_14  and  N_11 
REMARK    3  A    between atoms: C_16  and  C_20 
REMARK    4  A    between atoms: C_17  and  O_18 
REMARK    5  A    between atoms: C_20  and  O_21 
REMARK    6  A    between atoms: O_21  and  P_22 
REMARK    7  A    between atoms: P_22  and  O_23 
ROOT
HETATM    1  O   UNK N   1      22.669  14.770   5.694  0.00  0.00    -0.307 OA
HETATM    2  P   UNK N   1      24.338  14.299   5.681  0.00  0.00     0.390 P 
HETATM    3  O   UNK N   1      23.995  15.167   6.920  0.00  0.00    -0.632 OA
HETATM    4  H   UNK N   1      21.761  15.102   5.618  0.00  0.00     0.222 HD
ENDROOT
BRANCH   2   5
HETATM    5  O   UNK N   1      25.536  15.619   5.580  0.00  0.00    -0.294 OA
BRANCH   5   6
HETATM    6  C   UNK N   1      26.884  15.287   5.848  0.00  0.00     0.215 C 
BRANCH   6   7
HETATM    7  C   UNK N   1      27.739  14.989   4.593  0.00  0.00     0.177 C 
HETATM    8  O   UNK N   1      29.101  15.092   4.952  0.00  0.00    -0.356 OA
HETATM    9  C   UNK N   1      29.318  16.493   4.983  0.00  0.00     0.230 C 
HETATM   10  C   UNK N   1      28.488  17.113   3.862  0.00  0.00     0.088 C 
HETATM   11  C   UNK N   1      27.576  15.987   3.455  0.00  0.00     0.153 C 
BRANCH   9  12
HETATM   12  N   UNK N   1      30.745  16.841   4.974  0.00  0.00    -0.329 N 
HETATM   13  C   UNK N   1      31.559  17.206   5.987  0.00  0.00     0.046 A 
HETATM   14  C   UNK N   1      32.843  17.316   5.537  0.00  0.00    -0.005 A 
HETATM   15  C   UNK N   1      31.237  17.428   7.326  0.00  0.00     0.033 A 
HETATM   16  C   UNK N   1      33.900  17.631   6.386  0.00  0.00     0.049 A 
HETATM   17  C   UNK N   1      32.850  17.032   4.189  0.00  0.00     0.031 A 
HETATM   18  C   UNK N   1      33.614  17.857   7.752  0.00  0.00     0.103 A 
HETATM   19  C   UNK N   1      32.277  17.764   8.209  0.00  0.00     0.038 A 
HETATM   20  C   UNK N   1      31.525  16.738   3.868  0.00  0.00     0.095 A 
BRANCH  18  21
HETATM   21  N   UNK N   1      34.660  18.162   8.665  0.00  0.00    -0.116 N 
HETATM   22  O   UNK N   1      34.888  17.438   9.587  0.00  0.00    -0.532 OA
HETATM   23  O   UNK N   1      35.370  19.261   8.514  0.00  0.00    -0.532 OA
ENDBRANCH  18  21
ENDBRANCH   9  12
BRANCH  11  24
HETATM   24  O   UNK N   1      28.084  15.424   2.283  0.00  0.00    -0.393 OA
HETATM   25  H   UNK N   1      28.757  15.447   1.583  0.00  0.00     0.210 HD
ENDBRANCH  11  24
ENDBRANCH   6   7
ENDBRANCH   5   6
ENDBRANCH   2   5
BRANCH   2  26
HETATM   26  O   UNK N   1      23.776  14.824   4.115  0.00  0.00    -0.307 OA
HETATM   27  H   UNK N   1      22.939  14.558   3.706  0.00  0.00     0.222 HD
ENDBRANCH   2  26
TORSDOF 7
ENDMDL
MODEL 8
REMARK VINA RESULT:      -6.1     12.204     13.572
REMARK  7 active torsions:
REMARK  status: ('A' for Active; 'I' for Inactive)
REMARK    1  A    between atoms: N_3  and  C_5 
REMARK    2  A    between atoms: C_14  and  N_11 
REMARK    3  A    between atoms: C_16  and  C_20 
REMARK    4  A    between atoms: C_17  and  O_18 
REMARK    5  A    between atoms: C_20  and  O_21 
REMARK    6  A    between atoms: O_21  and  P_22 
REMARK    7  A    between atoms: P_22  and  O_23 
ROOT
HETATM    1  O   UNK N   1      27.683  18.296   9.417  0.00  0.00    -0.307 OA
HETATM    2  P   UNK N   1      28.401  17.359   8.146  0.00  0.00     0.390 P 
HETATM    3  O   UNK N   1      29.295  17.391   9.412  0.00  0.00    -0.632 OA
HETATM    4  H   UNK N   1      27.306  18.908  10.067  0.00  0.00     0.222 HD
ENDROOT
BRANCH   2   5
HETATM    5  O   UNK N   1      29.961  17.947   7.509  0.00  0.00    -0.294 OA
BRANCH   5   6
HETATM    6  C   UNK N   1      31.121  17.631   8.255  0.00  0.00     0.215 C 
BRANCH   6   7
HETATM    7  C   UNK N   1      32.270  17.004   7.430  0.00  0.00     0.177 C 
HETATM    8  O   UNK N   1      32.943  16.070   8.249  0.00  0.00    -0.356 OA
HETATM    9  C   UNK N   1      33.750  16.894   9.075  0.00  0.00     0.230 C 
HETATM   10  C   UNK N   1      34.229  18.069   8.226  0.00  0.00     0.088 C 
HETATM   11  C   UNK N   1      33.358  17.978   7.002  0.00  0.00     0.153 C 
BRANCH   9  12
HETATM   12  N   UNK N   1      34.810  16.140   9.758  0.00  0.00    -0.329 N 
HETATM   13  C   UNK N   1      35.647  15.192   9.285  0.00  0.00     0.046 A 
HETATM   14  C   UNK N   1      36.556  14.853  10.245  0.00  0.00    -0.005 A 
HETATM   15  C   UNK N   1      35.678  14.612   8.017  0.00  0.00     0.033 A 
HETATM   16  C   UNK N   1      37.572  13.931  10.010  0.00  0.00     0.049 A 
HETATM   17  C   UNK N   1      36.282  15.592  11.375  0.00  0.00     0.031 A 
HETATM   18  C   UNK N   1      37.640  13.326   8.734  0.00  0.00     0.103 A 
HETATM   19  C   UNK N   1      36.681  13.665   7.749  0.00  0.00     0.038 A 
HETATM   20  C   UNK N   1      35.186  16.387  11.037  0.00  0.00     0.095 A 
BRANCH  18  21
HETATM   21  N   UNK N   1      38.671  12.393   8.434  0.00  0.00    -0.116 N 
HETATM   22  O   UNK N   1      39.554  12.197   9.213  0.00  0.00    -0.532 OA
HETATM   23  O   UNK N   1      38.670  11.755   7.283  0.00  0.00    -0.532 OA
ENDBRANCH  18  21
ENDBRANCH   9  12
BRANCH  11  24
HETATM   24  O   UNK N   1      34.111  17.396   5.980  0.00  0.00    -0.393 OA
HETATM   25  H   UNK N   1      34.306  17.340   5.031  0.00  0.00     0.210 HD
ENDBRANCH  11  24
ENDBRANCH   6   7
ENDBRANCH   5   6
ENDBRANCH   2   5
BRANCH   2  26
HETATM   26  O   UNK N   1      27.716  18.858   7.571  0.00  0.00    -0.307 OA
HETATM   27  H   UNK N   1      26.768  19.047   7.504  0.00  0.00     0.222 HD
ENDBRANCH   2  26
TORSDOF 7
ENDMDL
MODEL 9
REMARK VINA RESULT:      -5.9      3.341      8.196
REMARK  7 active torsions:
REMARK  status: ('A' for Active; 'I' for Inactive)
REMARK    1  A    between atoms: N_3  and  C_5 
REMARK    2  A    between atoms: C_14  and  N_11 
REMARK    3  A    between atoms: C_16  and  C_20 
REMARK    4  A    between atoms: C_17  and  O_18 
REMARK    5  A    between atoms: C_20  and  O_21 
REMARK    6  A    between atoms: O_21  and  P_22 
REMARK    7  A    between atoms: P_22  and  O_23 
ROOT
HETATM    1  O   UNK N   1      24.956  11.930  11.322  0.00  0.00    -0.307 OA
HETATM    2  P   UNK N   1      24.152  12.867  10.104  0.00  0.00     0.390 P 
HETATM    3  O   UNK N   1      24.037  11.346   9.828  0.00  0.00    -0.632 OA
HETATM    4  H   UNK N   1      25.500  11.441  11.958  0.00  0.00     0.222 HD
ENDROOT
BRANCH   2   5
HETATM    5  O   UNK N   1      24.786  12.722   8.442  0.00  0.00    -0.294 OA
BRANCH   5   6
HETATM    6  C   UNK N   1      24.413  13.728   7.520  0.00  0.00     0.215 C 
BRANCH   6   7
HETATM    7  C   UNK N   1      23.625  13.219   6.290  0.00  0.00     0.177 C 
HETATM    8  O   UNK N   1      23.238  14.338   5.519  0.00  0.00    -0.356 OA
HETATM    9  C   UNK N   1      22.128  14.851   6.238  0.00  0.00     0.230 C 
HETATM   10  C   UNK N   1      21.357  13.663   6.806  0.00  0.00     0.088 C 
HETATM   11  C   UNK N   1      22.314  12.517   6.614  0.00  0.00     0.153 C 
BRANCH   9  12
HETATM   12  N   UNK N   1      21.331  15.794   5.442  0.00  0.00    -0.329 N 
HETATM   13  C   UNK N   1      21.682  16.966   4.871  0.00  0.00     0.046 A 
HETATM   14  C   UNK N   1      20.649  17.446   4.119  0.00  0.00    -0.005 A 
HETATM   15  C   UNK N   1      22.899  17.643   4.951  0.00  0.00     0.033 A 
HETATM   16  C   UNK N   1      20.756  18.619   3.377  0.00  0.00     0.049 A 
HETATM   17  C   UNK N   1      19.595  16.565   4.227  0.00  0.00     0.031 A 
HETATM   18  C   UNK N   1      21.976  19.330   3.428  0.00  0.00     0.103 A 
HETATM   19  C   UNK N   1      23.038  18.839   4.227  0.00  0.00     0.038 A 
HETATM   20  C   UNK N   1      20.054  15.544   5.059  0.00  0.00     0.095 A 
BRANCH  18  21
HETATM   21  N   UNK N   1      22.146  20.523   2.673  0.00  0.00    -0.116 N 
HETATM   22  O   UNK N   1      23.045  21.270   2.916  0.00  0.00    -0.532 OA
HETATM   23  O   UNK N   1      21.296  20.825   1.713  0.00  0.00    -0.532 OA
ENDBRANCH  18  21
ENDBRANCH   9  12
BRANCH  11  24
HETATM   24  O   UNK N   1      21.899  11.793   5.494  0.00  0.00    -0.393 OA
HETATM   25  H   UNK N   1      21.333  11.749   4.706  0.00  0.00     0.210 HD
ENDBRANCH  11  24
ENDBRANCH   6   7
ENDBRANCH   5   6
ENDBRANCH   2   5
BRANCH   2  26
HETATM   26  O   UNK N   1      25.712  13.521  10.534  0.00  0.00    -0.307 OA
HETATM   27  H   UNK N   1      25.855  14.341  11.031  0.00  0.00     0.222 HD
ENDBRANCH   2  26
TORSDOF 7
ENDMDL
