MODEL 1
REMARK VINA RESULT:      -7.6      0.000      0.000
REMARK  2 active torsions:
REMARK  status: ('A' for Active; 'I' for Inactive)
REMARK    1  A    between atoms: C_3  and  C_7 
REMARK       I    between atoms: N_9  and  C_18 
REMARK    2  A    between atoms: C_10  and  C_12 
REMARK       I    between atoms: C_18  and  N_19 
ROOT
HETATM    1  C   UNK N   1      29.189  17.876   6.094  0.00  0.00    -0.028 A 
HETATM    2  C   UNK N   1      29.501  16.804   5.118  0.00  0.00     0.168 A 
HETATM    3  N   UNK N   1      30.330  15.902   5.885  0.00  0.00    -0.318 N 
HETATM    4  C   UNK N   1      30.548  16.379   7.255  0.00  0.00     0.146 A 
HETATM    5  C   UNK N   1      29.766  17.658   7.267  0.00  0.00     0.013 A 
HETATM    6  C   UNK N   1      30.752  14.667   5.425  0.00  0.00     0.320 C 
HETATM    7  N   UNK N   1      30.480  14.202   4.153  0.00  0.00    -0.343 N 
HETATM    8  C   UNK N   1      29.742  14.940   3.159  0.00  0.00     0.154 C 
HETATM    9  C   UNK N   1      30.941  12.890   3.765  0.00  0.00     0.154 C 
HETATM   10  O   UNK N   1      31.373  13.939   6.184  0.00  0.00    -0.247 OA
ENDROOT
BRANCH   1  11
HETATM   11  C   UNK N   1      28.230  18.977   5.824  0.00  0.00     0.013 A 
HETATM   12  C   UNK N   1      27.895  19.266   4.492  0.00  0.00     0.057 A 
HETATM   13  C   UNK N   1      26.942  20.239   4.191  0.00  0.00     0.117 A 
HETATM   14  C   UNK N   1      26.323  20.952   5.220  0.00  0.00     0.045 A 
HETATM   15  F   UNK N   1      26.599  20.476   2.902  0.00  0.00    -0.206 F 
HETATM   16  C   UNK N   1      26.659  20.689   6.550  0.00  0.00     0.046 A 
HETATM   17  C   UNK N   1      27.599  19.701   6.859  0.00  0.00     0.127 A 
HETATM   18  F   UNK N   1      27.899  19.467   8.162  0.00  0.00    -0.205 F 
ENDBRANCH   1  11
BRANCH   4  19
HETATM   19  C   UNK N   1      32.000  16.580   7.690  0.00  0.00    -0.032 A 
HETATM   20  C   UNK N   1      32.504  15.883   8.798  0.00  0.00     0.009 A 
HETATM   21  C   UNK N   1      33.790  16.138   9.284  0.00  0.00     0.001 A 
HETATM   22  C   UNK N   1      34.586  17.109   8.674  0.00  0.00     0.000 A 
HETATM   23  C   UNK N   1      34.099  17.817   7.573  0.00  0.00     0.001 A 
HETATM   24  C   UNK N   1      32.812  17.560   7.088  0.00  0.00     0.009 A 
ENDBRANCH   4  19
TORSDOF 2
ENDMDL
MODEL 2
REMARK VINA RESULT:      -7.5      6.081      9.927
REMARK  2 active torsions:
REMARK  status: ('A' for Active; 'I' for Inactive)
REMARK    1  A    between atoms: C_3  and  C_7 
REMARK       I    between atoms: N_9  and  C_18 
REMARK    2  A    between atoms: C_10  and  C_12 
REMARK       I    between atoms: C_18  and  N_19 
ROOT
HETATM    1  C   UNK N   1      35.770  14.231  12.141  0.00  0.00    -0.028 A 
HETATM    2  C   UNK N   1      36.083  13.241  11.081  0.00  0.00     0.168 A 
HETATM    3  N   UNK N   1      36.027  14.034   9.874  0.00  0.00    -0.318 N 
HETATM    4  C   UNK N   1      35.684  15.434  10.144  0.00  0.00     0.146 A 
HETATM    5  C   UNK N   1      35.541  15.435  11.637  0.00  0.00     0.013 A 
HETATM    6  C   UNK N   1      36.393  13.560   8.626  0.00  0.00     0.320 C 
HETATM    7  N   UNK N   1      36.782  12.254   8.398  0.00  0.00    -0.343 N 
HETATM    8  C   UNK N   1      36.842  11.236   9.417  0.00  0.00     0.154 C 
HETATM    9  C   UNK N   1      37.168  11.852   7.067  0.00  0.00     0.154 C 
HETATM   10  O   UNK N   1      36.399  14.335   7.682  0.00  0.00    -0.247 OA
ENDROOT
BRANCH   1  11
HETATM   11  C   UNK N   1      35.851  13.931  13.593  0.00  0.00     0.013 A 
HETATM   12  C   UNK N   1      36.701  14.710  14.393  0.00  0.00     0.057 A 
HETATM   13  C   UNK N   1      36.755  14.518  15.775  0.00  0.00     0.117 A 
HETATM   14  C   UNK N   1      35.972  13.528  16.372  0.00  0.00     0.045 A 
HETATM   15  F   UNK N   1      37.548  15.307  16.538  0.00  0.00    -0.206 F 
HETATM   16  C   UNK N   1      35.136  12.731  15.586  0.00  0.00     0.046 A 
HETATM   17  C   UNK N   1      35.063  12.932  14.204  0.00  0.00     0.127 A 
HETATM   18  F   UNK N   1      34.236  12.145  13.471  0.00  0.00    -0.205 F 
ENDBRANCH   1  11
BRANCH   4  19
HETATM   19  C   UNK N   1      34.444  15.986   9.440  0.00  0.00    -0.032 A 
HETATM   20  C   UNK N   1      34.461  17.280   8.899  0.00  0.00     0.009 A 
HETATM   21  C   UNK N   1      33.306  17.847   8.355  0.00  0.00     0.001 A 
HETATM   22  C   UNK N   1      32.108  17.130   8.360  0.00  0.00     0.000 A 
HETATM   23  C   UNK N   1      32.070  15.842   8.899  0.00  0.00     0.001 A 
HETATM   24  C   UNK N   1      33.228  15.276   9.442  0.00  0.00     0.009 A 
ENDBRANCH   4  19
TORSDOF 2
ENDMDL
MODEL 3
REMARK VINA RESULT:      -7.4      1.634      1.988
REMARK  2 active torsions:
REMARK  status: ('A' for Active; 'I' for Inactive)
REMARK    1  A    between atoms: C_3  and  C_7 
REMARK       I    between atoms: N_9  and  C_18 
REMARK    2  A    between atoms: C_10  and  C_12 
REMARK       I    between atoms: C_18  and  N_19 
ROOT
HETATM    1  C   UNK N   1      28.389  17.380   4.950  0.00  0.00    -0.028 A 
HETATM    2  C   UNK N   1      28.814  16.120   4.294  0.00  0.00     0.168 A 
HETATM    3  N   UNK N   1      29.739  15.555   5.250  0.00  0.00    -0.318 N 
HETATM    4  C   UNK N   1      29.908  16.409   6.430  0.00  0.00     0.146 A 
HETATM    5  C   UNK N   1      28.990  17.553   6.119  0.00  0.00     0.013 A 
HETATM    6  C   UNK N   1      30.292  14.292   5.130  0.00  0.00     0.320 C 
HETATM    7  N   UNK N   1      30.069  13.470   4.043  0.00  0.00    -0.343 N 
HETATM    8  C   UNK N   1      29.252  13.826   2.910  0.00  0.00     0.154 C 
HETATM    9  C   UNK N   1      30.669  12.158   4.012  0.00  0.00     0.154 C 
HETATM   10  O   UNK N   1      30.991  13.869   6.038  0.00  0.00    -0.247 OA
ENDROOT
BRANCH   1  11
HETATM   11  C   UNK N   1      27.315  18.258   4.422  0.00  0.00     0.013 A 
HETATM   12  C   UNK N   1      26.048  17.702   4.184  0.00  0.00     0.057 A 
HETATM   13  C   UNK N   1      24.986  18.502   3.761  0.00  0.00     0.117 A 
HETATM   14  C   UNK N   1      25.182  19.868   3.551  0.00  0.00     0.045 A 
HETATM   15  F   UNK N   1      23.760  17.958   3.577  0.00  0.00    -0.206 F 
HETATM   16  C   UNK N   1      26.441  20.434   3.764  0.00  0.00     0.046 A 
HETATM   17  C   UNK N   1      27.505  19.641   4.208  0.00  0.00     0.127 A 
HETATM   18  F   UNK N   1      28.714  20.222   4.411  0.00  0.00    -0.205 F 
ENDBRANCH   1  11
BRANCH   4  19
HETATM   19  C   UNK N   1      31.330  16.872   6.746  0.00  0.00    -0.032 A 
HETATM   20  C   UNK N   1      31.678  17.229   8.058  0.00  0.00     0.009 A 
HETATM   21  C   UNK N   1      32.935  17.766   8.347  0.00  0.00     0.001 A 
HETATM   22  C   UNK N   1      33.861  17.967   7.321  0.00  0.00     0.000 A 
HETATM   23  C   UNK N   1      33.531  17.622   6.009  0.00  0.00     0.001 A 
HETATM   24  C   UNK N   1      32.272  17.085   5.721  0.00  0.00     0.009 A 
ENDBRANCH   4  19
TORSDOF 2
ENDMDL
MODEL 4
REMARK VINA RESULT:      -7.3      6.199      9.813
REMARK  2 active torsions:
REMARK  status: ('A' for Active; 'I' for Inactive)
REMARK    1  A    between atoms: C_3  and  C_7 
REMARK       I    between atoms: N_9  and  C_18 
REMARK    2  A    between atoms: C_10  and  C_12 
REMARK       I    between atoms: C_18  and  N_19 
ROOT
HETATM    1  C   UNK N   1      35.407  13.794  12.025  0.00  0.00    -0.028 A 
HETATM    2  C   UNK N   1      35.805  12.928  10.889  0.00  0.00     0.168 A 
HETATM    3  N   UNK N   1      35.888  13.860   9.787  0.00  0.00    -0.318 N 
HETATM    4  C   UNK N   1      35.547  15.228  10.191  0.00  0.00     0.146 A 
HETATM    5  C   UNK N   1      35.255  15.057  11.652  0.00  0.00     0.013 A 
HETATM    6  C   UNK N   1      36.368  13.526   8.533  0.00  0.00     0.320 C 
HETATM    7  N   UNK N   1      36.750  12.244   8.186  0.00  0.00    -0.343 N 
HETATM    8  C   UNK N   1      36.686  11.111   9.075  0.00  0.00     0.154 C 
HETATM    9  C   UNK N   1      37.260  11.991   6.860  0.00  0.00     0.154 C 
HETATM   10  O   UNK N   1      36.485  14.407   7.695  0.00  0.00    -0.247 OA
ENDROOT
BRANCH   1  11
HETATM   11  C   UNK N   1      35.336  13.321  13.430  0.00  0.00     0.013 A 
HETATM   12  C   UNK N   1      34.562  12.186  13.720  0.00  0.00     0.057 A 
HETATM   13  C   UNK N   1      34.525  11.659  15.011  0.00  0.00     0.117 A 
HETATM   14  C   UNK N   1      35.245  12.273  16.037  0.00  0.00     0.045 A 
HETATM   15  F   UNK N   1      33.809  10.537  15.264  0.00  0.00    -0.206 F 
HETATM   16  C   UNK N   1      36.004  13.415  15.770  0.00  0.00     0.046 A 
HETATM   17  C   UNK N   1      36.062  13.937  14.474  0.00  0.00     0.127 A 
HETATM   18  F   UNK N   1      36.813  15.044  14.246  0.00  0.00    -0.205 F 
ENDBRANCH   1  11
BRANCH   4  19
HETATM   19  C   UNK N   1      34.397  15.900   9.442  0.00  0.00    -0.032 A 
HETATM   20  C   UNK N   1      34.562  17.188   8.909  0.00  0.00     0.009 A 
HETATM   21  C   UNK N   1      33.490  17.867   8.324  0.00  0.00     0.001 A 
HETATM   22  C   UNK N   1      32.229  17.270   8.277  0.00  0.00     0.000 A 
HETATM   23  C   UNK N   1      32.044  15.992   8.806  0.00  0.00     0.001 A 
HETATM   24  C   UNK N   1      33.118  15.313   9.391  0.00  0.00     0.009 A 
ENDBRANCH   4  19
TORSDOF 2
ENDMDL
MODEL 5
REMARK VINA RESULT:      -7.3      9.864     13.634
REMARK  2 active torsions:
REMARK  status: ('A' for Active; 'I' for Inactive)
REMARK    1  A    between atoms: C_3  and  C_7 
REMARK       I    between atoms: N_9  and  C_18 
REMARK    2  A    between atoms: C_10  and  C_12 
REMARK       I    between atoms: C_18  and  N_19 
ROOT
HETATM    1  C   UNK N   1      35.268  11.344  16.214  0.00  0.00    -0.028 A 
HETATM    2  C   UNK N   1      35.767  12.488  15.414  0.00  0.00     0.168 A 
HETATM    3  N   UNK N   1      35.073  12.327  14.155  0.00  0.00    -0.318 N 
HETATM    4  C   UNK N   1      34.204  11.146  14.148  0.00  0.00     0.146 A 
HETATM    5  C   UNK N   1      34.417  10.596  15.527  0.00  0.00     0.013 A 
HETATM    6  C   UNK N   1      35.117  13.255  13.130  0.00  0.00     0.320 C 
HETATM    7  N   UNK N   1      35.889  14.400  13.179  0.00  0.00    -0.343 N 
HETATM    8  C   UNK N   1      36.740  14.758  14.286  0.00  0.00     0.154 C 
HETATM    9  C   UNK N   1      35.857  15.325  12.072  0.00  0.00     0.154 C 
HETATM   10  O   UNK N   1      34.423  13.072  12.142  0.00  0.00    -0.247 OA
ENDROOT
BRANCH   1  11
HETATM   11  C   UNK N   1      35.578  11.153  17.654  0.00  0.00     0.013 A 
HETATM   12  C   UNK N   1      36.221   9.970  18.052  0.00  0.00     0.057 A 
HETATM   13  C   UNK N   1      36.601   9.778  19.381  0.00  0.00     0.117 A 
HETATM   14  C   UNK N   1      36.325  10.760  20.335  0.00  0.00     0.045 A 
HETATM   15  F   UNK N   1      37.260   8.651  19.741  0.00  0.00    -0.206 F 
HETATM   16  C   UNK N   1      35.668  11.933  19.958  0.00  0.00     0.046 A 
HETATM   17  C   UNK N   1      35.302  12.141  18.624  0.00  0.00     0.127 A 
HETATM   18  F   UNK N   1      34.670  13.295  18.290  0.00  0.00    -0.205 F 
ENDBRANCH   1  11
BRANCH   4  19
HETATM   19  C   UNK N   1      34.466  10.106  13.059  0.00  0.00    -0.032 A 
HETATM   20  C   UNK N   1      33.581   9.983  11.977  0.00  0.00     0.009 A 
HETATM   21  C   UNK N   1      33.736   8.964  11.034  0.00  0.00     0.001 A 
HETATM   22  C   UNK N   1      34.775   8.041  11.168  0.00  0.00     0.000 A 
HETATM   23  C   UNK N   1      35.663   8.144  12.241  0.00  0.00     0.001 A 
HETATM   24  C   UNK N   1      35.507   9.165  13.184  0.00  0.00     0.009 A 
ENDBRANCH   4  19
TORSDOF 2
ENDMDL
MODEL 6
REMARK VINA RESULT:      -7.3      6.861      9.071
REMARK  2 active torsions:
REMARK  status: ('A' for Active; 'I' for Inactive)
REMARK    1  A    between atoms: C_3  and  C_7 
REMARK       I    between atoms: N_9  and  C_18 
REMARK    2  A    between atoms: C_10  and  C_12 
REMARK       I    between atoms: C_18  and  N_19 
ROOT
HETATM    1  C   UNK N   1      22.960  17.836   4.460  0.00  0.00    -0.028 A 
HETATM    2  C   UNK N   1      22.355  16.845   3.538  0.00  0.00     0.168 A 
HETATM    3  N   UNK N   1      21.209  16.372   4.281  0.00  0.00    -0.318 N 
HETATM    4  C   UNK N   1      21.101  17.006   5.599  0.00  0.00     0.146 A 
HETATM    5  C   UNK N   1      22.285  17.926   5.598  0.00  0.00     0.013 A 
HETATM    6  C   UNK N   1      20.249  15.526   3.755  0.00  0.00     0.320 C 
HETATM    7  N   UNK N   1      20.329  14.989   2.484  0.00  0.00    -0.343 N 
HETATM    8  C   UNK N   1      21.413  15.234   1.567  0.00  0.00     0.154 C 
HETATM    9  C   UNK N   1      19.269  14.132   2.009  0.00  0.00     0.154 C 
HETATM   10  O   UNK N   1      19.269  15.256   4.432  0.00  0.00    -0.247 OA
ENDROOT
BRANCH   1  11
HETATM   11  C   UNK N   1      24.095  18.718   4.088  0.00  0.00     0.013 A 
HETATM   12  C   UNK N   1      25.397  18.320   4.431  0.00  0.00     0.057 A 
HETATM   13  C   UNK N   1      26.501  19.076   4.036  0.00  0.00     0.117 A 
HETATM   14  C   UNK N   1      26.317  20.253   3.308  0.00  0.00     0.045 A 
HETATM   15  F   UNK N   1      27.753  18.656   4.339  0.00  0.00    -0.206 F 
HETATM   16  C   UNK N   1      25.027  20.673   2.975  0.00  0.00     0.046 A 
HETATM   17  C   UNK N   1      23.917  19.909   3.351  0.00  0.00     0.127 A 
HETATM   18  F   UNK N   1      22.677  20.342   3.007  0.00  0.00    -0.205 F 
ENDBRANCH   1  11
BRANCH   4  19
HETATM   19  C   UNK N   1      21.088  16.075   6.810  0.00  0.00    -0.032 A 
HETATM   20  C   UNK N   1      20.133  16.253   7.823  0.00  0.00     0.009 A 
HETATM   21  C   UNK N   1      20.175  15.490   8.993  0.00  0.00     0.001 A 
HETATM   22  C   UNK N   1      21.186  14.544   9.173  0.00  0.00     0.000 A 
HETATM   23  C   UNK N   1      22.148  14.357   8.179  0.00  0.00     0.001 A 
HETATM   24  C   UNK N   1      22.104  15.121   7.008  0.00  0.00     0.009 A 
ENDBRANCH   4  19
TORSDOF 2
ENDMDL
MODEL 7
REMARK VINA RESULT:      -7.1      6.637      8.879
REMARK  2 active torsions:
REMARK  status: ('A' for Active; 'I' for Inactive)
REMARK    1  A    between atoms: C_3  and  C_7 
REMARK       I    between atoms: N_9  and  C_18 
REMARK    2  A    between atoms: C_10  and  C_12 
REMARK       I    between atoms: C_18  and  N_19 
ROOT
HETATM    1  C   UNK N   1      23.506  17.773   4.641  0.00  0.00    -0.028 A 
HETATM    2  C   UNK N   1      22.851  16.789   3.746  0.00  0.00     0.168 A 
HETATM    3  N   UNK N   1      21.564  16.589   4.374  0.00  0.00    -0.318 N 
HETATM    4  C   UNK N   1      21.417  17.380   5.600  0.00  0.00     0.146 A 
HETATM    5  C   UNK N   1      22.732  18.098   5.667  0.00  0.00     0.013 A 
HETATM    6  C   UNK N   1      20.541  15.848   3.810  0.00  0.00     0.320 C 
HETATM    7  N   UNK N   1      20.674  15.162   2.618  0.00  0.00    -0.343 N 
HETATM    8  C   UNK N   1      21.881  15.128   1.831  0.00  0.00     0.154 C 
HETATM    9  C   UNK N   1      19.545  14.432   2.091  0.00  0.00     0.154 C 
HETATM   10  O   UNK N   1      19.460  15.814   4.376  0.00  0.00    -0.247 OA
ENDROOT
BRANCH   1  11
HETATM   11  C   UNK N   1      24.808  18.418   4.338  0.00  0.00     0.013 A 
HETATM   12  C   UNK N   1      24.827  19.519   3.467  0.00  0.00     0.057 A 
HETATM   13  C   UNK N   1      26.014  20.206   3.211  0.00  0.00     0.117 A 
HETATM   14  C   UNK N   1      27.205  19.789   3.808  0.00  0.00     0.045 A 
HETATM   15  F   UNK N   1      26.007  21.293   2.403  0.00  0.00    -0.206 F 
HETATM   16  C   UNK N   1      27.207  18.682   4.662  0.00  0.00     0.046 A 
HETATM   17  C   UNK N   1      26.017  18.002   4.938  0.00  0.00     0.127 A 
HETATM   18  F   UNK N   1      26.052  16.935   5.776  0.00  0.00    -0.205 F 
ENDBRANCH   1  11
BRANCH   4  19
HETATM   19  C   UNK N   1      21.109  16.608   6.883  0.00  0.00    -0.032 A 
HETATM   20  C   UNK N   1      21.830  15.446   7.194  0.00  0.00     0.009 A 
HETATM   21  C   UNK N   1      21.488  14.661   8.299  0.00  0.00     0.001 A 
HETATM   22  C   UNK N   1      20.404  15.022   9.102  0.00  0.00     0.000 A 
HETATM   23  C   UNK N   1      19.671  16.173   8.805  0.00  0.00     0.001 A 
HETATM   24  C   UNK N   1      20.016  16.957   7.699  0.00  0.00     0.009 A 
ENDBRANCH   4  19
TORSDOF 2
ENDMDL
MODEL 8
REMARK VINA RESULT:      -7.0     12.317     15.529
REMARK  2 active torsions:
REMARK  status: ('A' for Active; 'I' for Inactive)
REMARK    1  A    between atoms: C_3  and  C_7 
REMARK       I    between atoms: N_9  and  C_18 
REMARK    2  A    between atoms: C_10  and  C_12 
REMARK       I    between atoms: C_18  and  N_19 
ROOT
HETATM    1  C   UNK N   1      28.641  23.980  -5.691  0.00  0.00    -0.028 A 
HETATM    2  C   UNK N   1      27.607  23.797  -6.738  0.00  0.00     0.168 A 
HETATM    3  N   UNK N   1      27.319  25.153  -7.147  0.00  0.00    -0.318 N 
HETATM    4  C   UNK N   1      28.107  26.138  -6.397  0.00  0.00     0.146 A 
HETATM    5  C   UNK N   1      28.917  25.261  -5.490  0.00  0.00     0.013 A 
HETATM    6  C   UNK N   1      26.503  25.476  -8.217  0.00  0.00     0.320 C 
HETATM    7  N   UNK N   1      25.820  24.531  -8.958  0.00  0.00    -0.343 N 
HETATM    8  C   UNK N   1      25.866  23.113  -8.705  0.00  0.00     0.154 C 
HETATM    9  C   UNK N   1      25.007  24.957 -10.072  0.00  0.00     0.154 C 
HETATM   10  O   UNK N   1      26.396  26.649  -8.541  0.00  0.00    -0.247 OA
ENDROOT
BRANCH   1  11
HETATM   11  C   UNK N   1      29.376  22.856  -5.058  0.00  0.00     0.013 A 
HETATM   12  C   UNK N   1      29.809  21.794  -5.869  0.00  0.00     0.057 A 
HETATM   13  C   UNK N   1      30.568  20.753  -5.335  0.00  0.00     0.117 A 
HETATM   14  C   UNK N   1      30.889  20.748  -3.976  0.00  0.00     0.045 A 
HETATM   15  F   UNK N   1      31.015  19.759  -6.139  0.00  0.00    -0.206 F 
HETATM   16  C   UNK N   1      30.449  21.787  -3.152  0.00  0.00     0.046 A 
HETATM   17  C   UNK N   1      29.704  22.844  -3.685  0.00  0.00     0.127 A 
HETATM   18  F   UNK N   1      29.297  23.841  -2.859  0.00  0.00    -0.205 F 
ENDBRANCH   1  11
BRANCH   4  19
HETATM   19  C   UNK N   1      27.324  27.204  -5.631  0.00  0.00    -0.032 A 
HETATM   20  C   UNK N   1      27.695  28.553  -5.728  0.00  0.00     0.009 A 
HETATM   21  C   UNK N   1      27.069  29.529  -4.947  0.00  0.00     0.001 A 
HETATM   22  C   UNK N   1      26.070  29.163  -4.043  0.00  0.00     0.000 A 
HETATM   23  C   UNK N   1      25.691  27.825  -3.928  0.00  0.00     0.001 A 
HETATM   24  C   UNK N   1      26.318  26.850  -4.711  0.00  0.00     0.009 A 
ENDBRANCH   4  19
TORSDOF 2
ENDMDL
MODEL 9
REMARK VINA RESULT:      -6.9      3.769      7.156
REMARK  2 active torsions:
REMARK  status: ('A' for Active; 'I' for Inactive)
REMARK    1  A    between atoms: C_3  and  C_7 
REMARK       I    between atoms: N_9  and  C_18 
REMARK    2  A    between atoms: C_10  and  C_12 
REMARK       I    between atoms: C_18  and  N_19 
ROOT
HETATM    1  C   UNK N   1      27.903  17.436   6.080  0.00  0.00    -0.028 A 
HETATM    2  C   UNK N   1      27.279  18.523   5.288  0.00  0.00     0.168 A 
HETATM    3  N   UNK N   1      26.072  17.905   4.788  0.00  0.00    -0.318 N 
HETATM    4  C   UNK N   1      25.944  16.509   5.218  0.00  0.00     0.146 A 
HETATM    5  C   UNK N   1      27.184  16.323   6.041  0.00  0.00     0.013 A 
HETATM    6  C   UNK N   1      25.085  18.591   4.102  0.00  0.00     0.320 C 
HETATM    7  N   UNK N   1      25.189  19.926   3.763  0.00  0.00    -0.343 N 
HETATM    8  C   UNK N   1      26.328  20.755   4.069  0.00  0.00     0.154 C 
HETATM    9  C   UNK N   1      24.100  20.567   3.066  0.00  0.00     0.154 C 
HETATM   10  O   UNK N   1      24.060  17.999   3.801  0.00  0.00    -0.247 OA
ENDROOT
BRANCH   1  11
HETATM   11  C   UNK N   1      29.108  17.625   6.927  0.00  0.00     0.013 A 
HETATM   12  C   UNK N   1      28.973  18.310   8.145  0.00  0.00     0.057 A 
HETATM   13  C   UNK N   1      30.059  18.447   9.011  0.00  0.00     0.117 A 
HETATM   14  C   UNK N   1      31.302  17.917   8.660  0.00  0.00     0.045 A 
HETATM   15  F   UNK N   1      29.901  19.072  10.201  0.00  0.00    -0.206 F 
HETATM   16  C   UNK N   1      31.458  17.251   7.442  0.00  0.00     0.046 A 
HETATM   17  C   UNK N   1      30.368  17.092   6.579  0.00  0.00     0.127 A 
HETATM   18  F   UNK N   1      30.552  16.435   5.406  0.00  0.00    -0.205 F 
ENDBRANCH   1  11
BRANCH   4  19
HETATM   19  C   UNK N   1      25.816  15.459   4.114  0.00  0.00    -0.032 A 
HETATM   20  C   UNK N   1      26.692  15.480   3.019  0.00  0.00     0.009 A 
HETATM   21  C   UNK N   1      26.519  14.605   1.943  0.00  0.00     0.001 A 
HETATM   22  C   UNK N   1      25.454  13.702   1.942  0.00  0.00     0.000 A 
HETATM   23  C   UNK N   1      24.569  13.669   3.021  0.00  0.00     0.001 A 
HETATM   24  C   UNK N   1      24.743  14.546   4.097  0.00  0.00     0.009 A 
ENDBRANCH   4  19
TORSDOF 2
ENDMDL
