REMARK  2 active torsions:
REMARK  status: ('A' for Active; 'I' for Inactive)
REMARK    1  A    between atoms: C_3  and  C_7 
REMARK       I    between atoms: N_9  and  C_18 
REMARK    2  A    between atoms: C_10  and  C_12 
REMARK       I    between atoms: C_18  and  N_19 
ROOT
HETATM    1  C   UNK N   1       1.241  -1.260  -0.127  0.00  0.00    -0.028 A 
HETATM    2  C   UNK N   1      -0.222  -1.366   0.092  0.00  0.00     0.168 A 
HETATM    3  N   UNK N   1      -0.695  -0.042  -0.244  0.00  0.00    -0.318 N 
HETATM    4  C   UNK N   1       0.398   0.855  -0.634  0.00  0.00     0.146 A 
HETATM    5  C   UNK N   1       1.593  -0.043  -0.517  0.00  0.00     0.013 A 
HETATM    6  C   UNK N   1      -2.034   0.298  -0.324  0.00  0.00     0.320 C 
HETATM    7  N   UNK N   1      -3.056  -0.580  -0.019  0.00  0.00    -0.343 N 
HETATM    8  C   UNK N   1      -2.855  -1.937   0.424  0.00  0.00     0.154 C 
HETATM    9  C   UNK N   1      -4.426  -0.146  -0.152  0.00  0.00     0.154 C 
HETATM   10  O   UNK N   1      -2.333   1.419  -0.706  0.00  0.00    -0.247 OA
ENDROOT
BRANCH   1  11
HETATM   11  C   UNK N   1       2.167  -2.418  -0.057  0.00  0.00     0.013 A 
HETATM   12  C   UNK N   1       1.625  -3.713  -0.048  0.00  0.00     0.057 A 
HETATM   13  C   UNK N   1       2.456  -4.834  -0.060  0.00  0.00     0.117 A 
HETATM   14  C   UNK N   1       3.843  -4.675  -0.061  0.00  0.00     0.045 A 
HETATM   15  F   UNK N   1       1.917  -6.076  -0.095  0.00  0.00    -0.206 F 
HETATM   16  C   UNK N   1       4.398  -3.393  -0.050  0.00  0.00     0.046 A 
HETATM   17  C   UNK N   1       3.571  -2.265  -0.058  0.00  0.00     0.127 A 
HETATM   18  F   UNK N   1       4.142  -1.034  -0.053  0.00  0.00    -0.205 F 
ENDBRANCH   1  11
BRANCH   4  19
HETATM   19  C   UNK N   1       0.554   2.141   0.177  0.00  0.00    -0.032 A 
HETATM   20  C   UNK N   1      -0.412   3.154   0.081  0.00  0.00     0.009 A 
HETATM   21  C   UNK N   1      -0.231   4.383   0.721  0.00  0.00     0.001 A 
HETATM   22  C   UNK N   1       0.931   4.622   1.457  0.00  0.00     0.000 A 
HETATM   23  C   UNK N   1       1.906   3.628   1.560  0.00  0.00     0.001 A 
HETATM   24  C   UNK N   1       1.723   2.398   0.919  0.00  0.00     0.009 A 
ENDBRANCH   4  19
TORSDOF 2
