MODEL 1
REMARK VINA RESULT:      -6.8      0.000      0.000
REMARK  4 active torsions:
REMARK  status: ('A' for Active; 'I' for Inactive)
REMARK       I    between atoms: N_1  and  C_2 
REMARK    1  A    between atoms: C_9  and  C_10 
REMARK    2  A    between atoms: C_16  and  O_17 
REMARK    3  A    between atoms: O_17  and  C_18 
REMARK    4  A    between atoms: C_18  and  C_19 
ROOT
HETATM    1  N   UNK N   1      20.316  20.935   0.617  0.00  0.00    -0.234 N 
HETATM    2  C   UNK N   1      20.994  20.312   1.683  0.00  0.00     0.679 A 
HETATM    3  N   UNK N   1      22.254  20.741   2.038  0.00  0.00    -0.168 N 
ATOM      4  HN  UNK N   1      22.697  21.498   1.516  1.00  0.00     0.186 HD
HETATM    5  N   UNK N   1      20.387  19.291   2.371  0.00  0.00    -0.174 N 
ATOM      6  HN  UNK N   1      19.454  18.967   2.116  1.00  0.00     0.186 HD
HETATM    7  C   UNK N   1      21.064  18.726   3.399  0.00  0.00     0.153 A 
HETATM    8  N   UNK N   1      20.650  17.737   4.205  0.00  0.00    -0.329 N 
HETATM    9  C   UNK N   1      21.700  17.567   5.058  0.00  0.00     0.086 A 
HETATM   10  C   UNK N   1      22.291  19.136   3.761  0.00  0.00     0.131 A 
HETATM   11  N   UNK N   1      22.723  18.427   4.809  0.00  0.00    -0.339 N 
ATOM     12  HN  UNK N   1      23.611  18.511   5.305  1.00  0.00     0.167 HD
HETATM   13  C   UNK N   1      22.920  20.159   3.085  0.00  0.00     0.188 A 
HETATM   14  H   UNK N   1      20.757  21.650   0.102  0.00  0.00     0.174 HD
HETATM   15  H   UNK N   1      19.401  20.656   0.386  0.00  0.00     0.174 HD
HETATM   16  H   UNK N   1      19.795  17.251   4.186  0.00  0.00     0.168 HD
ENDROOT
BRANCH  13  17
HETATM   17  O   UNK N   1      24.142  20.558   3.483  0.00  0.00    -0.333 OA
BRANCH  17  18
HETATM   18  C   UNK N   1      25.304  20.402   2.769  0.00  0.00     0.182 C 
BRANCH  18  19
HETATM   19  C   UNK N   1      26.461  20.369   3.761  0.00  0.00     0.010 C 
HETATM   20  C   UNK N   1      27.064  18.971   3.855  0.00  0.00     0.007 C 
HETATM   21  C   UNK N   1      28.250  18.981   4.822  0.00  0.00     0.000 C 
HETATM   22  C   UNK N   1      27.824  19.486   6.201  0.00  0.00     0.000 C 
HETATM   23  C   UNK N   1      27.209  20.876   6.093  0.00  0.00     0.000 C 
HETATM   24  C   UNK N   1      26.013  20.833   5.151  0.00  0.00     0.007 C 
ENDBRANCH  18  19
ENDBRANCH  17  18
ENDBRANCH  13  17
BRANCH   9  25
HETATM   25  C   UNK N   1      21.695  16.614   6.219  0.00  0.00     0.045 C 
HETATM   26  C   UNK N   1      20.703  17.029   7.287  0.00  0.00     0.017 C 
HETATM   27  C   UNK N   1      21.397  15.192   5.772  0.00  0.00     0.017 C 
ENDBRANCH   9  25
TORSDOF 4
ENDMDL
MODEL 2
REMARK VINA RESULT:      -6.5     13.185     16.282
REMARK  4 active torsions:
REMARK  status: ('A' for Active; 'I' for Inactive)
REMARK       I    between atoms: N_1  and  C_2 
REMARK    1  A    between atoms: C_9  and  C_10 
REMARK    2  A    between atoms: C_16  and  O_17 
REMARK    3  A    between atoms: O_17  and  C_18 
REMARK    4  A    between atoms: C_18  and  C_19 
ROOT
HETATM    1  N   UNK N   1      39.039  13.131  10.782  0.00  0.00    -0.234 N 
HETATM    2  C   UNK N   1      37.672  13.466  10.849  0.00  0.00     0.679 A 
HETATM    3  N   UNK N   1      36.965  13.236  12.008  0.00  0.00    -0.168 N 
ATOM      4  HN  UNK N   1      37.432  12.809  12.809  1.00  0.00     0.186 HD
HETATM    5  N   UNK N   1      37.058  14.034   9.761  0.00  0.00    -0.174 N 
ATOM      6  HN  UNK N   1      37.572  14.209   8.898  1.00  0.00     0.186 HD
HETATM    7  C   UNK N   1      35.746  14.356   9.867  0.00  0.00     0.153 A 
HETATM    8  N   UNK N   1      34.967  14.930   8.938  0.00  0.00    -0.329 N 
HETATM    9  C   UNK N   1      33.759  15.035   9.562  0.00  0.00     0.086 A 
HETATM   10  C   UNK N   1      35.044  14.142  10.993  0.00  0.00     0.131 A 
HETATM   11  N   UNK N   1      33.784  14.563  10.837  0.00  0.00    -0.339 N 
ATOM     12  HN  UNK N   1      33.022  14.536  11.514  1.00  0.00     0.167 HD
HETATM   13  C   UNK N   1      35.641  13.573  12.097  0.00  0.00     0.188 A 
HETATM   14  H   UNK N   1      39.479  12.699  11.550  0.00  0.00     0.174 HD
HETATM   15  H   UNK N   1      39.554  13.329   9.967  0.00  0.00     0.174 HD
HETATM   16  H   UNK N   1      35.208  15.209   8.026  0.00  0.00     0.168 HD
ENDROOT
BRANCH  13  17
HETATM   17  O   UNK N   1      34.914  13.388  13.215  0.00  0.00    -0.333 OA
BRANCH  17  18
HETATM   18  C   UNK N   1      34.637  12.175  13.795  0.00  0.00     0.182 C 
BRANCH  18  19
HETATM   19  C   UNK N   1      35.269  12.166  15.183  0.00  0.00     0.010 C 
HETATM   20  C   UNK N   1      35.320  10.753  15.754  0.00  0.00     0.007 C 
HETATM   21  C   UNK N   1      36.000  10.771  17.125  0.00  0.00     0.000 C 
HETATM   22  C   UNK N   1      35.273  11.719  18.080  0.00  0.00     0.000 C 
HETATM   23  C   UNK N   1      35.215  13.125  17.492  0.00  0.00     0.000 C 
HETATM   24  C   UNK N   1      34.507  13.084  16.145  0.00  0.00     0.007 C 
ENDBRANCH  18  19
ENDBRANCH  17  18
ENDBRANCH  13  17
BRANCH   9  25
HETATM   25  C   UNK N   1      32.555  15.699   8.958  0.00  0.00     0.045 C 
HETATM   26  C   UNK N   1      32.811  17.161   8.649  0.00  0.00     0.017 C 
HETATM   27  C   UNK N   1      32.098  14.984   7.697  0.00  0.00     0.017 C 
ENDBRANCH   9  25
TORSDOF 4
ENDMDL
MODEL 3
REMARK VINA RESULT:      -6.4     10.612     12.593
REMARK  4 active torsions:
REMARK  status: ('A' for Active; 'I' for Inactive)
REMARK       I    between atoms: N_1  and  C_2 
REMARK    1  A    between atoms: C_9  and  C_10 
REMARK    2  A    between atoms: C_16  and  O_17 
REMARK    3  A    between atoms: O_17  and  C_18 
REMARK    4  A    between atoms: C_18  and  C_19 
ROOT
HETATM    1  N   UNK N   1      25.556  22.297  -8.613  0.00  0.00    -0.234 N 
HETATM    2  C   UNK N   1      26.156  22.937  -7.511  0.00  0.00     0.679 A 
HETATM    3  N   UNK N   1      25.500  23.970  -6.877  0.00  0.00    -0.168 N 
ATOM      4  HN  UNK N   1      24.589  24.276  -7.220  1.00  0.00     0.186 HD
HETATM    5  N   UNK N   1      27.384  22.516  -7.066  0.00  0.00    -0.174 N 
ATOM      6  HN  UNK N   1      27.877  21.753  -7.528  1.00  0.00     0.186 HD
HETATM    7  C   UNK N   1      27.922  23.146  -5.994  0.00  0.00     0.153 A 
HETATM    8  N   UNK N   1      29.092  22.882  -5.393  0.00  0.00    -0.329 N 
HETATM    9  C   UNK N   1      29.137  23.792  -4.379  0.00  0.00     0.086 A 
HETATM   10  C   UNK N   1      27.293  24.151  -5.362  0.00  0.00     0.131 A 
HETATM   11  N   UNK N   1      28.032  24.582  -4.333  0.00  0.00    -0.339 N 
ATOM     12  HN  UNK N   1      27.816  25.327  -3.671  1.00  0.00     0.167 HD
HETATM   13  C   UNK N   1      26.060  24.590  -5.791  0.00  0.00     0.188 A 
HETATM   14  H   UNK N   1      24.687  22.612  -8.954  0.00  0.00     0.174 HD
HETATM   15  H   UNK N   1      26.006  21.535  -9.044  0.00  0.00     0.174 HD
HETATM   16  H   UNK N   1      29.759  22.197  -5.628  0.00  0.00     0.168 HD
ENDROOT
BRANCH  13  17
HETATM   17  O   UNK N   1      25.448  25.588  -5.126  0.00  0.00    -0.333 OA
BRANCH  17  18
HETATM   18  C   UNK N   1      24.850  26.681  -5.702  0.00  0.00     0.182 C 
BRANCH  18  19
HETATM   19  C   UNK N   1      25.615  27.922  -5.253  0.00  0.00     0.010 C 
HETATM   20  C   UNK N   1      26.932  28.058  -6.010  0.00  0.00     0.007 C 
HETATM   21  C   UNK N   1      27.652  29.335  -5.572  0.00  0.00     0.000 C 
HETATM   22  C   UNK N   1      27.889  29.335  -4.061  0.00  0.00     0.000 C 
HETATM   23  C   UNK N   1      26.568  29.183  -3.315  0.00  0.00     0.000 C 
HETATM   24  C   UNK N   1      25.887  27.891  -3.745  0.00  0.00     0.007 C 
ENDBRANCH  18  19
ENDBRANCH  17  18
ENDBRANCH  13  17
BRANCH   9  25
HETATM   25  C   UNK N   1      30.229  23.852  -3.350  0.00  0.00     0.045 C 
HETATM   26  C   UNK N   1      29.939  22.953  -2.164  0.00  0.00     0.017 C 
HETATM   27  C   UNK N   1      31.579  23.486  -3.948  0.00  0.00     0.017 C 
ENDBRANCH   9  25
TORSDOF 4
ENDMDL
MODEL 4
REMARK VINA RESULT:      -6.3      7.350     10.882
REMARK  4 active torsions:
REMARK  status: ('A' for Active; 'I' for Inactive)
REMARK       I    between atoms: N_1  and  C_2 
REMARK    1  A    between atoms: C_9  and  C_10 
REMARK    2  A    between atoms: C_16  and  O_17 
REMARK    3  A    between atoms: O_17  and  C_18 
REMARK    4  A    between atoms: C_18  and  C_19 
ROOT
HETATM    1  N   UNK N   1      34.701  16.938  10.402  0.00  0.00    -0.234 N 
HETATM    2  C   UNK N   1      33.986  16.758   9.202  0.00  0.00     0.679 A 
HETATM    3  N   UNK N   1      32.609  16.728   9.221  0.00  0.00    -0.168 N 
ATOM      4  HN  UNK N   1      32.114  16.820  10.108  1.00  0.00     0.186 HD
HETATM    5  N   UNK N   1      34.668  16.631   8.018  0.00  0.00    -0.174 N 
ATOM      6  HN  UNK N   1      35.687  16.652   7.993  1.00  0.00     0.186 HD
HETATM    7  C   UNK N   1      33.946  16.474   6.882  0.00  0.00     0.153 A 
HETATM    8  N   UNK N   1      34.410  16.350   5.629  0.00  0.00    -0.329 N 
HETATM    9  C   UNK N   1      33.275  16.232   4.884  0.00  0.00     0.086 A 
HETATM   10  C   UNK N   1      32.604  16.447   6.883  0.00  0.00     0.131 A 
HETATM   11  N   UNK N   1      32.144  16.298   5.636  0.00  0.00    -0.339 N 
ATOM     12  HN  UNK N   1      31.175  16.247   5.323  1.00  0.00     0.167 HD
HETATM   13  C   UNK N   1      31.898  16.574   8.060  0.00  0.00     0.188 A 
HETATM   14  H   UNK N   1      34.218  17.004  11.259  0.00  0.00     0.174 HD
HETATM   15  H   UNK N   1      35.683  16.998  10.386  0.00  0.00     0.174 HD
HETATM   16  H   UNK N   1      35.345  16.344   5.322  0.00  0.00     0.168 HD
ENDROOT
BRANCH  13  17
HETATM   17  O   UNK N   1      30.553  16.559   8.026  0.00  0.00    -0.333 OA
BRANCH  17  18
HETATM   18  C   UNK N   1      29.731  17.524   8.554  0.00  0.00     0.182 C 
BRANCH  18  19
HETATM   19  C   UNK N   1      29.236  18.395   7.404  0.00  0.00     0.010 C 
HETATM   20  C   UNK N   1      28.032  19.230   7.827  0.00  0.00     0.007 C 
HETATM   21  C   UNK N   1      27.589  20.127   6.669  0.00  0.00     0.000 C 
HETATM   22  C   UNK N   1      27.266  19.293   5.428  0.00  0.00     0.000 C 
HETATM   23  C   UNK N   1      28.471  18.451   5.024  0.00  0.00     0.000 C 
HETATM   24  C   UNK N   1      28.872  17.547   6.181  0.00  0.00     0.007 C 
ENDBRANCH  18  19
ENDBRANCH  17  18
ENDBRANCH  13  17
BRANCH   9  25
HETATM   25  C   UNK N   1      33.257  16.150   3.384  0.00  0.00     0.045 C 
HETATM   26  C   UNK N   1      33.216  14.715   2.896  0.00  0.00     0.017 C 
HETATM   27  C   UNK N   1      32.087  16.922   2.797  0.00  0.00     0.017 C 
ENDBRANCH   9  25
TORSDOF 4
ENDMDL
MODEL 5
REMARK VINA RESULT:      -6.3      8.478     11.184
REMARK  4 active torsions:
REMARK  status: ('A' for Active; 'I' for Inactive)
REMARK       I    between atoms: N_1  and  C_2 
REMARK    1  A    between atoms: C_9  and  C_10 
REMARK    2  A    between atoms: C_16  and  O_17 
REMARK    3  A    between atoms: O_17  and  C_18 
REMARK    4  A    between atoms: C_18  and  C_19 
ROOT
HETATM    1  N   UNK N   1      34.326  13.531  10.892  0.00  0.00    -0.234 N 
HETATM    2  C   UNK N   1      33.740  14.543  10.107  0.00  0.00     0.679 A 
HETATM    3  N   UNK N   1      34.445  15.092   9.058  0.00  0.00    -0.168 N 
ATOM      4  HN  UNK N   1      35.395  14.773   8.866  1.00  0.00     0.186 HD
HETATM    5  N   UNK N   1      32.463  14.964  10.382  0.00  0.00    -0.174 N 
ATOM      6  HN  UNK N   1      31.933  14.564  11.156  1.00  0.00     0.186 HD
HETATM    7  C   UNK N   1      31.928  15.930   9.596  0.00  0.00     0.153 A 
HETATM    8  N   UNK N   1      30.702  16.467   9.681  0.00  0.00    -0.329 N 
HETATM    9  C   UNK N   1      30.683  17.369   8.659  0.00  0.00     0.086 A 
HETATM   10  C   UNK N   1      32.601  16.471   8.568  0.00  0.00     0.131 A 
HETATM   11  N   UNK N   1      31.842  17.383   7.950  0.00  0.00    -0.339 N 
ATOM     12  HN  UNK N   1      32.078  17.955   7.139  1.00  0.00     0.167 HD
HETATM   13  C   UNK N   1      33.884  16.063   8.272  0.00  0.00     0.188 A 
HETATM   14  H   UNK N   1      35.251  13.243  10.716  0.00  0.00     0.174 HD
HETATM   15  H   UNK N   1      33.810  13.111  11.618  0.00  0.00     0.174 HD
HETATM   16  H   UNK N   1      29.988  16.260  10.327  0.00  0.00     0.168 HD
ENDROOT
BRANCH  13  17
HETATM   17  O   UNK N   1      34.525  16.614   7.224  0.00  0.00    -0.333 OA
BRANCH  17  18
HETATM   18  C   UNK N   1      34.786  15.989   6.030  0.00  0.00     0.182 C 
BRANCH  18  19
HETATM   19  C   UNK N   1      33.543  16.115   5.156  0.00  0.00     0.010 C 
HETATM   20  C   UNK N   1      33.702  15.326   3.861  0.00  0.00     0.007 C 
HETATM   21  C   UNK N   1      32.423  15.433   3.028  0.00  0.00     0.000 C 
HETATM   22  C   UNK N   1      32.084  16.895   2.737  0.00  0.00     0.000 C 
HETATM   23  C   UNK N   1      31.943  17.678   4.038  0.00  0.00     0.000 C 
HETATM   24  C   UNK N   1      33.238  17.581   4.833  0.00  0.00     0.007 C 
ENDBRANCH  18  19
ENDBRANCH  17  18
ENDBRANCH  13  17
BRANCH   9  25
HETATM   25  C   UNK N   1      29.479  18.182   8.278  0.00  0.00     0.045 C 
HETATM   26  C   UNK N   1      29.042  17.913   6.852  0.00  0.00     0.017 C 
HETATM   27  C   UNK N   1      28.315  17.932   9.224  0.00  0.00     0.017 C 
ENDBRANCH   9  25
TORSDOF 4
ENDMDL
MODEL 6
REMARK VINA RESULT:      -6.2      1.705      5.731
REMARK  4 active torsions:
REMARK  status: ('A' for Active; 'I' for Inactive)
REMARK       I    between atoms: N_1  and  C_2 
REMARK    1  A    between atoms: C_9  and  C_10 
REMARK    2  A    between atoms: C_16  and  O_17 
REMARK    3  A    between atoms: O_17  and  C_18 
REMARK    4  A    between atoms: C_18  and  C_19 
ROOT
HETATM    1  N   UNK N   1      19.987  20.177   1.683  0.00  0.00    -0.234 N 
HETATM    2  C   UNK N   1      21.111  19.871   2.474  0.00  0.00     0.679 A 
HETATM    3  N   UNK N   1      21.009  18.930   3.475  0.00  0.00    -0.168 N 
ATOM      4  HN  UNK N   1      20.114  18.472   3.649  1.00  0.00     0.186 HD
HETATM    5  N   UNK N   1      22.306  20.500   2.231  0.00  0.00    -0.174 N 
ATOM      6  HN  UNK N   1      22.392  21.197   1.492  1.00  0.00     0.186 HD
HETATM    7  C   UNK N   1      23.369  20.169   3.003  0.00  0.00     0.153 A 
HETATM    8  N   UNK N   1      24.619  20.647   2.922  0.00  0.00    -0.329 N 
HETATM    9  C   UNK N   1      25.276  19.978   3.912  0.00  0.00     0.086 A 
HETATM   10  C   UNK N   1      23.286  19.251   3.980  0.00  0.00     0.131 A 
HETATM   11  N   UNK N   1      24.476  19.102   4.574  0.00  0.00    -0.339 N 
ATOM     12  HN  UNK N   1      24.723  18.478   5.343  1.00  0.00     0.167 HD
HETATM   13  C   UNK N   1      22.097  18.605   4.242  0.00  0.00     0.188 A 
HETATM   14  H   UNK N   1      19.120  19.748   1.869  0.00  0.00     0.174 HD
HETATM   15  H   UNK N   1      20.067  20.821   0.943  0.00  0.00     0.174 HD
HETATM   16  H   UNK N   1      24.977  21.320   2.299  0.00  0.00     0.168 HD
ENDROOT
BRANCH  13  17
HETATM   17  O   UNK N   1      22.052  17.678   5.216  0.00  0.00    -0.333 OA
BRANCH  17  18
HETATM   18  C   UNK N   1      21.392  17.810   6.413  0.00  0.00     0.182 C 
BRANCH  18  19
HETATM   19  C   UNK N   1      21.127  16.410   6.956  0.00  0.00     0.010 C 
HETATM   20  C   UNK N   1      20.607  16.466   8.389  0.00  0.00     0.007 C 
HETATM   21  C   UNK N   1      20.307  15.052   8.889  0.00  0.00     0.000 C 
HETATM   22  C   UNK N   1      21.551  14.166   8.795  0.00  0.00     0.000 C 
HETATM   23  C   UNK N   1      22.071  14.129   7.362  0.00  0.00     0.000 C 
HETATM   24  C   UNK N   1      22.391  15.544   6.900  0.00  0.00     0.007 C 
ENDBRANCH  18  19
ENDBRANCH  17  18
ENDBRANCH  13  17
BRANCH   9  25
HETATM   25  C   UNK N   1      26.749  20.104   4.178  0.00  0.00     0.045 C 
HETATM   26  C   UNK N   1      27.033  20.946   5.405  0.00  0.00     0.017 C 
HETATM   27  C   UNK N   1      27.406  18.742   4.331  0.00  0.00     0.017 C 
ENDBRANCH   9  25
TORSDOF 4
ENDMDL
MODEL 7
REMARK VINA RESULT:      -6.2     15.069     17.331
REMARK  4 active torsions:
REMARK  status: ('A' for Active; 'I' for Inactive)
REMARK       I    between atoms: N_1  and  C_2 
REMARK    1  A    between atoms: C_9  and  C_10 
REMARK    2  A    between atoms: C_16  and  O_17 
REMARK    3  A    between atoms: O_17  and  C_18 
REMARK    4  A    between atoms: C_18  and  C_19 
ROOT
HETATM    1  N   UNK N   1      38.903  13.644  10.608  0.00  0.00    -0.234 N 
HETATM    2  C   UNK N   1      37.705  13.044  11.044  0.00  0.00     0.679 A 
HETATM    3  N   UNK N   1      37.087  13.499  12.188  0.00  0.00    -0.168 N 
ATOM      4  HN  UNK N   1      37.510  14.257  12.724  1.00  0.00     0.186 HD
HETATM    5  N   UNK N   1      37.154  12.021  10.315  0.00  0.00    -0.174 N 
ATOM      6  HN  UNK N   1      37.603  11.678   9.466  1.00  0.00     0.186 HD
HETATM    7  C   UNK N   1      35.993  11.478  10.757  0.00  0.00     0.153 A 
HETATM    8  N   UNK N   1      35.285  10.491  10.190  0.00  0.00    -0.329 N 
HETATM    9  C   UNK N   1      34.219  10.347  11.028  0.00  0.00     0.086 A 
HETATM   10  C   UNK N   1      35.376  11.913  11.868  0.00  0.00     0.131 A 
HETATM   11  N   UNK N   1      34.249  11.222  12.069  0.00  0.00    -0.339 N 
ATOM     12  HN  UNK N   1      33.571  11.327  12.824  1.00  0.00     0.167 HD
HETATM   13  C   UNK N   1      35.912  12.939  12.615  0.00  0.00     0.188 A 
HETATM   14  H   UNK N   1      39.318  14.362  11.141  0.00  0.00     0.174 HD
HETATM   15  H   UNK N   1      39.326  13.347   9.771  0.00  0.00     0.174 HD
HETATM   16  H   UNK N   1      35.485   9.989   9.367  0.00  0.00     0.168 HD
ENDROOT
BRANCH  13  17
HETATM   17  O   UNK N   1      35.260  13.363  13.714  0.00  0.00    -0.333 OA
BRANCH  17  18
HETATM   18  C   UNK N   1      35.850  13.835  14.860  0.00  0.00     0.182 C 
BRANCH  18  19
HETATM   19  C   UNK N   1      35.309  13.024  16.032  0.00  0.00     0.010 C 
HETATM   20  C   UNK N   1      35.578  13.729  17.358  0.00  0.00     0.007 C 
HETATM   21  C   UNK N   1      34.983  12.915  18.509  0.00  0.00     0.000 C 
HETATM   22  C   UNK N   1      35.551  11.495  18.521  0.00  0.00     0.000 C 
HETATM   23  C   UNK N   1      35.290  10.805  17.186  0.00  0.00     0.000 C 
HETATM   24  C   UNK N   1      35.918  11.618  16.062  0.00  0.00     0.007 C 
ENDBRANCH  18  19
ENDBRANCH  17  18
ENDBRANCH  13  17
BRANCH   9  25
HETATM   25  C   UNK N   1      33.075   9.407  10.781  0.00  0.00     0.045 C 
HETATM   26  C   UNK N   1      32.334   9.742   9.502  0.00  0.00     0.017 C 
HETATM   27  C   UNK N   1      33.541   7.960  10.736  0.00  0.00     0.017 C 
ENDBRANCH   9  25
TORSDOF 4
ENDMDL
MODEL 8
REMARK VINA RESULT:      -6.1     12.345     15.519
REMARK  4 active torsions:
REMARK  status: ('A' for Active; 'I' for Inactive)
REMARK       I    between atoms: N_1  and  C_2 
REMARK    1  A    between atoms: C_9  and  C_10 
REMARK    2  A    between atoms: C_16  and  O_17 
REMARK    3  A    between atoms: O_17  and  C_18 
REMARK    4  A    between atoms: C_18  and  C_19 
ROOT
HETATM    1  N   UNK N   1      39.027  13.660   9.018  0.00  0.00    -0.234 N 
HETATM    2  C   UNK N   1      38.034  13.807  10.006  0.00  0.00     0.679 A 
HETATM    3  N   UNK N   1      36.958  14.636   9.780  0.00  0.00    -0.168 N 
ATOM      4  HN  UNK N   1      36.894  15.154   8.902  1.00  0.00     0.186 HD
HETATM    5  N   UNK N   1      38.138  13.108  11.183  0.00  0.00    -0.174 N 
ATOM      6  HN  UNK N   1      38.930  12.491  11.360  1.00  0.00     0.186 HD
HETATM    7  C   UNK N   1      37.157  13.263  12.104  0.00  0.00     0.153 A 
HETATM    8  N   UNK N   1      37.057  12.666  13.301  0.00  0.00    -0.329 N 
HETATM    9  C   UNK N   1      35.892  13.164  13.804  0.00  0.00     0.086 A 
HETATM   10  C   UNK N   1      36.099  14.065  11.896  0.00  0.00     0.131 A 
HETATM   11  N   UNK N   1      35.276  14.024  12.950  0.00  0.00    -0.339 N 
ATOM     12  HN  UNK N   1      34.395  14.521  13.082  1.00  0.00     0.167 HD
HETATM   13  C   UNK N   1      35.974  14.775  10.722  0.00  0.00     0.188 A 
HETATM   14  H   UNK N   1      38.972  14.179   8.182  0.00  0.00     0.174 HD
HETATM   15  H   UNK N   1      39.777  13.039   9.162  0.00  0.00     0.174 HD
HETATM   16  H   UNK N   1      37.675  12.023  13.716  0.00  0.00     0.168 HD
ENDROOT
BRANCH  13  17
HETATM   17  O   UNK N   1      34.893  15.557  10.538  0.00  0.00    -0.333 OA
BRANCH  17  18
HETATM   18  C   UNK N   1      34.883  16.762   9.881  0.00  0.00     0.182 C 
BRANCH  18  19
HETATM   19  C   UNK N   1      34.173  16.560   8.546  0.00  0.00     0.010 C 
HETATM   20  C   UNK N   1      34.208  17.833   7.708  0.00  0.00     0.007 C 
HETATM   21  C   UNK N   1      33.531  17.585   6.358  0.00  0.00     0.000 C 
HETATM   22  C   UNK N   1      32.094  17.099   6.552  0.00  0.00     0.000 C 
HETATM   23  C   UNK N   1      32.069  15.835   7.404  0.00  0.00     0.000 C 
HETATM   24  C   UNK N   1      32.720  16.117   8.752  0.00  0.00     0.007 C 
ENDBRANCH  18  19
ENDBRANCH  17  18
ENDBRANCH  13  17
BRANCH   9  25
HETATM   25  C   UNK N   1      35.287  12.732  15.109  0.00  0.00     0.045 C 
HETATM   26  C   UNK N   1      35.455  11.244  15.346  0.00  0.00     0.017 C 
HETATM   27  C   UNK N   1      35.876  13.504  16.279  0.00  0.00     0.017 C 
ENDBRANCH   9  25
TORSDOF 4
ENDMDL
MODEL 9
REMARK VINA RESULT:      -6.1      4.614      6.804
REMARK  4 active torsions:
REMARK  status: ('A' for Active; 'I' for Inactive)
REMARK       I    between atoms: N_1  and  C_2 
REMARK    1  A    between atoms: C_9  and  C_10 
REMARK    2  A    between atoms: C_16  and  O_17 
REMARK    3  A    between atoms: O_17  and  C_18 
REMARK    4  A    between atoms: C_18  and  C_19 
ROOT
HETATM    1  N   UNK N   1      17.858  17.563   8.938  0.00  0.00    -0.234 N 
HETATM    2  C   UNK N   1      19.001  16.777   8.695  0.00  0.00     0.679 A 
HETATM    3  N   UNK N   1      19.864  17.116   7.677  0.00  0.00    -0.168 N 
ATOM      4  HN  UNK N   1      19.662  17.928   7.092  1.00  0.00     0.186 HD
HETATM    5  N   UNK N   1      19.255  15.685   9.487  0.00  0.00    -0.174 N 
ATOM      6  HN  UNK N   1      18.623  15.426  10.244  1.00  0.00     0.186 HD
HETATM    7  C   UNK N   1      20.372  14.961   9.234  0.00  0.00     0.153 A 
HETATM    8  N   UNK N   1      20.812  13.878   9.892  0.00  0.00    -0.329 N 
HETATM    9  C   UNK N   1      21.965  13.560   9.239  0.00  0.00     0.086 A 
HETATM   10  C   UNK N   1      21.226  15.282   8.248  0.00  0.00     0.131 A 
HETATM   11  N   UNK N   1      22.248  14.419   8.224  0.00  0.00    -0.339 N 
ATOM     12  HN  UNK N   1      23.049  14.408   7.593  1.00  0.00     0.167 HD
HETATM   13  C   UNK N   1      20.991  16.374   7.441  0.00  0.00     0.188 A 
HETATM   14  H   UNK N   1      17.656  18.332   8.356  0.00  0.00     0.174 HD
HETATM   15  H   UNK N   1      17.260  17.344   9.688  0.00  0.00     0.174 HD
HETATM   16  H   UNK N   1      20.401  13.423  10.662  0.00  0.00     0.168 HD
ENDROOT
BRANCH  13  17
HETATM   17  O   UNK N   1      21.875  16.679   6.472  0.00  0.00    -0.333 OA
BRANCH  17  18
HETATM   18  C   UNK N   1      22.010  17.906   5.872  0.00  0.00     0.182 C 
BRANCH  18  19
HETATM   19  C   UNK N   1      21.052  17.955   4.688  0.00  0.00     0.010 C 
HETATM   20  C   UNK N   1      21.393  16.881   3.661  0.00  0.00     0.007 C 
HETATM   21  C   UNK N   1      20.387  16.925   2.509  0.00  0.00     0.000 C 
HETATM   22  C   UNK N   1      20.362  18.310   1.861  0.00  0.00     0.000 C 
HETATM   23  C   UNK N   1      20.035  19.378   2.899  0.00  0.00     0.000 C 
HETATM   24  C   UNK N   1      21.067  19.333   4.018  0.00  0.00     0.007 C 
ENDBRANCH  18  19
ENDBRANCH  17  18
ENDBRANCH  13  17
BRANCH   9  25
HETATM   25  C   UNK N   1      22.890  12.452   9.656  0.00  0.00     0.045 C 
HETATM   26  C   UNK N   1      24.345  12.864   9.564  0.00  0.00     0.017 C 
HETATM   27  C   UNK N   1      22.584  11.972  11.066  0.00  0.00     0.017 C 
ENDBRANCH   9  25
TORSDOF 4
ENDMDL
