MODEL 1
REMARK VINA RESULT:      -7.9      0.000      0.000
REMARK  6 active torsions:
REMARK  status: ('A' for Active; 'I' for Inactive)
REMARK       I    between atoms: C_1  and  N_12 
REMARK    1  A    between atoms: C_3  and  C_4 
REMARK    2  A    between atoms: C_3  and  O_19 
REMARK    3  A    between atoms: C_11  and  S_29 
REMARK    4  A    between atoms: N_12  and  C_14 
REMARK    5  A    between atoms: N_15  and  S_29 
REMARK    6  A    between atoms: C_18  and  O_19 
ROOT
HETATM    1  C   UNK N   1      34.499  14.762  10.618  0.00  0.00     0.686 A 
HETATM    2  C   UNK N   1      38.642  13.265  10.366  0.00  0.00     0.182 A 
HETATM    3  N   UNK N   1      33.291  15.401  10.228  0.00  0.00    -0.192 N 
HETATM    4  N   UNK N   1      34.596  14.214  11.881  0.00  0.00    -0.168 N 
ATOM      5  HN  UNK N   1      33.796  14.257  12.514  1.00  0.00     0.186 HD
HETATM    6  C   UNK N   1      35.756  13.610  12.294  0.00  0.00     0.188 A 
HETATM    7  C   UNK N   1      36.810  13.568  11.408  0.00  0.00     0.130 A 
HETATM    8  N   UNK N   1      38.030  13.032  11.559  0.00  0.00    -0.346 N 
ATOM      9  HN  UNK N   1      38.411  12.559  12.377  1.00  0.00     0.167 HD
HETATM   10  N   UNK N   1      37.830  13.925   9.496  0.00  0.00    -0.336 N 
HETATM   11  C   UNK N   1      36.697  14.096  10.185  0.00  0.00     0.153 A 
HETATM   12  N   UNK N   1      35.565  14.700   9.760  0.00  0.00    -0.174 N 
ATOM     13  HN  UNK N   1      35.505  15.100   8.823  1.00  0.00     0.186 HD
HETATM   14  H   UNK N   1      32.566  15.432  10.893  0.00  0.00     0.184 HD
HETATM   15  H   UNK N   1      38.031  14.212   8.575  0.00  0.00     0.168 HD
ENDROOT
BRANCH   3  16
HETATM   16  C   UNK N   1      33.032  16.001   8.962  0.00  0.00     0.050 A 
HETATM   17  C   UNK N   1      32.303  15.274   8.022  0.00  0.00     0.055 A 
HETATM   18  C   UNK N   1      32.003  15.820   6.774  0.00  0.00     0.081 A 
HETATM   19  C   UNK N   1      32.412  17.121   6.460  0.00  0.00     0.025 A 
HETATM   20  C   UNK N   1      33.152  17.857   7.389  0.00  0.00     0.004 A 
HETATM   21  C   UNK N   1      33.452  17.305   8.640  0.00  0.00     0.030 A 
BRANCH  18  22
HETATM   22  S   UNK N   1      30.849  14.959   5.724  0.00  0.00     0.256 S 
HETATM   23  O   UNK N   1      29.458  15.579   5.513  0.00  0.00    -0.201 OA
HETATM   24  O   UNK N   1      31.434  15.432   4.396  0.00  0.00    -0.201 OA
BRANCH  22  25
HETATM   25  N   UNK N   1      30.804  13.240   5.325  0.00  0.00    -0.324 N 
HETATM   26  H   UNK N   1      30.588  12.906   4.386  0.00  0.00     0.169 HD
HETATM   27  H   UNK N   1      30.999  12.557   6.058  0.00  0.00     0.169 HD
ENDBRANCH  22  25
ENDBRANCH  18  22
ENDBRANCH   3  16
BRANCH   6  28
HETATM   28  O   UNK N   1      35.898  13.056  13.513  0.00  0.00    -0.333 OA
BRANCH  28  29
HETATM   29  C   UNK N   1      36.245  13.723  14.663  0.00  0.00     0.182 C 
BRANCH  29  30
HETATM   30  C   UNK N   1      35.550  13.026  15.831  0.00  0.00     0.010 C 
HETATM   31  C   UNK N   1      36.045  11.591  15.996  0.00  0.00     0.007 C 
HETATM   32  C   UNK N   1      35.300  10.914  17.148  0.00  0.00     0.000 C 
HETATM   33  C   UNK N   1      35.473  11.701  18.448  0.00  0.00     0.000 C 
HETATM   34  C   UNK N   1      34.993  13.137  18.268  0.00  0.00     0.000 C 
HETATM   35  C   UNK N   1      35.772  13.796  17.138  0.00  0.00     0.007 C 
ENDBRANCH  29  30
ENDBRANCH  28  29
ENDBRANCH   6  28
TORSDOF 6
ENDMDL
MODEL 2
REMARK VINA RESULT:      -7.8      2.907      4.011
REMARK  6 active torsions:
REMARK  status: ('A' for Active; 'I' for Inactive)
REMARK       I    between atoms: C_1  and  N_12 
REMARK    1  A    between atoms: C_3  and  C_4 
REMARK    2  A    between atoms: C_3  and  O_19 
REMARK    3  A    between atoms: C_11  and  S_29 
REMARK    4  A    between atoms: N_12  and  C_14 
REMARK    5  A    between atoms: N_15  and  S_29 
REMARK    6  A    between atoms: C_18  and  O_19 
ROOT
HETATM    1  C   UNK N   1      34.945  13.038  12.265  0.00  0.00     0.686 A 
HETATM    2  C   UNK N   1      37.167  14.961  15.556  0.00  0.00     0.182 A 
HETATM    3  N   UNK N   1      34.464  12.796  10.949  0.00  0.00    -0.192 N 
HETATM    4  N   UNK N   1      34.512  12.236  13.300  0.00  0.00    -0.168 N 
ATOM      5  HN  UNK N   1      33.865  11.468  13.110  1.00  0.00     0.186 HD
HETATM    6  C   UNK N   1      34.941  12.459  14.584  0.00  0.00     0.188 A 
HETATM    7  C   UNK N   1      35.816  13.501  14.798  0.00  0.00     0.130 A 
HETATM    8  N   UNK N   1      36.387  13.914  15.939  0.00  0.00    -0.346 N 
ATOM      9  HN  UNK N   1      36.266  13.532  16.876  1.00  0.00     0.167 HD
HETATM   10  N   UNK N   1      37.087  15.196  14.218  0.00  0.00    -0.336 N 
HETATM   11  C   UNK N   1      36.233  14.263  13.782  0.00  0.00     0.153 A 
HETATM   12  N   UNK N   1      35.819  14.064  12.511  0.00  0.00    -0.174 N 
ATOM     13  HN  UNK N   1      36.148  14.663  11.754  1.00  0.00     0.186 HD
HETATM   14  H   UNK N   1      33.823  12.058  10.836  0.00  0.00     0.184 HD
HETATM   15  H   UNK N   1      37.548  15.891  13.693  0.00  0.00     0.168 HD
ENDROOT
BRANCH   3  16
HETATM   16  C   UNK N   1      34.824  13.525   9.778  0.00  0.00     0.050 A 
HETATM   17  C   UNK N   1      34.314  14.813   9.619  0.00  0.00     0.055 A 
HETATM   18  C   UNK N   1      34.649  15.579   8.503  0.00  0.00     0.081 A 
HETATM   19  C   UNK N   1      35.524  15.069   7.538  0.00  0.00     0.025 A 
HETATM   20  C   UNK N   1      36.034  13.775   7.680  0.00  0.00     0.004 A 
HETATM   21  C   UNK N   1      35.695  13.010   8.801  0.00  0.00     0.030 A 
BRANCH  18  22
HETATM   22  S   UNK N   1      34.189  17.301   8.484  0.00  0.00     0.256 S 
HETATM   23  O   UNK N   1      35.142  18.312   9.142  0.00  0.00    -0.201 OA
HETATM   24  O   UNK N   1      34.626  17.583   7.050  0.00  0.00    -0.201 OA
BRANCH  22  25
HETATM   25  N   UNK N   1      32.575  18.002   8.347  0.00  0.00    -0.324 N 
HETATM   26  H   UNK N   1      32.298  18.832   8.871  0.00  0.00     0.169 HD
HETATM   27  H   UNK N   1      31.897  17.563   7.723  0.00  0.00     0.169 HD
ENDBRANCH  22  25
ENDBRANCH  18  22
ENDBRANCH   3  16
BRANCH   6  28
HETATM   28  O   UNK N   1      34.552  11.701  15.627  0.00  0.00    -0.333 OA
BRANCH  28  29
HETATM   29  C   UNK N   1      35.105  10.499  15.998  0.00  0.00     0.182 C 
BRANCH  29  30
HETATM   30  C   UNK N   1      35.820  10.709  17.331  0.00  0.00     0.010 C 
HETATM   31  C   UNK N   1      34.994  11.581  18.273  0.00  0.00     0.007 C 
HETATM   32  C   UNK N   1      35.758  11.801  19.581  0.00  0.00     0.000 C 
HETATM   33  C   UNK N   1      36.106  10.466  20.241  0.00  0.00     0.000 C 
HETATM   34  C   UNK N   1      36.915   9.595  19.286  0.00  0.00     0.000 C 
HETATM   35  C   UNK N   1      36.120   9.367  18.008  0.00  0.00     0.007 C 
ENDBRANCH  29  30
ENDBRANCH  28  29
ENDBRANCH   6  28
TORSDOF 6
ENDMDL
MODEL 3
REMARK VINA RESULT:      -7.8      0.819      1.343
REMARK  6 active torsions:
REMARK  status: ('A' for Active; 'I' for Inactive)
REMARK       I    between atoms: C_1  and  N_12 
REMARK    1  A    between atoms: C_3  and  C_4 
REMARK    2  A    between atoms: C_3  and  O_19 
REMARK    3  A    between atoms: C_11  and  S_29 
REMARK    4  A    between atoms: N_12  and  C_14 
REMARK    5  A    between atoms: N_15  and  S_29 
REMARK    6  A    between atoms: C_18  and  O_19 
ROOT
HETATM    1  C   UNK N   1      34.539  14.879  10.510  0.00  0.00     0.686 A 
HETATM    2  C   UNK N   1      38.640  13.255  10.432  0.00  0.00     0.182 A 
HETATM    3  N   UNK N   1      33.365  15.547  10.066  0.00  0.00    -0.192 N 
HETATM    4  N   UNK N   1      34.574  14.352  11.785  0.00  0.00    -0.168 N 
ATOM      5  HN  UNK N   1      33.754  14.430  12.388  1.00  0.00     0.186 HD
HETATM    6  C   UNK N   1      35.700  13.721  12.249  0.00  0.00     0.188 A 
HETATM    7  C   UNK N   1      36.783  13.632  11.402  0.00  0.00     0.130 A 
HETATM    8  N   UNK N   1      37.980  13.061  11.606  0.00  0.00    -0.346 N 
ATOM      9  HN  UNK N   1      38.317  12.592  12.446  1.00  0.00     0.167 HD
HETATM   10  N   UNK N   1      37.881  13.923   9.523  0.00  0.00    -0.336 N 
HETATM   11  C   UNK N   1      36.729  14.141  10.167  0.00  0.00     0.153 A 
HETATM   12  N   UNK N   1      35.633  14.770   9.692  0.00  0.00    -0.174 N 
ATOM     13  HN  UNK N   1      35.618  15.155   8.747  1.00  0.00     0.186 HD
HETATM   14  H   UNK N   1      32.619  15.612  10.704  0.00  0.00     0.184 HD
HETATM   15  H   UNK N   1      38.123  14.187   8.605  0.00  0.00     0.168 HD
ENDROOT
BRANCH   3  16
HETATM   16  C   UNK N   1      33.170  16.132   8.781  0.00  0.00     0.050 A 
HETATM   17  C   UNK N   1      32.425  15.425   7.839  0.00  0.00     0.055 A 
HETATM   18  C   UNK N   1      32.185  15.959   6.573  0.00  0.00     0.081 A 
HETATM   19  C   UNK N   1      32.672  17.228   6.242  0.00  0.00     0.025 A 
HETATM   20  C   UNK N   1      33.430  17.944   7.173  0.00  0.00     0.004 A 
HETATM   21  C   UNK N   1      33.669  17.403   8.443  0.00  0.00     0.030 A 
BRANCH  18  22
HETATM   22  S   UNK N   1      31.011  15.138   5.513  0.00  0.00     0.256 S 
HETATM   23  O   UNK N   1      31.436  14.821   4.070  0.00  0.00    -0.201 OA
HETATM   24  O   UNK N   1      31.239  13.730   6.056  0.00  0.00    -0.201 OA
BRANCH  22  25
HETATM   25  N   UNK N   1      29.250  15.121   5.635  0.00  0.00    -0.324 N 
HETATM   26  H   UNK N   1      28.682  14.398   5.193  0.00  0.00     0.169 HD
HETATM   27  H   UNK N   1      28.784  15.858   6.165  0.00  0.00     0.169 HD
ENDBRANCH  22  25
ENDBRANCH  18  22
ENDBRANCH   3  16
BRANCH   6  28
HETATM   28  O   UNK N   1      35.782  13.185  13.482  0.00  0.00    -0.333 OA
BRANCH  28  29
HETATM   29  C   UNK N   1      36.109  13.861  14.632  0.00  0.00     0.182 C 
BRANCH  29  30
HETATM   30  C   UNK N   1      36.227  12.834  15.756  0.00  0.00     0.010 C 
HETATM   31  C   UNK N   1      35.082  12.971  16.756  0.00  0.00     0.007 C 
HETATM   32  C   UNK N   1      35.254  11.953  17.886  0.00  0.00     0.000 C 
HETATM   33  C   UNK N   1      35.325  10.529  17.333  0.00  0.00     0.000 C 
HETATM   34  C   UNK N   1      36.460  10.407  16.322  0.00  0.00     0.000 C 
HETATM   35  C   UNK N   1      36.247  11.407  15.195  0.00  0.00     0.007 C 
ENDBRANCH  29  30
ENDBRANCH  28  29
ENDBRANCH   6  28
TORSDOF 6
ENDMDL
MODEL 4
REMARK VINA RESULT:      -7.7      6.323      9.864
REMARK  6 active torsions:
REMARK  status: ('A' for Active; 'I' for Inactive)
REMARK       I    between atoms: C_1  and  N_12 
REMARK    1  A    between atoms: C_3  and  C_4 
REMARK    2  A    between atoms: C_3  and  O_19 
REMARK    3  A    between atoms: C_11  and  S_29 
REMARK    4  A    between atoms: N_12  and  C_14 
REMARK    5  A    between atoms: N_15  and  S_29 
REMARK    6  A    between atoms: C_18  and  O_19 
ROOT
HETATM    1  C   UNK N   1      27.917  17.868   5.180  0.00  0.00     0.686 A 
HETATM    2  C   UNK N   1      28.821  18.381   9.468  0.00  0.00     0.182 A 
HETATM    3  N   UNK N   1      27.213  17.968   3.949  0.00  0.00    -0.192 N 
HETATM    4  N   UNK N   1      29.109  17.174   5.222  0.00  0.00    -0.168 N 
ATOM      5  HN  UNK N   1      29.481  16.755   4.368  1.00  0.00     0.186 HD
HETATM    6  C   UNK N   1      29.800  17.042   6.400  0.00  0.00     0.188 A 
HETATM    7  C   UNK N   1      29.266  17.626   7.528  0.00  0.00     0.130 A 
HETATM    8  N   UNK N   1      29.744  17.654   8.780  0.00  0.00    -0.346 N 
ATOM      9  HN  UNK N   1      30.600  17.230   9.136  1.00  0.00     0.167 HD
HETATM   10  N   UNK N   1      27.799  18.795   8.670  0.00  0.00    -0.336 N 
HETATM   11  C   UNK N   1      28.114  18.303   7.468  0.00  0.00     0.153 A 
HETATM   12  N   UNK N   1      27.416  18.440   6.319  0.00  0.00    -0.174 N 
ATOM     13  HN  UNK N   1      26.536  18.957   6.300  1.00  0.00     0.186 HD
HETATM   14  H   UNK N   1      27.612  17.520   3.168  0.00  0.00     0.184 HD
HETATM   15  H   UNK N   1      27.011  19.330   8.920  0.00  0.00     0.168 HD
ENDROOT
BRANCH   3  16
HETATM   16  C   UNK N   1      25.983  18.656   3.740  0.00  0.00     0.050 A 
HETATM   17  C   UNK N   1      24.806  18.054   4.183  0.00  0.00     0.055 A 
HETATM   18  C   UNK N   1      23.575  18.691   4.024  0.00  0.00     0.081 A 
HETATM   19  C   UNK N   1      23.512  19.958   3.436  0.00  0.00     0.025 A 
HETATM   20  C   UNK N   1      24.683  20.569   2.978  0.00  0.00     0.004 A 
HETATM   21  C   UNK N   1      25.916  19.925   3.139  0.00  0.00     0.030 A 
BRANCH  18  22
HETATM   22  S   UNK N   1      22.150  18.004   4.843  0.00  0.00     0.256 S 
HETATM   23  O   UNK N   1      22.019  18.206   6.362  0.00  0.00    -0.201 OA
HETATM   24  O   UNK N   1      21.174  19.110   4.453  0.00  0.00    -0.201 OA
BRANCH  22  25
HETATM   25  N   UNK N   1      21.139  16.651   4.331  0.00  0.00    -0.324 N 
HETATM   26  H   UNK N   1      20.399  16.758   3.637  0.00  0.00     0.169 HD
HETATM   27  H   UNK N   1      21.299  15.730   4.742  0.00  0.00     0.169 HD
ENDBRANCH  22  25
ENDBRANCH  18  22
ENDBRANCH   3  16
BRANCH   6  28
HETATM   28  O   UNK N   1      30.969  16.379   6.492  0.00  0.00    -0.333 OA
BRANCH  28  29
HETATM   29  C   UNK N   1      32.088  16.617   5.732  0.00  0.00     0.182 C 
BRANCH  29  30
HETATM   30  C   UNK N   1      33.281  16.714   6.682  0.00  0.00     0.010 C 
HETATM   31  C   UNK N   1      33.296  18.050   7.420  0.00  0.00     0.007 C 
HETATM   32  C   UNK N   1      34.524  18.126   8.331  0.00  0.00     0.000 C 
HETATM   33  C   UNK N   1      34.544  16.959   9.319  0.00  0.00     0.000 C 
HETATM   34  C   UNK N   1      34.510  15.630   8.573  0.00  0.00     0.000 C 
HETATM   35  C   UNK N   1      33.264  15.568   7.700  0.00  0.00     0.007 C 
ENDBRANCH  29  30
ENDBRANCH  28  29
ENDBRANCH   6  28
TORSDOF 6
ENDMDL
MODEL 5
REMARK VINA RESULT:      -7.3      7.420     13.274
REMARK  6 active torsions:
REMARK  status: ('A' for Active; 'I' for Inactive)
REMARK       I    between atoms: C_1  and  N_12 
REMARK    1  A    between atoms: C_3  and  C_4 
REMARK    2  A    between atoms: C_3  and  O_19 
REMARK    3  A    between atoms: C_11  and  S_29 
REMARK    4  A    between atoms: N_12  and  C_14 
REMARK    5  A    between atoms: N_15  and  S_29 
REMARK    6  A    between atoms: C_18  and  O_19 
ROOT
HETATM    1  C   UNK N   1      27.168  17.491   6.058  0.00  0.00     0.686 A 
HETATM    2  C   UNK N   1      26.057  20.489   3.018  0.00  0.00     0.182 A 
HETATM    3  N   UNK N   1      27.948  16.817   7.038  0.00  0.00    -0.192 N 
HETATM    4  N   UNK N   1      25.927  16.990   5.721  0.00  0.00    -0.168 N 
ATOM      5  HN  UNK N   1      25.575  16.153   6.188  1.00  0.00     0.186 HD
HETATM    6  C   UNK N   1      25.161  17.606   4.764  0.00  0.00     0.188 A 
HETATM    7  C   UNK N   1      25.671  18.735   4.160  0.00  0.00     0.130 A 
HETATM    8  N   UNK N   1      25.124  19.519   3.220  0.00  0.00    -0.346 N 
ATOM      9  HN  UNK N   1      24.220  19.413   2.761  1.00  0.00     0.167 HD
HETATM   10  N   UNK N   1      27.151  20.318   3.808  0.00  0.00    -0.336 N 
HETATM   11  C   UNK N   1      26.871  19.212   4.506  0.00  0.00     0.153 A 
HETATM   12  N   UNK N   1      27.643  18.618   5.441  0.00  0.00    -0.174 N 
ATOM     13  HN  UNK N   1      28.559  19.000   5.684  1.00  0.00     0.186 HD
HETATM   14  H   UNK N   1      27.563  16.002   7.432  0.00  0.00     0.184 HD
HETATM   15  H   UNK N   1      27.961  20.877   3.854  0.00  0.00     0.168 HD
ENDROOT
BRANCH   3  16
HETATM   16  C   UNK N   1      29.236  17.213   7.500  0.00  0.00     0.050 A 
HETATM   17  C   UNK N   1      30.353  16.810   6.771  0.00  0.00     0.055 A 
HETATM   18  C   UNK N   1      31.637  17.186   7.166  0.00  0.00     0.081 A 
HETATM   19  C   UNK N   1      31.816  17.996   8.293  0.00  0.00     0.025 A 
HETATM   20  C   UNK N   1      30.705  18.398   9.040  0.00  0.00     0.004 A 
HETATM   21  C   UNK N   1      29.419  18.018   8.639  0.00  0.00     0.030 A 
BRANCH  18  22
HETATM   22  S   UNK N   1      32.995  16.872   6.056  0.00  0.00     0.256 S 
HETATM   23  O   UNK N   1      34.197  17.829   6.092  0.00  0.00    -0.201 OA
HETATM   24  O   UNK N   1      33.647  15.769   6.885  0.00  0.00    -0.201 OA
BRANCH  22  25
HETATM   25  N   UNK N   1      32.977  15.993   4.525  0.00  0.00    -0.324 N 
HETATM   26  H   UNK N   1      32.516  16.361   3.693  0.00  0.00     0.169 HD
HETATM   27  H   UNK N   1      33.443  15.086   4.470  0.00  0.00     0.169 HD
ENDBRANCH  22  25
ENDBRANCH  18  22
ENDBRANCH   3  16
BRANCH   6  28
HETATM   28  O   UNK N   1      23.943  17.159   4.404  0.00  0.00    -0.333 OA
BRANCH  28  29
HETATM   29  C   UNK N   1      22.838  17.095   5.217  0.00  0.00     0.182 C 
BRANCH  29  30
HETATM   30  C   UNK N   1      21.616  17.440   4.369  0.00  0.00     0.010 C 
HETATM   31  C   UNK N   1      21.615  18.912   3.968  0.00  0.00     0.007 C 
HETATM   32  C   UNK N   1      20.359  19.229   3.153  0.00  0.00     0.000 C 
HETATM   33  C   UNK N   1      20.268  18.330   1.919  0.00  0.00     0.000 C 
HETATM   34  C   UNK N   1      20.288  16.861   2.328  0.00  0.00     0.000 C 
HETATM   35  C   UNK N   1      21.561  16.568   3.109  0.00  0.00     0.007 C 
ENDBRANCH  29  30
ENDBRANCH  28  29
ENDBRANCH   6  28
TORSDOF 6
ENDMDL
MODEL 6
REMARK VINA RESULT:      -7.2      7.311     11.202
REMARK  6 active torsions:
REMARK  status: ('A' for Active; 'I' for Inactive)
REMARK       I    between atoms: C_1  and  N_12 
REMARK    1  A    between atoms: C_3  and  C_4 
REMARK    2  A    between atoms: C_3  and  O_19 
REMARK    3  A    between atoms: C_11  and  S_29 
REMARK    4  A    between atoms: N_12  and  C_14 
REMARK    5  A    between atoms: N_15  and  S_29 
REMARK    6  A    between atoms: C_18  and  O_19 
ROOT
HETATM    1  C   UNK N   1      26.310  17.468   4.884  0.00  0.00     0.686 A 
HETATM    2  C   UNK N   1      29.317  15.291   2.500  0.00  0.00     0.182 A 
HETATM    3  N   UNK N   1      25.044  17.979   5.279  0.00  0.00    -0.192 N 
HETATM    4  N   UNK N   1      27.428  17.785   5.627  0.00  0.00    -0.168 N 
ATOM      5  HN  UNK N   1      27.334  18.367   6.461  1.00  0.00     0.186 HD
HETATM    6  C   UNK N   1      28.666  17.324   5.258  0.00  0.00     0.188 A 
HETATM    7  C   UNK N   1      28.750  16.537   4.130  0.00  0.00     0.130 A 
HETATM    8  N   UNK N   1      29.824  15.958   3.573  0.00  0.00    -0.346 N 
ATOM      9  HN  UNK N   1      30.794  16.005   3.881  1.00  0.00     0.167 HD
HETATM   10  N   UNK N   1      27.970  15.447   2.390  0.00  0.00    -0.336 N 
HETATM   11  C   UNK N   1      27.655  16.232   3.426  0.00  0.00     0.153 A 
HETATM   12  N   UNK N   1      26.428  16.679   3.769  0.00  0.00    -0.174 N 
ATOM     13  HN  UNK N   1      25.607  16.436   3.212  1.00  0.00     0.186 HD
HETATM   14  H   UNK N   1      25.024  18.556   6.076  0.00  0.00     0.184 HD
HETATM   15  H   UNK N   1      27.368  15.072   1.707  0.00  0.00     0.168 HD
ENDROOT
BRANCH   3  16
HETATM   16  C   UNK N   1      23.801  17.735   4.627  0.00  0.00     0.050 A 
HETATM   17  C   UNK N   1      23.045  18.831   4.212  0.00  0.00     0.055 A 
HETATM   18  C   UNK N   1      21.830  18.650   3.551  0.00  0.00     0.081 A 
HETATM   19  C   UNK N   1      21.367  17.360   3.274  0.00  0.00     0.025 A 
HETATM   20  C   UNK N   1      22.109  16.252   3.693  0.00  0.00     0.004 A 
HETATM   21  C   UNK N   1      23.327  16.438   4.357  0.00  0.00     0.030 A 
BRANCH  18  22
HETATM   22  S   UNK N   1      21.045  20.070   2.812  0.00  0.00     0.256 S 
HETATM   23  O   UNK N   1      20.188  20.974   3.713  0.00  0.00    -0.201 OA
HETATM   24  O   UNK N   1      22.277  20.971   2.814  0.00  0.00    -0.201 OA
BRANCH  22  25
HETATM   25  N   UNK N   1      20.610  20.324   1.121  0.00  0.00    -0.324 N 
HETATM   26  H   UNK N   1      20.692  21.236   0.671  0.00  0.00     0.169 HD
HETATM   27  H   UNK N   1      20.265  19.534   0.575  0.00  0.00     0.169 HD
ENDBRANCH  22  25
ENDBRANCH  18  22
ENDBRANCH   3  16
BRANCH   6  28
HETATM   28  O   UNK N   1      29.787  17.600   5.953  0.00  0.00    -0.333 OA
BRANCH  28  29
HETATM   29  C   UNK N   1      30.064  17.180   7.231  0.00  0.00     0.182 C 
BRANCH  29  30
HETATM   30  C   UNK N   1      31.582  17.167   7.396  0.00  0.00     0.010 C 
HETATM   31  C   UNK N   1      32.055  15.891   8.088  0.00  0.00     0.007 C 
HETATM   32  C   UNK N   1      33.574  15.932   8.270  0.00  0.00     0.000 C 
HETATM   33  C   UNK N   1      34.281  16.115   6.926  0.00  0.00     0.000 C 
HETATM   34  C   UNK N   1      33.788  17.382   6.235  0.00  0.00     0.000 C 
HETATM   35  C   UNK N   1      32.281  17.301   6.038  0.00  0.00     0.007 C 
ENDBRANCH  29  30
ENDBRANCH  28  29
ENDBRANCH   6  28
TORSDOF 6
ENDMDL
MODEL 7
REMARK VINA RESULT:      -7.0      7.300     12.078
REMARK  6 active torsions:
REMARK  status: ('A' for Active; 'I' for Inactive)
REMARK       I    between atoms: C_1  and  N_12 
REMARK    1  A    between atoms: C_3  and  C_4 
REMARK    2  A    between atoms: C_3  and  O_19 
REMARK    3  A    between atoms: C_11  and  S_29 
REMARK    4  A    between atoms: N_12  and  C_14 
REMARK    5  A    between atoms: N_15  and  S_29 
REMARK    6  A    between atoms: C_18  and  O_19 
ROOT
HETATM    1  C   UNK N   1      28.355  16.966   4.824  0.00  0.00     0.686 A 
HETATM    2  C   UNK N   1      26.065  20.393   3.251  0.00  0.00     0.182 A 
HETATM    3  N   UNK N   1      29.475  16.190   5.232  0.00  0.00    -0.192 N 
HETATM    4  N   UNK N   1      27.091  16.418   4.898  0.00  0.00    -0.168 N 
ATOM      5  HN  UNK N   1      26.970  15.470   5.259  1.00  0.00     0.186 HD
HETATM    6  C   UNK N   1      25.994  17.134   4.491  0.00  0.00     0.188 A 
HETATM    7  C   UNK N   1      26.200  18.410   4.014  0.00  0.00     0.130 A 
HETATM    8  N   UNK N   1      25.308  19.310   3.574  0.00  0.00    -0.346 N 
ATOM      9  HN  UNK N   1      24.296  19.207   3.499  1.00  0.00     0.167 HD
HETATM   10  N   UNK N   1      27.389  20.178   3.482  0.00  0.00    -0.336 N 
HETATM   11  C   UNK N   1      27.431  18.929   3.958  0.00  0.00     0.153 A 
HETATM   12  N   UNK N   1      28.524  18.239   4.349  0.00  0.00    -0.174 N 
ATOM     13  HN  UNK N   1      29.454  18.656   4.291  1.00  0.00     0.186 HD
HETATM   14  H   UNK N   1      29.293  15.275   5.546  0.00  0.00     0.184 HD
HETATM   15  H   UNK N   1      28.140  20.797   3.333  0.00  0.00     0.168 HD
ENDROOT
BRANCH   3  16
HETATM   16  C   UNK N   1      30.835  16.615   5.227  0.00  0.00     0.050 A 
HETATM   17  C   UNK N   1      31.398  17.043   6.428  0.00  0.00     0.055 A 
HETATM   18  C   UNK N   1      32.731  17.450   6.486  0.00  0.00     0.081 A 
HETATM   19  C   UNK N   1      33.527  17.410   5.337  0.00  0.00     0.025 A 
HETATM   20  C   UNK N   1      32.973  16.993   4.123  0.00  0.00     0.004 A 
HETATM   21  C   UNK N   1      31.635  16.585   4.070  0.00  0.00     0.030 A 
BRANCH  18  22
HETATM   22  S   UNK N   1      33.467  17.728   8.085  0.00  0.00     0.256 S 
HETATM   23  O   UNK N   1      34.516  18.844   8.216  0.00  0.00    -0.201 OA
HETATM   24  O   UNK N   1      32.310  18.532   8.672  0.00  0.00    -0.201 OA
BRANCH  22  25
HETATM   25  N   UNK N   1      33.629  16.594   9.428  0.00  0.00    -0.324 N 
HETATM   26  H   UNK N   1      33.627  16.901  10.401  0.00  0.00     0.169 HD
HETATM   27  H   UNK N   1      33.728  15.599   9.226  0.00  0.00     0.169 HD
ENDBRANCH  22  25
ENDBRANCH  18  22
ENDBRANCH   3  16
BRANCH   6  28
HETATM   28  O   UNK N   1      24.740  16.646   4.548  0.00  0.00    -0.333 OA
BRANCH  28  29
HETATM   29  C   UNK N   1      24.329  15.572   5.300  0.00  0.00     0.182 C 
BRANCH  29  30
HETATM   30  C   UNK N   1      22.875  15.814   5.698  0.00  0.00     0.010 C 
HETATM   31  C   UNK N   1      22.542  15.134   7.023  0.00  0.00     0.007 C 
HETATM   32  C   UNK N   1      21.069  15.365   7.369  0.00  0.00     0.000 C 
HETATM   33  C   UNK N   1      20.750  16.860   7.430  0.00  0.00     0.000 C 
HETATM   34  C   UNK N   1      21.104  17.533   6.109  0.00  0.00     0.000 C 
HETATM   35  C   UNK N   1      22.579  17.314   5.804  0.00  0.00     0.007 C 
ENDBRANCH  29  30
ENDBRANCH  28  29
ENDBRANCH   6  28
TORSDOF 6
ENDMDL
MODEL 8
REMARK VINA RESULT:      -7.0      2.583      3.090
REMARK  6 active torsions:
REMARK  status: ('A' for Active; 'I' for Inactive)
REMARK       I    between atoms: C_1  and  N_12 
REMARK    1  A    between atoms: C_3  and  C_4 
REMARK    2  A    between atoms: C_3  and  O_19 
REMARK    3  A    between atoms: C_11  and  S_29 
REMARK    4  A    between atoms: N_12  and  C_14 
REMARK    5  A    between atoms: N_15  and  S_29 
REMARK    6  A    between atoms: C_18  and  O_19 
ROOT
HETATM    1  C   UNK N   1      33.540  14.772   9.757  0.00  0.00     0.686 A 
HETATM    2  C   UNK N   1      34.644  10.560   9.049  0.00  0.00     0.182 A 
HETATM    3  N   UNK N   1      32.989  16.060   9.516  0.00  0.00    -0.192 N 
HETATM    4  N   UNK N   1      34.212  14.536  10.939  0.00  0.00    -0.168 N 
ATOM      5  HN  UNK N   1      34.291  15.280  11.633  1.00  0.00     0.186 HD
HETATM    6  C   UNK N   1      34.773  13.310  11.190  0.00  0.00     0.188 A 
HETATM    7  C   UNK N   1      34.639  12.331  10.229  0.00  0.00     0.130 A 
HETATM    8  N   UNK N   1      35.076  11.064  10.237  0.00  0.00    -0.346 N 
ATOM      9  HN  UNK N   1      35.609  10.587  10.964  1.00  0.00     0.167 HD
HETATM   10  N   UNK N   1      33.958  11.482   8.322  0.00  0.00    -0.336 N 
HETATM   11  C   UNK N   1      33.977  12.575   9.094  0.00  0.00     0.153 A 
HETATM   12  N   UNK N   1      33.421  13.776   8.824  0.00  0.00    -0.174 N 
ATOM     13  HN  UNK N   1      32.925  13.938   7.947  1.00  0.00     0.186 HD
HETATM   14  H   UNK N   1      33.123  16.742  10.214  0.00  0.00     0.184 HD
HETATM   15  H   UNK N   1      33.544  11.373   7.435  0.00  0.00     0.168 HD
ENDROOT
BRANCH   3  16
HETATM   16  C   UNK N   1      32.261  16.457   8.356  0.00  0.00     0.050 A 
HETATM   17  C   UNK N   1      30.926  16.827   8.508  0.00  0.00     0.055 A 
HETATM   18  C   UNK N   1      30.172  17.243   7.411  0.00  0.00     0.081 A 
HETATM   19  C   UNK N   1      30.759  17.316   6.143  0.00  0.00     0.025 A 
HETATM   20  C   UNK N   1      32.093  16.938   5.974  0.00  0.00     0.004 A 
HETATM   21  C   UNK N   1      32.846  16.520   7.078  0.00  0.00     0.030 A 
BRANCH  18  22
HETATM   22  S   UNK N   1      28.565  17.956   7.705  0.00  0.00     0.256 S 
HETATM   23  O   UNK N   1      27.973  18.877   6.626  0.00  0.00    -0.201 OA
HETATM   24  O   UNK N   1      27.753  16.722   7.319  0.00  0.00    -0.201 OA
BRANCH  22  25
HETATM   25  N   UNK N   1      27.764  18.251   9.249  0.00  0.00    -0.324 N 
HETATM   26  H   UNK N   1      27.539  19.193   9.572  0.00  0.00     0.169 HD
HETATM   27  H   UNK N   1      27.517  17.456   9.839  0.00  0.00     0.169 HD
ENDBRANCH  22  25
ENDBRANCH  18  22
ENDBRANCH   3  16
BRANCH   6  28
HETATM   28  O   UNK N   1      35.433  13.027  12.330  0.00  0.00    -0.333 OA
BRANCH  28  29
HETATM   29  C   UNK N   1      35.279  13.678  13.530  0.00  0.00     0.182 C 
BRANCH  29  30
HETATM   30  C   UNK N   1      35.169  12.617  14.622  0.00  0.00     0.010 C 
HETATM   31  C   UNK N   1      34.231  11.487  14.207  0.00  0.00     0.007 C 
HETATM   32  C   UNK N   1      34.116  10.465  15.340  0.00  0.00     0.000 C 
HETATM   33  C   UNK N   1      35.492   9.916  15.723  0.00  0.00     0.000 C 
HETATM   34  C   UNK N   1      36.427  11.054  16.118  0.00  0.00     0.000 C 
HETATM   35  C   UNK N   1      36.547  12.038  14.963  0.00  0.00     0.007 C 
ENDBRANCH  29  30
ENDBRANCH  28  29
ENDBRANCH   6  28
TORSDOF 6
ENDMDL
MODEL 9
REMARK VINA RESULT:      -6.9      6.634     12.434
REMARK  6 active torsions:
REMARK  status: ('A' for Active; 'I' for Inactive)
REMARK       I    between atoms: C_1  and  N_12 
REMARK    1  A    between atoms: C_3  and  C_4 
REMARK    2  A    between atoms: C_3  and  O_19 
REMARK    3  A    between atoms: C_11  and  S_29 
REMARK    4  A    between atoms: N_12  and  C_14 
REMARK    5  A    between atoms: N_15  and  S_29 
REMARK    6  A    between atoms: C_18  and  O_19 
ROOT
HETATM    1  C   UNK N   1      28.711  17.181   5.287  0.00  0.00     0.686 A 
HETATM    2  C   UNK N   1      26.373  20.821   6.154  0.00  0.00     0.182 A 
HETATM    3  N   UNK N   1      29.835  16.317   5.181  0.00  0.00    -0.192 N 
HETATM    4  N   UNK N   1      27.473  16.731   4.878  0.00  0.00    -0.168 N 
ATOM      5  HN  UNK N   1      27.373  15.780   4.520  1.00  0.00     0.186 HD
HETATM    6  C   UNK N   1      26.373  17.549   4.948  0.00  0.00     0.188 A 
HETATM    7  C   UNK N   1      26.550  18.823   5.442  0.00  0.00     0.130 A 
HETATM    8  N   UNK N   1      25.648  19.798   5.625  0.00  0.00    -0.346 N 
ATOM      9  HN  UNK N   1      24.651  19.779   5.416  1.00  0.00     0.167 HD
HETATM   10  N   UNK N   1      27.686  20.495   6.299  0.00  0.00    -0.336 N 
HETATM   11  C   UNK N   1      27.755  19.240   5.843  0.00  0.00     0.153 A 
HETATM   12  N   UNK N   1      28.851  18.453   5.777  0.00  0.00    -0.174 N 
ATOM     13  HN  UNK N   1      29.762  18.797   6.085  1.00  0.00     0.186 HD
HETATM   14  H   UNK N   1      29.677  15.422   4.803  0.00  0.00     0.184 HD
HETATM   15  H   UNK N   1      28.416  21.053   6.655  0.00  0.00     0.168 HD
ENDROOT
BRANCH   3  16
HETATM   16  C   UNK N   1      31.170  16.629   5.569  0.00  0.00     0.050 A 
HETATM   17  C   UNK N   1      31.603  16.226   6.832  0.00  0.00     0.055 A 
HETATM   18  C   UNK N   1      32.906  16.486   7.256  0.00  0.00     0.081 A 
HETATM   19  C   UNK N   1      33.805  17.136   6.405  0.00  0.00     0.025 A 
HETATM   20  C   UNK N   1      33.382  17.555   5.140  0.00  0.00     0.004 A 
HETATM   21  C   UNK N   1      32.073  17.292   4.719  0.00  0.00     0.030 A 
BRANCH  18  22
HETATM   22  S   UNK N   1      33.479  15.718   8.759  0.00  0.00     0.256 S 
HETATM   23  O   UNK N   1      34.819  14.965   8.722  0.00  0.00    -0.201 OA
HETATM   24  O   UNK N   1      34.031  16.986   9.404  0.00  0.00    -0.201 OA
BRANCH  22  25
HETATM   25  N   UNK N   1      32.529  15.180  10.146  0.00  0.00    -0.324 N 
HETATM   26  H   UNK N   1      31.748  15.724  10.513  0.00  0.00     0.169 HD
HETATM   27  H   UNK N   1      32.768  14.296  10.596  0.00  0.00     0.169 HD
ENDBRANCH  22  25
ENDBRANCH  18  22
ENDBRANCH   3  16
BRANCH   6  28
HETATM   28  O   UNK N   1      25.143  17.154   4.567  0.00  0.00    -0.333 OA
BRANCH  28  29
HETATM   29  C   UNK N   1      24.258  16.434   5.331  0.00  0.00     0.182 C 
BRANCH  29  30
HETATM   30  C   UNK N   1      22.850  16.750   4.831  0.00  0.00     0.010 C 
HETATM   31  C   UNK N   1      22.581  18.252   4.841  0.00  0.00     0.007 C 
HETATM   32  C   UNK N   1      21.150  18.526   4.371  0.00  0.00     0.000 C 
HETATM   33  C   UNK N   1      20.910  17.941   2.979  0.00  0.00     0.000 C 
HETATM   34  C   UNK N   1      21.199  16.444   2.975  0.00  0.00     0.000 C 
HETATM   35  C   UNK N   1      22.636  16.201   3.415  0.00  0.00     0.007 C 
ENDBRANCH  29  30
ENDBRANCH  28  29
ENDBRANCH   6  28
TORSDOF 6
ENDMDL
