MODEL 1
REMARK VINA RESULT:      -4.7      0.000      0.000
REMARK  22 active torsions:
REMARK  status: ('A' for Active; 'I' for Inactive)
REMARK    1  A    between atoms: C_2  and  C_3 
REMARK    2  A    between atoms: C_3  and  C_4 
REMARK    3  A    between atoms: C_4  and  C_5 
REMARK    4  A    between atoms: C_5  and  C_6 
REMARK    5  A    between atoms: C_6  and  C_7 
REMARK    6  A    between atoms: C_7  and  C_8 
REMARK    7  A    between atoms: C_8  and  O_9 
REMARK    8  A    between atoms: O_9  and  C_10 
REMARK    9  A    between atoms: C_10  and  C_11 
REMARK   10  A    between atoms: C_11  and  O_12 
REMARK   11  A    between atoms: O_12  and  C_13 
REMARK   12  A    between atoms: C_13  and  C_14 
REMARK   13  A    between atoms: C_14  and  O_15 
REMARK   14  A    between atoms: O_15  and  C_16 
REMARK   15  A    between atoms: C_16  and  C_17 
REMARK   16  A    between atoms: C_17  and  O_18 
REMARK   17  A    between atoms: O_18  and  C_19 
REMARK   18  A    between atoms: C_19  and  C_20 
REMARK   19  A    between atoms: C_20  and  O_21 
REMARK   20  A    between atoms: O_21  and  C_22 
REMARK   21  A    between atoms: C_22  and  C_23 
REMARK   22  A    between atoms: C_23  and  O_24 
ROOT
HETATM    1  C   UNK N   1      34.585  15.044  11.224  0.00  0.00     0.193 C 
ENDROOT
BRANCH   1   2
HETATM    2  O   UNK N   1      34.576  14.151  12.299  0.00  0.00    -0.387 OA
BRANCH   2   3
HETATM    3  C   UNK N   1      35.591  13.234  12.011  0.00  0.00     0.193 C 
BRANCH   3   4
HETATM    4  C   UNK N   1      34.996  11.956  11.446  0.00  0.00     0.193 C 
BRANCH   4   5
HETATM    5  O   UNK N   1      35.238  10.905  12.335  0.00  0.00    -0.389 OA
BRANCH   5   6
HETATM    6  C   UNK N   1      33.976  10.483  12.758  0.00  0.00     0.167 C 
BRANCH   6   7
HETATM    7  C   UNK N   1      33.896  10.616  14.265  0.00  0.00     0.026 C 
BRANCH   7   8
HETATM    8  C   UNK N   1      35.215  10.247  14.913  0.00  0.00     0.002 C 
BRANCH   8   9
HETATM    9  C   UNK N   1      35.467  11.224  16.042  0.00  0.00     0.000 C 
BRANCH   9  10
HETATM   10  C   UNK N   1      35.202  12.649  15.607  0.00  0.00     0.000 C 
BRANCH  10  11
HETATM   11  C   UNK N   1      34.531  13.375  16.757  0.00  0.00    -0.000 C 
BRANCH  11  12
HETATM   12  C   UNK N   1      35.547  13.741  17.816  0.00  0.00    -0.005 C 
HETATM   13  C   UNK N   1      35.134  13.117  19.133  0.00  0.00     0.005 C 
ENDBRANCH  11  12
ENDBRANCH  10  11
ENDBRANCH   9  10
ENDBRANCH   8   9
ENDBRANCH   7   8
ENDBRANCH   6   7
ENDBRANCH   5   6
ENDBRANCH   4   5
ENDBRANCH   3   4
ENDBRANCH   2   3
ENDBRANCH   1   2
BRANCH   1  14
HETATM   14  C   UNK N   1      35.799  15.952  11.316  0.00  0.00     0.193 C 
BRANCH  14  15
HETATM   15  O   UNK N   1      35.554  17.136  10.619  0.00  0.00    -0.387 OA
BRANCH  15  16
HETATM   16  C   UNK N   1      34.940  16.736   9.431  0.00  0.00     0.193 C 
BRANCH  16  17
HETATM   17  C   UNK N   1      34.609  17.948   8.582  0.00  0.00     0.193 C 
BRANCH  17  18
HETATM   18  O   UNK N   1      33.550  17.623   7.734  0.00  0.00    -0.387 OA
BRANCH  18  19
HETATM   19  C   UNK N   1      32.586  17.027   8.548  0.00  0.00     0.193 C 
BRANCH  19  20
HETATM   20  C   UNK N   1      31.256  17.728   8.334  0.00  0.00     0.193 C 
BRANCH  20  21
HETATM   21  O   UNK N   1      30.210  16.814   8.485  0.00  0.00    -0.387 OA
BRANCH  21  22
HETATM   22  C   UNK N   1      29.467  17.295   9.566  0.00  0.00     0.193 C 
BRANCH  22  23
HETATM   23  C   UNK N   1      28.768  18.582   9.174  0.00  0.00     0.190 C 
BRANCH  23  24
HETATM   24  O   UNK N   1      27.387  18.402   9.241  0.00  0.00    -0.399 OA
HETATM   25  H   UNK N   1      26.862  18.546  10.044  0.00  0.00     0.209 HD
ENDBRANCH  23  24
ENDBRANCH  22  23
ENDBRANCH  21  22
ENDBRANCH  20  21
ENDBRANCH  19  20
ENDBRANCH  18  19
ENDBRANCH  17  18
ENDBRANCH  16  17
ENDBRANCH  15  16
ENDBRANCH  14  15
ENDBRANCH   1  14
TORSDOF 22
ENDMDL
MODEL 2
REMARK VINA RESULT:      -4.4      2.503      9.914
REMARK  22 active torsions:
REMARK  status: ('A' for Active; 'I' for Inactive)
REMARK    1  A    between atoms: C_2  and  C_3 
REMARK    2  A    between atoms: C_3  and  C_4 
REMARK    3  A    between atoms: C_4  and  C_5 
REMARK    4  A    between atoms: C_5  and  C_6 
REMARK    5  A    between atoms: C_6  and  C_7 
REMARK    6  A    between atoms: C_7  and  C_8 
REMARK    7  A    between atoms: C_8  and  O_9 
REMARK    8  A    between atoms: O_9  and  C_10 
REMARK    9  A    between atoms: C_10  and  C_11 
REMARK   10  A    between atoms: C_11  and  O_12 
REMARK   11  A    between atoms: O_12  and  C_13 
REMARK   12  A    between atoms: C_13  and  C_14 
REMARK   13  A    between atoms: C_14  and  O_15 
REMARK   14  A    between atoms: O_15  and  C_16 
REMARK   15  A    between atoms: C_16  and  C_17 
REMARK   16  A    between atoms: C_17  and  O_18 
REMARK   17  A    between atoms: O_18  and  C_19 
REMARK   18  A    between atoms: C_19  and  C_20 
REMARK   19  A    between atoms: C_20  and  O_21 
REMARK   20  A    between atoms: O_21  and  C_22 
REMARK   21  A    between atoms: C_22  and  C_23 
REMARK   22  A    between atoms: C_23  and  O_24 
ROOT
HETATM    1  C   UNK N   1      35.656  16.423  10.747  0.00  0.00     0.193 C 
ENDROOT
BRANCH   1   2
HETATM    2  O   UNK N   1      35.347  17.577  10.022  0.00  0.00    -0.387 OA
BRANCH   2   3
HETATM    3  C   UNK N   1      34.480  17.145   9.015  0.00  0.00     0.193 C 
BRANCH   3   4
HETATM    4  C   UNK N   1      34.085  18.313   8.128  0.00  0.00     0.193 C 
BRANCH   4   5
HETATM    5  O   UNK N   1      34.610  18.116   6.848  0.00  0.00    -0.389 OA
BRANCH   5   6
HETATM    6  C   UNK N   1      33.976  16.971   6.362  0.00  0.00     0.167 C 
BRANCH   6   7
HETATM    7  C   UNK N   1      32.721  17.384   5.620  0.00  0.00     0.026 C 
BRANCH   7   8
HETATM    8  C   UNK N   1      31.603  16.387   5.848  0.00  0.00     0.002 C 
BRANCH   8   9
HETATM    9  C   UNK N   1      30.458  17.117   6.518  0.00  0.00     0.000 C 
BRANCH   9  10
HETATM   10  C   UNK N   1      29.147  16.389   6.316  0.00  0.00     0.000 C 
BRANCH  10  11
HETATM   11  C   UNK N   1      28.025  17.307   6.761  0.00  0.00    -0.000 C 
BRANCH  11  12
HETATM   12  C   UNK N   1      28.587  18.544   7.427  0.00  0.00    -0.005 C 
HETATM   13  C   UNK N   1      27.757  19.744   7.020  0.00  0.00     0.005 C 
ENDBRANCH  11  12
ENDBRANCH  10  11
ENDBRANCH   9  10
ENDBRANCH   8   9
ENDBRANCH   7   8
ENDBRANCH   6   7
ENDBRANCH   5   6
ENDBRANCH   4   5
ENDBRANCH   3   4
ENDBRANCH   2   3
ENDBRANCH   1   2
BRANCH   1  14
HETATM   14  C   UNK N   1      34.620  15.347  10.474  0.00  0.00     0.193 C 
BRANCH  14  15
HETATM   15  O   UNK N   1      34.295  14.694  11.663  0.00  0.00    -0.387 OA
BRANCH  15  16
HETATM   16  C   UNK N   1      35.516  14.264  12.186  0.00  0.00     0.193 C 
BRANCH  16  17
HETATM   17  C   UNK N   1      35.307  13.046  13.065  0.00  0.00     0.193 C 
BRANCH  17  18
HETATM   18  O   UNK N   1      34.698  13.453  14.252  0.00  0.00    -0.387 OA
BRANCH  18  19
HETATM   19  C   UNK N   1      34.925  12.421  15.164  0.00  0.00     0.193 C 
BRANCH  19  20
HETATM   20  C   UNK N   1      34.759  12.962  16.573  0.00  0.00     0.193 C 
BRANCH  20  21
HETATM   21  O   UNK N   1      35.586  12.257  17.451  0.00  0.00    -0.387 OA
BRANCH  21  22
HETATM   22  C   UNK N   1      36.039  11.160  16.714  0.00  0.00     0.193 C 
BRANCH  22  23
HETATM   23  C   UNK N   1      35.996   9.911  17.573  0.00  0.00     0.190 C 
BRANCH  23  24
HETATM   24  O   UNK N   1      34.915   9.119  17.191  0.00  0.00    -0.399 OA
HETATM   25  H   UNK N   1      34.038   9.165  17.605  0.00  0.00     0.209 HD
ENDBRANCH  23  24
ENDBRANCH  22  23
ENDBRANCH  21  22
ENDBRANCH  20  21
ENDBRANCH  19  20
ENDBRANCH  18  19
ENDBRANCH  17  18
ENDBRANCH  16  17
ENDBRANCH  15  16
ENDBRANCH  14  15
ENDBRANCH   1  14
TORSDOF 22
ENDMDL
MODEL 3
REMARK VINA RESULT:      -4.4      2.731      4.149
REMARK  22 active torsions:
REMARK  status: ('A' for Active; 'I' for Inactive)
REMARK    1  A    between atoms: C_2  and  C_3 
REMARK    2  A    between atoms: C_3  and  C_4 
REMARK    3  A    between atoms: C_4  and  C_5 
REMARK    4  A    between atoms: C_5  and  C_6 
REMARK    5  A    between atoms: C_6  and  C_7 
REMARK    6  A    between atoms: C_7  and  C_8 
REMARK    7  A    between atoms: C_8  and  O_9 
REMARK    8  A    between atoms: O_9  and  C_10 
REMARK    9  A    between atoms: C_10  and  C_11 
REMARK   10  A    between atoms: C_11  and  O_12 
REMARK   11  A    between atoms: O_12  and  C_13 
REMARK   12  A    between atoms: C_13  and  C_14 
REMARK   13  A    between atoms: C_14  and  O_15 
REMARK   14  A    between atoms: O_15  and  C_16 
REMARK   15  A    between atoms: C_16  and  C_17 
REMARK   16  A    between atoms: C_17  and  O_18 
REMARK   17  A    between atoms: O_18  and  C_19 
REMARK   18  A    between atoms: C_19  and  C_20 
REMARK   19  A    between atoms: C_20  and  O_21 
REMARK   20  A    between atoms: O_21  and  C_22 
REMARK   21  A    between atoms: C_22  and  C_23 
REMARK   22  A    between atoms: C_23  and  O_24 
ROOT
HETATM    1  C   UNK N   1      35.060  12.432  10.043  0.00  0.00     0.193 C 
ENDROOT
BRANCH   1   2
HETATM    2  O   UNK N   1      36.014  13.323   9.545  0.00  0.00    -0.387 OA
BRANCH   2   3
HETATM    3  C   UNK N   1      36.925  13.494  10.592  0.00  0.00     0.193 C 
BRANCH   3   4
HETATM    4  C   UNK N   1      36.198  13.934  11.851  0.00  0.00     0.193 C 
BRANCH   4   5
HETATM    5  O   UNK N   1      36.855  13.412  12.967  0.00  0.00    -0.389 OA
BRANCH   5   6
HETATM    6  C   UNK N   1      36.036  13.723  14.055  0.00  0.00     0.167 C 
BRANCH   6   7
HETATM    7  C   UNK N   1      36.820  13.512  15.334  0.00  0.00     0.026 C 
BRANCH   7   8
HETATM    8  C   UNK N   1      35.949  13.755  16.550  0.00  0.00     0.002 C 
BRANCH   8   9
HETATM    9  C   UNK N   1      34.848  12.714  16.549  0.00  0.00     0.000 C 
BRANCH   9  10
HETATM   10  C   UNK N   1      35.312  11.421  17.184  0.00  0.00     0.000 C 
BRANCH  10  11
HETATM   11  C   UNK N   1      34.631  10.273  16.465  0.00  0.00    -0.000 C 
BRANCH  11  12
HETATM   12  C   UNK N   1      34.971  10.295  14.991  0.00  0.00    -0.005 C 
HETATM   13  C   UNK N   1      33.736  10.683  14.204  0.00  0.00     0.005 C 
ENDBRANCH  11  12
ENDBRANCH  10  11
ENDBRANCH   9  10
ENDBRANCH   8   9
ENDBRANCH   7   8
ENDBRANCH   6   7
ENDBRANCH   5   6
ENDBRANCH   4   5
ENDBRANCH   3   4
ENDBRANCH   2   3
ENDBRANCH   1   2
BRANCH   1  14
HETATM   14  C   UNK N   1      33.790  12.518   9.215  0.00  0.00     0.193 C 
BRANCH  14  15
HETATM   15  O   UNK N   1      33.934  13.496   8.231  0.00  0.00    -0.387 OA
BRANCH  15  16
HETATM   16  C   UNK N   1      32.815  14.319   8.371  0.00  0.00     0.193 C 
BRANCH  16  17
HETATM   17  C   UNK N   1      33.183  15.574   9.138  0.00  0.00     0.193 C 
BRANCH  17  18
HETATM   18  O   UNK N   1      34.427  16.021   8.693  0.00  0.00    -0.387 OA
BRANCH  18  19
HETATM   19  C   UNK N   1      34.487  17.371   9.037  0.00  0.00     0.193 C 
BRANCH  19  20
HETATM   20  C   UNK N   1      33.845  18.193   7.933  0.00  0.00     0.193 C 
BRANCH  20  21
HETATM   21  O   UNK N   1      34.513  17.969   6.727  0.00  0.00    -0.387 OA
BRANCH  21  22
HETATM   22  C   UNK N   1      33.523  17.524   5.846  0.00  0.00     0.193 C 
BRANCH  22  23
HETATM   23  C   UNK N   1      33.945  16.207   5.224  0.00  0.00     0.190 C 
BRANCH  23  24
HETATM   24  O   UNK N   1      35.139  15.780   5.803  0.00  0.00    -0.399 OA
HETATM   25  H   UNK N   1      35.427  14.853   5.826  0.00  0.00     0.209 HD
ENDBRANCH  23  24
ENDBRANCH  22  23
ENDBRANCH  21  22
ENDBRANCH  20  21
ENDBRANCH  19  20
ENDBRANCH  18  19
ENDBRANCH  17  18
ENDBRANCH  16  17
ENDBRANCH  15  16
ENDBRANCH  14  15
ENDBRANCH   1  14
TORSDOF 22
ENDMDL
MODEL 4
REMARK VINA RESULT:      -4.3      2.769      9.548
REMARK  22 active torsions:
REMARK  status: ('A' for Active; 'I' for Inactive)
REMARK    1  A    between atoms: C_2  and  C_3 
REMARK    2  A    between atoms: C_3  and  C_4 
REMARK    3  A    between atoms: C_4  and  C_5 
REMARK    4  A    between atoms: C_5  and  C_6 
REMARK    5  A    between atoms: C_6  and  C_7 
REMARK    6  A    between atoms: C_7  and  C_8 
REMARK    7  A    between atoms: C_8  and  O_9 
REMARK    8  A    between atoms: O_9  and  C_10 
REMARK    9  A    between atoms: C_10  and  C_11 
REMARK   10  A    between atoms: C_11  and  O_12 
REMARK   11  A    between atoms: O_12  and  C_13 
REMARK   12  A    between atoms: C_13  and  C_14 
REMARK   13  A    between atoms: C_14  and  O_15 
REMARK   14  A    between atoms: O_15  and  C_16 
REMARK   15  A    between atoms: C_16  and  C_17 
REMARK   16  A    between atoms: C_17  and  O_18 
REMARK   17  A    between atoms: O_18  and  C_19 
REMARK   18  A    between atoms: C_19  and  C_20 
REMARK   19  A    between atoms: C_20  and  O_21 
REMARK   20  A    between atoms: O_21  and  C_22 
REMARK   21  A    between atoms: C_22  and  C_23 
REMARK   22  A    between atoms: C_23  and  O_24 
ROOT
HETATM    1  C   UNK N   1      34.616  15.796  10.201  0.00  0.00     0.193 C 
ENDROOT
BRANCH   1   2
HETATM    2  O   UNK N   1      34.515  14.768   9.260  0.00  0.00    -0.387 OA
BRANCH   2   3
HETATM    3  C   UNK N   1      35.598  14.964   8.398  0.00  0.00     0.193 C 
BRANCH   3   4
HETATM    4  C   UNK N   1      35.179  14.699   6.963  0.00  0.00     0.193 C 
BRANCH   4   5
HETATM    5  O   UNK N   1      35.102  15.912   6.275  0.00  0.00    -0.389 OA
BRANCH   5   6
HETATM    6  C   UNK N   1      33.766  16.307   6.374  0.00  0.00     0.167 C 
BRANCH   6   7
HETATM    7  C   UNK N   1      33.716  17.757   6.811  0.00  0.00     0.026 C 
BRANCH   7   8
HETATM    8  C   UNK N   1      32.869  17.918   8.058  0.00  0.00     0.002 C 
BRANCH   8   9
HETATM    9  C   UNK N   1      31.779  16.867   8.018  0.00  0.00     0.000 C 
BRANCH   9  10
HETATM   10  C   UNK N   1      30.416  17.494   7.822  0.00  0.00     0.000 C 
BRANCH  10  11
HETATM   11  C   UNK N   1      29.684  16.703   6.756  0.00  0.00    -0.000 C 
BRANCH  11  12
HETATM   12  C   UNK N   1      29.438  17.562   5.534  0.00  0.00    -0.005 C 
HETATM   13  C   UNK N   1      30.635  17.462   4.612  0.00  0.00     0.005 C 
ENDBRANCH  11  12
ENDBRANCH  10  11
ENDBRANCH   9  10
ENDBRANCH   8   9
ENDBRANCH   7   8
ENDBRANCH   6   7
ENDBRANCH   5   6
ENDBRANCH   4   5
ENDBRANCH   3   4
ENDBRANCH   2   3
ENDBRANCH   1   2
BRANCH   1  14
HETATM   14  C   UNK N   1      35.296  15.284  11.458  0.00  0.00     0.193 C 
BRANCH  14  15
HETATM   15  O   UNK N   1      34.514  14.288  12.043  0.00  0.00    -0.387 OA
BRANCH  15  16
HETATM   16  C   UNK N   1      35.321  13.728  13.035  0.00  0.00     0.193 C 
BRANCH  16  17
HETATM   17  C   UNK N   1      34.894  12.300  13.312  0.00  0.00     0.193 C 
BRANCH  17  18
HETATM   18  O   UNK N   1      34.350  12.238  14.595  0.00  0.00    -0.387 OA
BRANCH  18  19
HETATM   19  C   UNK N   1      35.411  11.908  15.438  0.00  0.00     0.193 C 
BRANCH  19  20
HETATM   20  C   UNK N   1      34.993  12.151  16.877  0.00  0.00     0.193 C 
BRANCH  20  21
HETATM   21  O   UNK N   1      34.641  13.492  17.049  0.00  0.00    -0.387 OA
BRANCH  21  22
HETATM   22  C   UNK N   1      35.273  13.879  18.233  0.00  0.00     0.193 C 
BRANCH  22  23
HETATM   23  C   UNK N   1      35.223  12.743  19.236  0.00  0.00     0.190 C 
BRANCH  23  24
HETATM   24  O   UNK N   1      34.817  13.233  20.476  0.00  0.00    -0.399 OA
HETATM   25  H   UNK N   1      35.430  13.502  21.178  0.00  0.00     0.209 HD
ENDBRANCH  23  24
ENDBRANCH  22  23
ENDBRANCH  21  22
ENDBRANCH  20  21
ENDBRANCH  19  20
ENDBRANCH  18  19
ENDBRANCH  17  18
ENDBRANCH  16  17
ENDBRANCH  15  16
ENDBRANCH  14  15
ENDBRANCH   1  14
TORSDOF 22
ENDMDL
MODEL 5
REMARK VINA RESULT:      -4.2      2.762      3.821
REMARK  22 active torsions:
REMARK  status: ('A' for Active; 'I' for Inactive)
REMARK    1  A    between atoms: C_2  and  C_3 
REMARK    2  A    between atoms: C_3  and  C_4 
REMARK    3  A    between atoms: C_4  and  C_5 
REMARK    4  A    between atoms: C_5  and  C_6 
REMARK    5  A    between atoms: C_6  and  C_7 
REMARK    6  A    between atoms: C_7  and  C_8 
REMARK    7  A    between atoms: C_8  and  O_9 
REMARK    8  A    between atoms: O_9  and  C_10 
REMARK    9  A    between atoms: C_10  and  C_11 
REMARK   10  A    between atoms: C_11  and  O_12 
REMARK   11  A    between atoms: O_12  and  C_13 
REMARK   12  A    between atoms: C_13  and  C_14 
REMARK   13  A    between atoms: C_14  and  O_15 
REMARK   14  A    between atoms: O_15  and  C_16 
REMARK   15  A    between atoms: C_16  and  C_17 
REMARK   16  A    between atoms: C_17  and  O_18 
REMARK   17  A    between atoms: O_18  and  C_19 
REMARK   18  A    between atoms: C_19  and  C_20 
REMARK   19  A    between atoms: C_20  and  O_21 
REMARK   20  A    between atoms: O_21  and  C_22 
REMARK   21  A    between atoms: C_22  and  C_23 
REMARK   22  A    between atoms: C_23  and  O_24 
ROOT
HETATM    1  C   UNK N   1      34.417  15.109  10.931  0.00  0.00     0.193 C 
ENDROOT
BRANCH   1   2
HETATM    2  O   UNK N   1      34.747  14.412  12.096  0.00  0.00    -0.387 OA
BRANCH   2   3
HETATM    3  C   UNK N   1      36.111  14.131  11.971  0.00  0.00     0.193 C 
BRANCH   3   4
HETATM    4  C   UNK N   1      36.325  12.637  11.805  0.00  0.00     0.193 C 
BRANCH   4   5
HETATM    5  O   UNK N   1      37.219  12.189  12.780  0.00  0.00    -0.389 OA
BRANCH   5   6
HETATM    6  C   UNK N   1      36.426  11.840  13.875  0.00  0.00     0.167 C 
BRANCH   6   7
HETATM    7  C   UNK N   1      36.886  12.630  15.084  0.00  0.00     0.026 C 
BRANCH   7   8
HETATM    8  C   UNK N   1      35.754  13.464  15.649  0.00  0.00     0.002 C 
BRANCH   8   9
HETATM    9  C   UNK N   1      34.874  12.552  16.478  0.00  0.00     0.000 C 
BRANCH   9  10
HETATM   10  C   UNK N   1      35.564  12.136  17.759  0.00  0.00     0.000 C 
BRANCH  10  11
HETATM   11  C   UNK N   1      35.286  10.663  17.987  0.00  0.00    -0.000 C 
BRANCH  11  12
HETATM   12  C   UNK N   1      34.769  10.019  16.719  0.00  0.00    -0.005 C 
HETATM   13  C   UNK N   1      35.624   8.812  16.394  0.00  0.00     0.005 C 
ENDBRANCH  11  12
ENDBRANCH  10  11
ENDBRANCH   9  10
ENDBRANCH   8   9
ENDBRANCH   7   8
ENDBRANCH   6   7
ENDBRANCH   5   6
ENDBRANCH   4   5
ENDBRANCH   3   4
ENDBRANCH   2   3
ENDBRANCH   1   2
BRANCH   1  14
HETATM   14  C   UNK N   1      35.344  16.299  10.760  0.00  0.00     0.193 C 
BRANCH  14  15
HETATM   15  O   UNK N   1      34.735  17.257   9.949  0.00  0.00    -0.387 OA
BRANCH  15  16
HETATM   16  C   UNK N   1      34.815  16.741   8.655  0.00  0.00     0.193 C 
BRANCH  16  17
HETATM   17  C   UNK N   1      34.092  17.653   7.683  0.00  0.00     0.193 C 
BRANCH  17  18
HETATM   18  O   UNK N   1      34.538  17.372   6.392  0.00  0.00    -0.387 OA
BRANCH  18  19
HETATM   19  C   UNK N   1      33.433  17.564   5.562  0.00  0.00     0.193 C 
BRANCH  19  20
HETATM   20  C   UNK N   1      32.409  16.478   5.842  0.00  0.00     0.193 C 
BRANCH  20  21
HETATM   21  O   UNK N   1      32.902  15.242   5.419  0.00  0.00    -0.387 OA
BRANCH  21  22
HETATM   22  C   UNK N   1      32.258  14.996   4.204  0.00  0.00     0.193 C 
BRANCH  22  23
HETATM   23  C   UNK N   1      33.287  14.762   3.116  0.00  0.00     0.190 C 
BRANCH  23  24
HETATM   24  O   UNK N   1      33.419  15.915   2.343  0.00  0.00    -0.399 OA
HETATM   25  H   UNK N   1      32.893  16.096   1.549  0.00  0.00     0.209 HD
ENDBRANCH  23  24
ENDBRANCH  22  23
ENDBRANCH  21  22
ENDBRANCH  20  21
ENDBRANCH  19  20
ENDBRANCH  18  19
ENDBRANCH  17  18
ENDBRANCH  16  17
ENDBRANCH  15  16
ENDBRANCH  14  15
ENDBRANCH   1  14
TORSDOF 22
ENDMDL
MODEL 6
REMARK VINA RESULT:      -4.1      3.186     10.176
REMARK  22 active torsions:
REMARK  status: ('A' for Active; 'I' for Inactive)
REMARK    1  A    between atoms: C_2  and  C_3 
REMARK    2  A    between atoms: C_3  and  C_4 
REMARK    3  A    between atoms: C_4  and  C_5 
REMARK    4  A    between atoms: C_5  and  C_6 
REMARK    5  A    between atoms: C_6  and  C_7 
REMARK    6  A    between atoms: C_7  and  C_8 
REMARK    7  A    between atoms: C_8  and  O_9 
REMARK    8  A    between atoms: O_9  and  C_10 
REMARK    9  A    between atoms: C_10  and  C_11 
REMARK   10  A    between atoms: C_11  and  O_12 
REMARK   11  A    between atoms: O_12  and  C_13 
REMARK   12  A    between atoms: C_13  and  C_14 
REMARK   13  A    between atoms: C_14  and  O_15 
REMARK   14  A    between atoms: O_15  and  C_16 
REMARK   15  A    between atoms: C_16  and  C_17 
REMARK   16  A    between atoms: C_17  and  O_18 
REMARK   17  A    between atoms: O_18  and  C_19 
REMARK   18  A    between atoms: C_19  and  C_20 
REMARK   19  A    between atoms: C_20  and  O_21 
REMARK   20  A    between atoms: O_21  and  C_22 
REMARK   21  A    between atoms: C_22  and  C_23 
REMARK   22  A    between atoms: C_23  and  O_24 
ROOT
HETATM    1  C   UNK N   1      33.667  17.145   7.086  0.00  0.00     0.193 C 
ENDROOT
BRANCH   1   2
HETATM    2  O   UNK N   1      34.271  17.697   5.953  0.00  0.00    -0.387 OA
BRANCH   2   3
HETATM    3  C   UNK N   1      33.447  17.320   4.889  0.00  0.00     0.193 C 
BRANCH   3   4
HETATM    4  C   UNK N   1      33.426  15.808   4.752  0.00  0.00     0.193 C 
BRANCH   4   5
HETATM    5  O   UNK N   1      32.239  15.419   4.127  0.00  0.00    -0.389 OA
BRANCH   5   6
HETATM    6  C   UNK N   1      31.444  16.566   4.101  0.00  0.00     0.167 C 
BRANCH   6   7
HETATM    7  C   UNK N   1      30.124  16.263   4.780  0.00  0.00     0.026 C 
BRANCH   7   8
HETATM    8  C   UNK N   1      29.375  17.540   5.106  0.00  0.00     0.002 C 
BRANCH   8   9
HETATM    9  C   UNK N   1      28.278  17.710   4.075  0.00  0.00     0.000 C 
BRANCH   9  10
HETATM   10  C   UNK N   1      27.241  18.711   4.535  0.00  0.00     0.000 C 
BRANCH  10  11
HETATM   11  C   UNK N   1      27.966  19.965   4.987  0.00  0.00    -0.000 C 
BRANCH  11  12
HETATM   12  C   UNK N   1      27.503  20.375   6.368  0.00  0.00    -0.005 C 
HETATM   13  C   UNK N   1      26.711  21.662   6.260  0.00  0.00     0.005 C 
ENDBRANCH  11  12
ENDBRANCH  10  11
ENDBRANCH   9  10
ENDBRANCH   8   9
ENDBRANCH   7   8
ENDBRANCH   6   7
ENDBRANCH   5   6
ENDBRANCH   4   5
ENDBRANCH   3   4
ENDBRANCH   2   3
ENDBRANCH   1   2
BRANCH   1  14
HETATM   14  C   UNK N   1      33.638  18.168   8.208  0.00  0.00     0.193 C 
BRANCH  14  15
HETATM   15  O   UNK N   1      34.790  18.046   8.985  0.00  0.00    -0.387 OA
BRANCH  15  16
HETATM   16  C   UNK N   1      34.812  16.712   9.395  0.00  0.00     0.193 C 
BRANCH  16  17
HETATM   17  C   UNK N   1      35.336  16.611  10.814  0.00  0.00     0.193 C 
BRANCH  17  18
HETATM   18  O   UNK N   1      36.073  15.432  10.934  0.00  0.00    -0.387 OA
BRANCH  18  19
HETATM   19  C   UNK N   1      35.918  15.025  12.259  0.00  0.00     0.193 C 
BRANCH  19  20
HETATM   20  C   UNK N   1      35.187  13.693  12.285  0.00  0.00     0.193 C 
BRANCH  20  21
HETATM   21  O   UNK N   1      35.984  12.728  12.904  0.00  0.00    -0.387 OA
BRANCH  21  22
HETATM   22  C   UNK N   1      36.015  13.098  14.251  0.00  0.00     0.193 C 
BRANCH  22  23
HETATM   23  C   UNK N   1      34.980  12.304  15.024  0.00  0.00     0.190 C 
BRANCH  23  24
HETATM   24  O   UNK N   1      34.131  13.179  15.700  0.00  0.00    -0.399 OA
HETATM   25  H   UNK N   1      33.162  13.130  15.660  0.00  0.00     0.209 HD
ENDBRANCH  23  24
ENDBRANCH  22  23
ENDBRANCH  21  22
ENDBRANCH  20  21
ENDBRANCH  19  20
ENDBRANCH  18  19
ENDBRANCH  17  18
ENDBRANCH  16  17
ENDBRANCH  15  16
ENDBRANCH  14  15
ENDBRANCH   1  14
TORSDOF 22
ENDMDL
MODEL 7
REMARK VINA RESULT:      -4.0     10.828     14.406
REMARK  22 active torsions:
REMARK  status: ('A' for Active; 'I' for Inactive)
REMARK    1  A    between atoms: C_2  and  C_3 
REMARK    2  A    between atoms: C_3  and  C_4 
REMARK    3  A    between atoms: C_4  and  C_5 
REMARK    4  A    between atoms: C_5  and  C_6 
REMARK    5  A    between atoms: C_6  and  C_7 
REMARK    6  A    between atoms: C_7  and  C_8 
REMARK    7  A    between atoms: C_8  and  O_9 
REMARK    8  A    between atoms: O_9  and  C_10 
REMARK    9  A    between atoms: C_10  and  C_11 
REMARK   10  A    between atoms: C_11  and  O_12 
REMARK   11  A    between atoms: O_12  and  C_13 
REMARK   12  A    between atoms: C_13  and  C_14 
REMARK   13  A    between atoms: C_14  and  O_15 
REMARK   14  A    between atoms: O_15  and  C_16 
REMARK   15  A    between atoms: C_16  and  C_17 
REMARK   16  A    between atoms: C_17  and  O_18 
REMARK   17  A    between atoms: O_18  and  C_19 
REMARK   18  A    between atoms: C_19  and  C_20 
REMARK   19  A    between atoms: C_20  and  O_21 
REMARK   20  A    between atoms: O_21  and  C_22 
REMARK   21  A    between atoms: C_22  and  C_23 
REMARK   22  A    between atoms: C_23  and  O_24 
ROOT
HETATM    1  C   UNK N   1      19.860  12.717   4.818  0.00  0.00     0.193 C 
ENDROOT
BRANCH   1   2
HETATM    2  O   UNK N   1      19.793  13.513   5.965  0.00  0.00    -0.387 OA
BRANCH   2   3
HETATM    3  C   UNK N   1      21.085  13.481   6.497  0.00  0.00     0.193 C 
BRANCH   3   4
HETATM    4  C   UNK N   1      21.505  14.873   6.936  0.00  0.00     0.193 C 
BRANCH   4   5
HETATM    5  O   UNK N   1      22.898  14.927   7.025  0.00  0.00    -0.389 OA
BRANCH   5   6
HETATM    6  C   UNK N   1      23.317  13.595   7.035  0.00  0.00     0.167 C 
BRANCH   6   7
HETATM    7  C   UNK N   1      24.465  13.451   8.013  0.00  0.00     0.026 C 
BRANCH   7   8
HETATM    8  C   UNK N   1      24.295  12.214   8.871  0.00  0.00     0.002 C 
BRANCH   8   9
HETATM    9  C   UNK N   1      24.790  12.543  10.265  0.00  0.00     0.000 C 
BRANCH   9  10
HETATM   10  C   UNK N   1      23.763  12.177  11.314  0.00  0.00     0.000 C 
BRANCH  10  11
HETATM   11  C   UNK N   1      22.558  11.586  10.608  0.00  0.00    -0.000 C 
BRANCH  11  12
HETATM   12  C   UNK N   1      21.284  12.237  11.101  0.00  0.00    -0.005 C 
HETATM   13  C   UNK N   1      20.968  13.431  10.224  0.00  0.00     0.005 C 
ENDBRANCH  11  12
ENDBRANCH  10  11
ENDBRANCH   9  10
ENDBRANCH   8   9
ENDBRANCH   7   8
ENDBRANCH   6   7
ENDBRANCH   5   6
ENDBRANCH   4   5
ENDBRANCH   3   4
ENDBRANCH   2   3
ENDBRANCH   1   2
BRANCH   1  14
HETATM   14  C   UNK N   1      18.667  13.000   3.921  0.00  0.00     0.193 C 
BRANCH  14  15
HETATM   15  O   UNK N   1      18.948  14.089   3.095  0.00  0.00    -0.387 OA
BRANCH  15  16
HETATM   16  C   UNK N   1      20.315  14.001   2.832  0.00  0.00     0.193 C 
BRANCH  16  17
HETATM   17  C   UNK N   1      20.748  15.143   1.933  0.00  0.00     0.193 C 
BRANCH  17  18
HETATM   18  O   UNK N   1      19.805  15.292   0.916  0.00  0.00    -0.387 OA
BRANCH  18  19
HETATM   19  C   UNK N   1      19.765  16.659   0.638  0.00  0.00     0.193 C 
BRANCH  19  20
HETATM   20  C   UNK N   1      20.364  17.420   1.807  0.00  0.00     0.193 C 
BRANCH  20  21
HETATM   21  O   UNK N   1      20.545  18.760   1.457  0.00  0.00    -0.387 OA
BRANCH  21  22
HETATM   22  C   UNK N   1      20.009  19.484   2.525  0.00  0.00     0.193 C 
BRANCH  22  23
HETATM   23  C   UNK N   1      20.871  20.700   2.804  0.00  0.00     0.190 C 
BRANCH  23  24
HETATM   24  O   UNK N   1      20.852  21.549   1.699  0.00  0.00    -0.399 OA
HETATM   25  H   UNK N   1      21.649  21.915   1.285  0.00  0.00     0.209 HD
ENDBRANCH  23  24
ENDBRANCH  22  23
ENDBRANCH  21  22
ENDBRANCH  20  21
ENDBRANCH  19  20
ENDBRANCH  18  19
ENDBRANCH  17  18
ENDBRANCH  16  17
ENDBRANCH  15  16
ENDBRANCH  14  15
ENDBRANCH   1  14
TORSDOF 22
ENDMDL
MODEL 8
REMARK VINA RESULT:      -4.0      8.500     11.588
REMARK  22 active torsions:
REMARK  status: ('A' for Active; 'I' for Inactive)
REMARK    1  A    between atoms: C_2  and  C_3 
REMARK    2  A    between atoms: C_3  and  C_4 
REMARK    3  A    between atoms: C_4  and  C_5 
REMARK    4  A    between atoms: C_5  and  C_6 
REMARK    5  A    between atoms: C_6  and  C_7 
REMARK    6  A    between atoms: C_7  and  C_8 
REMARK    7  A    between atoms: C_8  and  O_9 
REMARK    8  A    between atoms: O_9  and  C_10 
REMARK    9  A    between atoms: C_10  and  C_11 
REMARK   10  A    between atoms: C_11  and  O_12 
REMARK   11  A    between atoms: O_12  and  C_13 
REMARK   12  A    between atoms: C_13  and  C_14 
REMARK   13  A    between atoms: C_14  and  O_15 
REMARK   14  A    between atoms: O_15  and  C_16 
REMARK   15  A    between atoms: C_16  and  C_17 
REMARK   16  A    between atoms: C_17  and  O_18 
REMARK   17  A    between atoms: O_18  and  C_19 
REMARK   18  A    between atoms: C_19  and  C_20 
REMARK   19  A    between atoms: C_20  and  O_21 
REMARK   20  A    between atoms: O_21  and  C_22 
REMARK   21  A    between atoms: C_22  and  C_23 
REMARK   22  A    between atoms: C_23  and  O_24 
ROOT
HETATM    1  C   UNK N   1      24.394  15.925   5.371  0.00  0.00     0.193 C 
ENDROOT
BRANCH   1   2
HETATM    2  O   UNK N   1      24.035  14.851   6.190  0.00  0.00    -0.387 OA
BRANCH   2   3
HETATM    3  C   UNK N   1      25.073  14.747   7.120  0.00  0.00     0.193 C 
BRANCH   3   4
HETATM    4  C   UNK N   1      25.010  13.406   7.829  0.00  0.00     0.193 C 
BRANCH   4   5
HETATM    5  O   UNK N   1      25.200  13.600   9.199  0.00  0.00    -0.389 OA
BRANCH   5   6
HETATM    6  C   UNK N   1      24.752  12.424   9.803  0.00  0.00     0.167 C 
BRANCH   6   7
HETATM    7  C   UNK N   1      23.328  12.157   9.358  0.00  0.00     0.026 C 
BRANCH   7   8
HETATM    8  C   UNK N   1      22.436  11.856  10.545  0.00  0.00     0.002 C 
BRANCH   8   9
HETATM    9  C   UNK N   1      21.231  12.771  10.464  0.00  0.00     0.000 C 
BRANCH   9  10
HETATM   10  C   UNK N   1      21.566  14.059   9.743  0.00  0.00     0.000 C 
BRANCH  10  11
HETATM   11  C   UNK N   1      20.340  14.494   8.964  0.00  0.00    -0.000 C 
BRANCH  11  12
HETATM   12  C   UNK N   1      20.697  14.751   7.516  0.00  0.00    -0.005 C 
HETATM   13  C   UNK N   1      20.818  13.425   6.794  0.00  0.00     0.005 C 
ENDBRANCH  11  12
ENDBRANCH  10  11
ENDBRANCH   9  10
ENDBRANCH   8   9
ENDBRANCH   7   8
ENDBRANCH   6   7
ENDBRANCH   5   6
ENDBRANCH   4   5
ENDBRANCH   3   4
ENDBRANCH   2   3
ENDBRANCH   1   2
BRANCH   1  14
HETATM   14  C   UNK N   1      23.237  16.901   5.260  0.00  0.00     0.193 C 
BRANCH  14  15
HETATM   15  O   UNK N   1      23.575  17.935   4.387  0.00  0.00    -0.387 OA
BRANCH  15  16
HETATM   16  C   UNK N   1      24.965  18.037   4.468  0.00  0.00     0.193 C 
BRANCH  16  17
HETATM   17  C   UNK N   1      25.375  19.491   4.600  0.00  0.00     0.193 C 
BRANCH  17  18
HETATM   18  O   UNK N   1      26.768  19.564   4.580  0.00  0.00    -0.387 OA
BRANCH  18  19
HETATM   19  C   UNK N   1      27.188  19.081   5.819  0.00  0.00     0.193 C 
BRANCH  19  20
HETATM   20  C   UNK N   1      28.522  18.375   5.649  0.00  0.00     0.193 C 
BRANCH  20  21
HETATM   21  O   UNK N   1      29.007  17.972   6.895  0.00  0.00    -0.387 OA
BRANCH  21  22
HETATM   22  C   UNK N   1      28.016  17.133   7.412  0.00  0.00     0.193 C 
BRANCH  22  23
HETATM   23  C   UNK N   1      27.999  17.231   8.924  0.00  0.00     0.190 C 
BRANCH  23  24
HETATM   24  O   UNK N   1      27.407  18.434   9.307  0.00  0.00    -0.399 OA
HETATM   25  H   UNK N   1      26.995  18.582  10.173  0.00  0.00     0.209 HD
ENDBRANCH  23  24
ENDBRANCH  22  23
ENDBRANCH  21  22
ENDBRANCH  20  21
ENDBRANCH  19  20
ENDBRANCH  18  19
ENDBRANCH  17  18
ENDBRANCH  16  17
ENDBRANCH  15  16
ENDBRANCH  14  15
ENDBRANCH   1  14
TORSDOF 22
ENDMDL
MODEL 9
REMARK VINA RESULT:      -4.0      2.347      5.028
REMARK  22 active torsions:
REMARK  status: ('A' for Active; 'I' for Inactive)
REMARK    1  A    between atoms: C_2  and  C_3 
REMARK    2  A    between atoms: C_3  and  C_4 
REMARK    3  A    between atoms: C_4  and  C_5 
REMARK    4  A    between atoms: C_5  and  C_6 
REMARK    5  A    between atoms: C_6  and  C_7 
REMARK    6  A    between atoms: C_7  and  C_8 
REMARK    7  A    between atoms: C_8  and  O_9 
REMARK    8  A    between atoms: O_9  and  C_10 
REMARK    9  A    between atoms: C_10  and  C_11 
REMARK   10  A    between atoms: C_11  and  O_12 
REMARK   11  A    between atoms: O_12  and  C_13 
REMARK   12  A    between atoms: C_13  and  C_14 
REMARK   13  A    between atoms: C_14  and  O_15 
REMARK   14  A    between atoms: O_15  and  C_16 
REMARK   15  A    between atoms: C_16  and  C_17 
REMARK   16  A    between atoms: C_17  and  O_18 
REMARK   17  A    between atoms: O_18  and  C_19 
REMARK   18  A    between atoms: C_19  and  C_20 
REMARK   19  A    between atoms: C_20  and  O_21 
REMARK   20  A    between atoms: O_21  and  C_22 
REMARK   21  A    between atoms: C_22  and  C_23 
REMARK   22  A    between atoms: C_23  and  O_24 
ROOT
HETATM    1  C   UNK N   1      32.116  16.362   8.570  0.00  0.00     0.193 C 
ENDROOT
BRANCH   1   2
HETATM    2  O   UNK N   1      32.946  17.422   8.195  0.00  0.00    -0.387 OA
BRANCH   2   3
HETATM    3  C   UNK N   1      34.246  16.944   8.389  0.00  0.00     0.193 C 
BRANCH   3   4
HETATM    4  C   UNK N   1      34.389  16.368   9.787  0.00  0.00     0.193 C 
BRANCH   4   5
HETATM    5  O   UNK N   1      35.721  16.472  10.193  0.00  0.00    -0.389 OA
BRANCH   5   6
HETATM    6  C   UNK N   1      35.760  15.919  11.475  0.00  0.00     0.167 C 
BRANCH   6   7
HETATM    7  C   UNK N   1      34.866  14.696  11.506  0.00  0.00     0.026 C 
BRANCH   7   8
HETATM    8  C   UNK N   1      35.687  13.423  11.484  0.00  0.00     0.002 C 
BRANCH   8   9
HETATM    9  C   UNK N   1      36.563  13.414  12.720  0.00  0.00     0.000 C 
BRANCH   9  10
HETATM   10  C   UNK N   1      35.890  12.692  13.867  0.00  0.00     0.000 C 
BRANCH  10  11
HETATM   11  C   UNK N   1      35.968  13.580  15.093  0.00  0.00    -0.000 C 
BRANCH  11  12
HETATM   12  C   UNK N   1      36.871  14.766  14.831  0.00  0.00    -0.005 C 
HETATM   13  C   UNK N   1      37.313  15.352  16.156  0.00  0.00     0.005 C 
ENDBRANCH  11  12
ENDBRANCH  10  11
ENDBRANCH   9  10
ENDBRANCH   8   9
ENDBRANCH   7   8
ENDBRANCH   6   7
ENDBRANCH   5   6
ENDBRANCH   4   5
ENDBRANCH   3   4
ENDBRANCH   2   3
ENDBRANCH   1   2
BRANCH   1  14
HETATM   14  C   UNK N   1      30.772  16.895   9.033  0.00  0.00     0.193 C 
BRANCH  14  15
HETATM   15  O   UNK N   1      30.622  18.218   8.616  0.00  0.00    -0.387 OA
BRANCH  15  16
HETATM   16  C   UNK N   1      29.293  18.537   8.896  0.00  0.00     0.193 C 
BRANCH  16  17
HETATM   17  C   UNK N   1      28.370  17.845   7.911  0.00  0.00     0.193 C 
BRANCH  17  18
HETATM   18  O   UNK N   1      28.649  18.320   6.630  0.00  0.00    -0.387 OA
BRANCH  18  19
HETATM   19  C   UNK N   1      28.836  17.185   5.840  0.00  0.00     0.193 C 
BRANCH  19  20
HETATM   20  C   UNK N   1      29.866  17.492   4.768  0.00  0.00     0.193 C 
BRANCH  20  21
HETATM   21  O   UNK N   1      31.144  17.513   5.331  0.00  0.00    -0.387 OA
BRANCH  21  22
HETATM   22  C   UNK N   1      31.766  16.356   4.854  0.00  0.00     0.193 C 
BRANCH  22  23
HETATM   23  C   UNK N   1      33.229  16.639   4.576  0.00  0.00     0.190 C 
BRANCH  23  24
HETATM   24  O   UNK N   1      33.604  17.822   5.209  0.00  0.00    -0.399 OA
HETATM   25  H   UNK N   1      33.654  17.927   6.173  0.00  0.00     0.209 HD
ENDBRANCH  23  24
ENDBRANCH  22  23
ENDBRANCH  21  22
ENDBRANCH  20  21
ENDBRANCH  19  20
ENDBRANCH  18  19
ENDBRANCH  17  18
ENDBRANCH  16  17
ENDBRANCH  15  16
ENDBRANCH  14  15
ENDBRANCH   1  14
TORSDOF 22
ENDMDL
