MODEL 1
REMARK VINA RESULT:      -6.9      0.000      0.000
REMARK  7 active torsions:
REMARK  status: ('A' for Active; 'I' for Inactive)
REMARK    1  A    between atoms: C_3  and  C_7 
REMARK       I    between atoms: N_10  and  C_19 
REMARK    2  A    between atoms: C_11  and  C_13 
REMARK    3  A    between atoms: C_11  and  C_25 
REMARK       I    between atoms: C_19  and  N_20 
REMARK    4  A    between atoms: N_20  and  C_21 
REMARK    5  A    between atoms: C_25  and  C_26 
REMARK    6  A    between atoms: C_26  and  C_28 
REMARK    7  A    between atoms: C_28  and  N_29 
ROOT
HETATM    1  C   UNK N   1      29.354  16.818   5.916  0.00  0.00     0.042 C 
HETATM    2  N   UNK N   1      29.347  16.584   4.668  0.00  0.00    -0.297 N 
ATOM      3  HN  UNK N   1      30.158  16.281   4.128  1.00  0.00     0.187 HD
HETATM    4  N   UNK N   1      28.111  16.795   4.154  0.00  0.00    -0.228 N 
HETATM    5  C   UNK N   1      27.312  17.605   5.084  0.00  0.00     0.091 C 
HETATM    6  C   UNK N   1      27.943  17.123   6.421  0.00  0.00     0.098 C 
HETATM    7  C   UNK N   1      27.703  16.095   3.049  0.00  0.00     0.338 C 
HETATM    8  N   UNK N   1      26.416  16.118   2.632  0.00  0.00    -0.342 N 
HETATM    9  O   UNK N   1      28.513  15.390   2.458  0.00  0.00    -0.245 OA
HETATM   10  H   UNK N   1      25.773  16.701   3.097  0.00  0.00     0.164 HD
ENDROOT
BRANCH   5  11
HETATM   11  C   UNK N   1      25.803  17.585   4.844  0.00  0.00    -0.028 A 
HETATM   12  C   UNK N   1      25.139  18.592   4.133  0.00  0.00     0.010 A 
HETATM   13  C   UNK N   1      23.740  18.561   4.022  0.00  0.00     0.001 A 
HETATM   14  C   UNK N   1      22.999  17.540   4.631  0.00  0.00     0.000 A 
HETATM   15  C   UNK N   1      23.650  16.545   5.357  0.00  0.00     0.001 A 
HETATM   16  C   UNK N   1      25.035  16.576   5.470  0.00  0.00     0.010 A 
ENDBRANCH   5  11
BRANCH   5  17
HETATM   17  C   UNK N   1      27.741  19.099   5.088  0.00  0.00     0.040 C 
BRANCH  17  18
HETATM   18  C   UNK N   1      27.628  19.656   6.523  0.00  0.00     0.022 C 
BRANCH  18  19
HETATM   19  C   UNK N   1      26.754  20.880   6.610  0.00  0.00     0.111 C 
BRANCH  19  20
HETATM   20  N   UNK N   1      26.053  20.868   7.879  0.00  0.00    -0.430 N 
HETATM   21  H   UNK N   1      26.540  21.127   8.737  0.00  0.00     0.149 HD
HETATM   22  H   UNK N   1      25.069  20.601   7.914  0.00  0.00     0.149 HD
ENDBRANCH  19  20
ENDBRANCH  18  19
ENDBRANCH  17  18
ENDBRANCH   5  17
BRANCH   1  23
HETATM   23  C   UNK N   1      30.636  17.114   6.594  0.00  0.00     0.029 A 
HETATM   24  C   UNK N   1      31.822  17.127   5.845  0.00  0.00     0.058 A 
HETATM   25  C   UNK N   1      33.034  17.487   6.439  0.00  0.00     0.117 A 
HETATM   26  C   UNK N   1      33.065  17.873   7.780  0.00  0.00     0.045 A 
HETATM   27  F   UNK N   1      34.177  17.466   5.713  0.00  0.00    -0.206 F 
HETATM   28  C   UNK N   1      31.887  17.886   8.530  0.00  0.00     0.046 A 
HETATM   29  C   UNK N   1      30.675  17.499   7.949  0.00  0.00     0.128 A 
HETATM   30  F   UNK N   1      29.539  17.581   8.685  0.00  0.00    -0.205 F 
ENDBRANCH   1  23
BRANCH   8  31
HETATM   31  C   UNK N   1      25.957  15.316   1.525  0.00  0.00     0.120 C 
HETATM   32  C   UNK N   1      24.585  14.761   1.838  0.00  0.00     0.026 C 
ENDBRANCH   8  31
TORSDOF 7
ENDMDL
MODEL 2
REMARK VINA RESULT:      -6.8      2.686      6.570
REMARK  7 active torsions:
REMARK  status: ('A' for Active; 'I' for Inactive)
REMARK    1  A    between atoms: C_3  and  C_7 
REMARK       I    between atoms: N_10  and  C_19 
REMARK    2  A    between atoms: C_11  and  C_13 
REMARK    3  A    between atoms: C_11  and  C_25 
REMARK       I    between atoms: C_19  and  N_20 
REMARK    4  A    between atoms: N_20  and  C_21 
REMARK    5  A    between atoms: C_25  and  C_26 
REMARK    6  A    between atoms: C_26  and  C_28 
REMARK    7  A    between atoms: C_28  and  N_29 
ROOT
HETATM    1  C   UNK N   1      27.565  17.741   3.698  0.00  0.00     0.042 C 
HETATM    2  N   UNK N   1      27.785  16.527   3.400  0.00  0.00    -0.297 N 
ATOM      3  HN  UNK N   1      27.153  15.937   2.858  1.00  0.00     0.187 HD
HETATM    4  N   UNK N   1      28.977  16.124   3.904  0.00  0.00    -0.228 N 
HETATM    5  C   UNK N   1      29.418  17.053   4.954  0.00  0.00     0.091 C 
HETATM    6  C   UNK N   1      28.776  18.357   4.402  0.00  0.00     0.098 C 
HETATM    7  C   UNK N   1      29.685  15.134   3.275  0.00  0.00     0.338 C 
HETATM    8  N   UNK N   1      30.962  14.849   3.618  0.00  0.00    -0.342 N 
HETATM    9  O   UNK N   1      29.164  14.530   2.344  0.00  0.00    -0.245 OA
HETATM   10  H   UNK N   1      31.370  15.323   4.379  0.00  0.00     0.164 HD
ENDROOT
BRANCH   5  11
HETATM   11  C   UNK N   1      30.897  16.971   5.327  0.00  0.00    -0.028 A 
HETATM   12  C   UNK N   1      31.347  16.348   6.497  0.00  0.00     0.010 A 
HETATM   13  C   UNK N   1      32.712  16.383   6.825  0.00  0.00     0.001 A 
HETATM   14  C   UNK N   1      33.627  17.049   6.000  0.00  0.00     0.000 A 
HETATM   15  C   UNK N   1      33.186  17.687   4.844  0.00  0.00     0.001 A 
HETATM   16  C   UNK N   1      31.834  17.656   4.518  0.00  0.00     0.010 A 
ENDBRANCH   5  11
BRANCH   5  17
HETATM   17  C   UNK N   1      28.617  16.878   6.275  0.00  0.00     0.040 C 
BRANCH  17  18
HETATM   18  C   UNK N   1      28.275  18.269   6.850  0.00  0.00     0.022 C 
BRANCH  18  19
HETATM   19  C   UNK N   1      28.796  18.470   8.249  0.00  0.00     0.111 C 
BRANCH  19  20
HETATM   20  N   UNK N   1      27.679  18.466   9.173  0.00  0.00    -0.430 N 
HETATM   21  H   UNK N   1      26.843  19.015   8.971  0.00  0.00     0.149 HD
HETATM   22  H   UNK N   1      27.729  17.911  10.028  0.00  0.00     0.149 HD
ENDBRANCH  19  20
ENDBRANCH  18  19
ENDBRANCH  17  18
ENDBRANCH   5  17
BRANCH   1  23
HETATM   23  C   UNK N   1      26.178  18.256   3.679  0.00  0.00     0.029 A 
HETATM   24  C   UNK N   1      25.128  17.417   4.084  0.00  0.00     0.058 A 
HETATM   25  C   UNK N   1      23.820  17.901   4.159  0.00  0.00     0.117 A 
HETATM   26  C   UNK N   1      23.554  19.238   3.864  0.00  0.00     0.045 A 
HETATM   27  F   UNK N   1      22.812  17.073   4.524  0.00  0.00    -0.206 F 
HETATM   28  C   UNK N   1      24.594  20.089   3.482  0.00  0.00     0.046 A 
HETATM   29  C   UNK N   1      25.902  19.604   3.377  0.00  0.00     0.128 A 
HETATM   30  F   UNK N   1      26.898  20.468   3.063  0.00  0.00    -0.205 F 
ENDBRANCH   1  23
BRANCH   8  31
HETATM   31  C   UNK N   1      31.746  13.873   2.903  0.00  0.00     0.120 C 
HETATM   32  C   UNK N   1      33.168  14.369   2.764  0.00  0.00     0.026 C 
ENDBRANCH   8  31
TORSDOF 7
ENDMDL
MODEL 3
REMARK VINA RESULT:      -6.6      6.875      8.831
REMARK  7 active torsions:
REMARK  status: ('A' for Active; 'I' for Inactive)
REMARK    1  A    between atoms: C_3  and  C_7 
REMARK       I    between atoms: N_10  and  C_19 
REMARK    2  A    between atoms: C_11  and  C_13 
REMARK    3  A    between atoms: C_11  and  C_25 
REMARK       I    between atoms: C_19  and  N_20 
REMARK    4  A    between atoms: N_20  and  C_21 
REMARK    5  A    between atoms: C_25  and  C_26 
REMARK    6  A    between atoms: C_26  and  C_28 
REMARK    7  A    between atoms: C_28  and  N_29 
ROOT
HETATM    1  C   UNK N   1      22.340  14.245   7.902  0.00  0.00     0.042 C 
HETATM    2  N   UNK N   1      21.730  15.358   7.855  0.00  0.00    -0.297 N 
ATOM      3  HN  UNK N   1      21.532  15.948   8.663  1.00  0.00     0.187 HD
HETATM    4  N   UNK N   1      21.379  15.650   6.579  0.00  0.00    -0.228 N 
HETATM    5  C   UNK N   1      21.433  14.436   5.752  0.00  0.00     0.091 C 
HETATM    6  C   UNK N   1      22.580  13.695   6.495  0.00  0.00     0.098 C 
HETATM    7  C   UNK N   1      21.260  16.958   6.187  0.00  0.00     0.338 C 
HETATM    8  N   UNK N   1      21.118  17.296   4.884  0.00  0.00    -0.342 N 
HETATM    9  O   UNK N   1      21.338  17.842   7.032  0.00  0.00    -0.245 OA
HETATM   10  H   UNK N   1      21.036  16.582   4.211  0.00  0.00     0.164 HD
ENDROOT
BRANCH   5  11
HETATM   11  C   UNK N   1      21.461  14.670   4.243  0.00  0.00    -0.028 A 
HETATM   12  C   UNK N   1      20.300  14.693   3.461  0.00  0.00     0.010 A 
HETATM   13  C   UNK N   1      20.400  14.825   2.067  0.00  0.00     0.001 A 
HETATM   14  C   UNK N   1      21.653  14.918   1.447  0.00  0.00     0.000 A 
HETATM   15  C   UNK N   1      22.814  14.876   2.215  0.00  0.00     0.001 A 
HETATM   16  C   UNK N   1      22.717  14.743   3.596  0.00  0.00     0.010 A 
ENDBRANCH   5  11
BRANCH   5  17
HETATM   17  C   UNK N   1      20.243  13.476   6.031  0.00  0.00     0.040 C 
BRANCH  17  18
HETATM   18  C   UNK N   1      20.735  12.016   5.926  0.00  0.00     0.022 C 
BRANCH  18  19
HETATM   19  C   UNK N   1      19.960  11.208   4.918  0.00  0.00     0.111 C 
BRANCH  19  20
HETATM   20  N   UNK N   1      20.743  11.094   3.704  0.00  0.00    -0.430 N 
HETATM   21  H   UNK N   1      21.737  11.322   3.710  0.00  0.00     0.149 HD
HETATM   22  H   UNK N   1      20.298  10.784   2.839  0.00  0.00     0.149 HD
ENDBRANCH  19  20
ENDBRANCH  18  19
ENDBRANCH  17  18
ENDBRANCH   5  17
BRANCH   1  23
HETATM   23  C   UNK N   1      22.403  13.503   9.181  0.00  0.00     0.029 A 
HETATM   24  C   UNK N   1      21.211  13.193   9.854  0.00  0.00     0.058 A 
HETATM   25  C   UNK N   1      21.232  12.420  11.018  0.00  0.00     0.117 A 
HETATM   26  C   UNK N   1      22.442  11.919  11.499  0.00  0.00     0.045 A 
HETATM   27  F   UNK N   1      20.078  12.153  11.674  0.00  0.00    -0.206 F 
HETATM   28  C   UNK N   1      23.633  12.201  10.825  0.00  0.00     0.046 A 
HETATM   29  C   UNK N   1      23.622  12.999   9.676  0.00  0.00     0.128 A 
HETATM   30  F   UNK N   1      24.784  13.205   9.010  0.00  0.00    -0.205 F 
ENDBRANCH   1  23
BRANCH   8  31
HETATM   31  C   UNK N   1      21.084  18.670   4.451  0.00  0.00     0.120 C 
HETATM   32  C   UNK N   1      22.281  18.953   3.570  0.00  0.00     0.026 C 
ENDBRANCH   8  31
TORSDOF 7
ENDMDL
MODEL 4
REMARK VINA RESULT:      -6.6     13.189     14.973
REMARK  7 active torsions:
REMARK  status: ('A' for Active; 'I' for Inactive)
REMARK    1  A    between atoms: C_3  and  C_7 
REMARK       I    between atoms: N_10  and  C_19 
REMARK    2  A    between atoms: C_11  and  C_13 
REMARK    3  A    between atoms: C_11  and  C_25 
REMARK       I    between atoms: C_19  and  N_20 
REMARK    4  A    between atoms: N_20  and  C_21 
REMARK    5  A    between atoms: C_25  and  C_26 
REMARK    6  A    between atoms: C_26  and  C_28 
REMARK    7  A    between atoms: C_28  and  N_29 
ROOT
HETATM    1  C   UNK N   1      27.233  26.291  -5.212  0.00  0.00     0.042 C 
HETATM    2  N   UNK N   1      28.353  25.695  -5.246  0.00  0.00    -0.297 N 
ATOM      3  HN  UNK N   1      29.197  26.013  -4.770  1.00  0.00     0.187 HD
HETATM    4  N   UNK N   1      28.269  24.575  -6.005  0.00  0.00    -0.228 N 
HETATM    5  C   UNK N   1      27.076  24.635  -6.860  0.00  0.00     0.091 C 
HETATM    6  C   UNK N   1      26.157  25.471  -5.925  0.00  0.00     0.098 C 
HETATM    7  C   UNK N   1      29.089  23.509  -5.740  0.00  0.00     0.338 C 
HETATM    8  N   UNK N   1      28.898  22.306  -6.330  0.00  0.00    -0.342 N 
HETATM    9  O   UNK N   1      29.982  23.636  -4.911  0.00  0.00    -0.245 OA
HETATM   10  H   UNK N   1      28.193  22.213  -7.011  0.00  0.00     0.164 HD
ENDROOT
BRANCH   5  11
HETATM   11  C   UNK N   1      26.628  23.303  -7.460  0.00  0.00    -0.028 A 
HETATM   12  C   UNK N   1      27.126  22.818  -8.675  0.00  0.00     0.010 A 
HETATM   13  C   UNK N   1      26.610  21.630  -9.216  0.00  0.00     0.001 A 
HETATM   14  C   UNK N   1      25.589  20.931  -8.558  0.00  0.00     0.000 A 
HETATM   15  C   UNK N   1      25.075  21.416  -7.358  0.00  0.00     0.001 A 
HETATM   16  C   UNK N   1      25.583  22.595  -6.822  0.00  0.00     0.010 A 
ENDBRANCH   5  11
BRANCH   5  17
HETATM   17  C   UNK N   1      27.248  25.622  -8.049  0.00  0.00     0.040 C 
BRANCH  17  18
HETATM   18  C   UNK N   1      25.857  26.116  -8.504  0.00  0.00     0.022 C 
BRANCH  18  19
HETATM   19  C   UNK N   1      25.715  26.163 -10.002  0.00  0.00     0.111 C 
BRANCH  19  20
HETATM   20  N   UNK N   1      24.920  25.029 -10.435  0.00  0.00    -0.430 N 
HETATM   21  H   UNK N   1      24.457  24.434  -9.748  0.00  0.00     0.149 HD
HETATM   22  H   UNK N   1      24.823  24.827 -11.431  0.00  0.00     0.149 HD
ENDBRANCH  19  20
ENDBRANCH  18  19
ENDBRANCH  17  18
ENDBRANCH   5  17
BRANCH   1  23
HETATM   23  C   UNK N   1      27.184  27.729  -4.863  0.00  0.00     0.029 A 
HETATM   24  C   UNK N   1      27.874  28.653  -5.662  0.00  0.00     0.058 A 
HETATM   25  C   UNK N   1      27.777  30.024  -5.409  0.00  0.00     0.117 A 
HETATM   26  C   UNK N   1      26.959  30.485  -4.376  0.00  0.00     0.045 A 
HETATM   27  F   UNK N   1      28.472  30.904  -6.168  0.00  0.00    -0.206 F 
HETATM   28  C   UNK N   1      26.249  29.576  -3.589  0.00  0.00     0.046 A 
HETATM   29  C   UNK N   1      26.364  28.201  -3.818  0.00  0.00     0.128 A 
HETATM   30  F   UNK N   1      25.616  27.347  -3.078  0.00  0.00    -0.205 F 
ENDBRANCH   1  23
BRANCH   8  31
HETATM   31  C   UNK N   1      29.698  21.155  -5.992  0.00  0.00     0.120 C 
HETATM   32  C   UNK N   1      29.664  20.163  -7.135  0.00  0.00     0.026 C 
ENDBRANCH   8  31
TORSDOF 7
ENDMDL
MODEL 5
REMARK VINA RESULT:      -6.5      5.270      8.517
REMARK  7 active torsions:
REMARK  status: ('A' for Active; 'I' for Inactive)
REMARK    1  A    between atoms: C_3  and  C_7 
REMARK       I    between atoms: N_10  and  C_19 
REMARK    2  A    between atoms: C_11  and  C_13 
REMARK    3  A    between atoms: C_11  and  C_25 
REMARK       I    between atoms: C_19  and  N_20 
REMARK    4  A    between atoms: N_20  and  C_21 
REMARK    5  A    between atoms: C_25  and  C_26 
REMARK    6  A    between atoms: C_26  and  C_28 
REMARK    7  A    between atoms: C_28  and  N_29 
ROOT
HETATM    1  C   UNK N   1      21.374  17.072   4.920  0.00  0.00     0.042 C 
HETATM    2  N   UNK N   1      21.123  17.210   6.156  0.00  0.00    -0.297 N 
ATOM      3  HN  UNK N   1      20.633  18.005   6.566  1.00  0.00     0.187 HD
HETATM    4  N   UNK N   1      21.599  16.150   6.856  0.00  0.00    -0.228 N 
HETATM    5  C   UNK N   1      22.588  15.420   6.051  0.00  0.00     0.091 C 
HETATM    6  C   UNK N   1      22.002  15.705   4.640  0.00  0.00     0.098 C 
HETATM    7  C   UNK N   1      20.988  15.774   8.024  0.00  0.00     0.338 C 
HETATM    8  N   UNK N   1      21.294  14.609   8.639  0.00  0.00    -0.342 N 
HETATM    9  O   UNK N   1      20.106  16.486   8.490  0.00  0.00    -0.245 OA
HETATM   10  H   UNK N   1      22.017  14.049   8.272  0.00  0.00     0.164 HD
ENDROOT
BRANCH   5  11
HETATM   11  C   UNK N   1      22.906  14.004   6.527  0.00  0.00    -0.028 A 
HETATM   12  C   UNK N   1      23.983  13.716   7.374  0.00  0.00     0.010 A 
HETATM   13  C   UNK N   1      24.275  12.384   7.705  0.00  0.00     0.001 A 
HETATM   14  C   UNK N   1      23.507  11.335   7.182  0.00  0.00     0.000 A 
HETATM   15  C   UNK N   1      22.446  11.610   6.324  0.00  0.00     0.001 A 
HETATM   16  C   UNK N   1      22.157  12.929   5.993  0.00  0.00     0.010 A 
ENDBRANCH   5  11
BRANCH   5  17
HETATM   17  C   UNK N   1      23.945  16.171   5.955  0.00  0.00     0.040 C 
BRANCH  17  18
HETATM   18  C   UNK N   1      24.595  15.873   4.586  0.00  0.00     0.022 C 
BRANCH  18  19
HETATM   19  C   UNK N   1      25.631  16.893   4.195  0.00  0.00     0.111 C 
BRANCH  19  20
HETATM   20  N   UNK N   1      25.807  17.829   5.289  0.00  0.00    -0.430 N 
HETATM   21  H   UNK N   1      25.960  17.487   6.238  0.00  0.00     0.149 HD
HETATM   22  H   UNK N   1      25.777  18.833   5.108  0.00  0.00     0.149 HD
ENDBRANCH  19  20
ENDBRANCH  18  19
ENDBRANCH  17  18
ENDBRANCH   5  17
BRANCH   1  23
HETATM   23  C   UNK N   1      21.385  18.264   4.042  0.00  0.00     0.029 A 
HETATM   24  C   UNK N   1      22.568  19.007   3.908  0.00  0.00     0.058 A 
HETATM   25  C   UNK N   1      22.634  20.085   3.022  0.00  0.00     0.117 A 
HETATM   26  C   UNK N   1      21.528  20.407   2.234  0.00  0.00     0.045 A 
HETATM   27  F   UNK N   1      23.772  20.813   2.924  0.00  0.00    -0.206 F 
HETATM   28  C   UNK N   1      20.352  19.660   2.342  0.00  0.00     0.046 A 
HETATM   29  C   UNK N   1      20.270  18.598   3.248  0.00  0.00     0.128 A 
HETATM   30  F   UNK N   1      19.138  17.854   3.286  0.00  0.00    -0.205 F 
ENDBRANCH   1  23
BRANCH   8  31
HETATM   31  C   UNK N   1      20.595  14.160   9.817  0.00  0.00     0.120 C 
HETATM   32  C   UNK N   1      21.192  12.854  10.293  0.00  0.00     0.026 C 
ENDBRANCH   8  31
TORSDOF 7
ENDMDL
MODEL 6
REMARK VINA RESULT:      -6.4      6.888      8.838
REMARK  7 active torsions:
REMARK  status: ('A' for Active; 'I' for Inactive)
REMARK    1  A    between atoms: C_3  and  C_7 
REMARK       I    between atoms: N_10  and  C_19 
REMARK    2  A    between atoms: C_11  and  C_13 
REMARK    3  A    between atoms: C_11  and  C_25 
REMARK       I    between atoms: C_19  and  N_20 
REMARK    4  A    between atoms: N_20  and  C_21 
REMARK    5  A    between atoms: C_25  and  C_26 
REMARK    6  A    between atoms: C_26  and  C_28 
REMARK    7  A    between atoms: C_28  and  N_29 
ROOT
HETATM    1  C   UNK N   1      22.043  15.695   5.222  0.00  0.00     0.042 C 
HETATM    2  N   UNK N   1      21.724  14.529   4.835  0.00  0.00    -0.297 N 
ATOM      3  HN  UNK N   1      21.447  14.287   3.884  1.00  0.00     0.187 HD
HETATM    4  N   UNK N   1      21.801  13.651   5.865  0.00  0.00    -0.228 N 
HETATM    5  C   UNK N   1      21.814  14.376   7.143  0.00  0.00     0.091 C 
HETATM    6  C   UNK N   1      22.529  15.674   6.673  0.00  0.00     0.098 C 
HETATM    7  C   UNK N   1      22.078  12.332   5.618  0.00  0.00     0.338 C 
HETATM    8  N   UNK N   1      22.370  11.470   6.619  0.00  0.00    -0.342 N 
HETATM    9  O   UNK N   1      22.114  11.939   4.458  0.00  0.00    -0.245 OA
HETATM   10  H   UNK N   1      22.321  11.785   7.551  0.00  0.00     0.164 HD
ENDROOT
BRANCH   5  11
HETATM   11  C   UNK N   1      22.298  13.574   8.350  0.00  0.00    -0.028 A 
HETATM   12  C   UNK N   1      21.419  12.970   9.256  0.00  0.00     0.010 A 
HETATM   13  C   UNK N   1      21.926  12.320  10.393  0.00  0.00     0.001 A 
HETATM   14  C   UNK N   1      23.305  12.284  10.638  0.00  0.00     0.000 A 
HETATM   15  C   UNK N   1      24.186  12.898   9.751  0.00  0.00     0.001 A 
HETATM   16  C   UNK N   1      23.685  13.544   8.626  0.00  0.00     0.010 A 
ENDBRANCH   5  11
BRANCH   5  17
HETATM   17  C   UNK N   1      20.415  14.941   7.518  0.00  0.00     0.040 C 
BRANCH  17  18
HETATM   18  C   UNK N   1      20.593  16.258   8.304  0.00  0.00     0.022 C 
BRANCH  18  19
HETATM   19  C   UNK N   1      19.290  16.822   8.806  0.00  0.00     0.111 C 
BRANCH  19  20
HETATM   20  N   UNK N   1      19.439  18.251   9.002  0.00  0.00    -0.430 N 
HETATM   21  H   UNK N   1      19.354  18.653   9.935  0.00  0.00     0.149 HD
HETATM   22  H   UNK N   1      19.630  18.856   8.203  0.00  0.00     0.149 HD
ENDBRANCH  19  20
ENDBRANCH  18  19
ENDBRANCH  17  18
ENDBRANCH   5  17
BRANCH   1  23
HETATM   23  C   UNK N   1      21.597  16.870   4.441  0.00  0.00     0.029 A 
HETATM   24  C   UNK N   1      20.987  16.672   3.192  0.00  0.00     0.058 A 
HETATM   25  C   UNK N   1      20.478  17.755   2.471  0.00  0.00     0.117 A 
HETATM   26  C   UNK N   1      20.541  19.041   3.007  0.00  0.00     0.045 A 
HETATM   27  F   UNK N   1      19.918  17.554   1.254  0.00  0.00    -0.206 F 
HETATM   28  C   UNK N   1      21.125  19.247   4.259  0.00  0.00     0.046 A 
HETATM   29  C   UNK N   1      21.663  18.172   4.974  0.00  0.00     0.128 A 
HETATM   30  F   UNK N   1      22.168  18.394   6.212  0.00  0.00    -0.205 F 
ENDBRANCH   1  23
BRANCH   8  31
HETATM   31  C   UNK N   1      22.750  10.103   6.364  0.00  0.00     0.120 C 
HETATM   32  C   UNK N   1      23.765   9.660   7.395  0.00  0.00     0.026 C 
ENDBRANCH   8  31
TORSDOF 7
ENDMDL
MODEL 7
REMARK VINA RESULT:      -6.4      4.562      8.664
REMARK  7 active torsions:
REMARK  status: ('A' for Active; 'I' for Inactive)
REMARK    1  A    between atoms: C_3  and  C_7 
REMARK       I    between atoms: N_10  and  C_19 
REMARK    2  A    between atoms: C_11  and  C_13 
REMARK    3  A    between atoms: C_11  and  C_25 
REMARK       I    between atoms: C_19  and  N_20 
REMARK    4  A    between atoms: N_20  and  C_21 
REMARK    5  A    between atoms: C_25  and  C_26 
REMARK    6  A    between atoms: C_26  and  C_28 
REMARK    7  A    between atoms: C_28  and  N_29 
ROOT
HETATM    1  C   UNK N   1      31.582  16.278   8.397  0.00  0.00     0.042 C 
HETATM    2  N   UNK N   1      32.565  16.675   9.095  0.00  0.00    -0.297 N 
ATOM      3  HN  UNK N   1      32.500  17.337   9.869  1.00  0.00     0.187 HD
HETATM    4  N   UNK N   1      33.713  16.096   8.668  0.00  0.00    -0.228 N 
HETATM    5  C   UNK N   1      33.528  15.548   7.317  0.00  0.00     0.091 C 
HETATM    6  C   UNK N   1      32.018  15.191   7.412  0.00  0.00     0.098 C 
HETATM    7  C   UNK N   1      34.743  15.891   9.549  0.00  0.00     0.338 C 
HETATM    8  N   UNK N   1      35.816  15.134   9.219  0.00  0.00    -0.342 N 
HETATM    9  O   UNK N   1      34.663  16.360  10.678  0.00  0.00    -0.245 OA
HETATM   10  H   UNK N   1      35.886  14.776   8.305  0.00  0.00     0.164 HD
ENDROOT
BRANCH   5  11
HETATM   11  C   UNK N   1      34.576  14.532   6.869  0.00  0.00    -0.028 A 
HETATM   12  C   UNK N   1      35.724  14.896   6.155  0.00  0.00     0.010 A 
HETATM   13  C   UNK N   1      36.604  13.904   5.697  0.00  0.00     0.001 A 
HETATM   14  C   UNK N   1      36.338  12.549   5.934  0.00  0.00     0.000 A 
HETATM   15  C   UNK N   1      35.190  12.176   6.627  0.00  0.00     0.001 A 
HETATM   16  C   UNK N   1      34.314  13.157   7.080  0.00  0.00     0.010 A 
ENDBRANCH   5  11
BRANCH   5  17
HETATM   17  C   UNK N   1      33.491  16.657   6.228  0.00  0.00     0.040 C 
BRANCH  17  18
HETATM   18  C   UNK N   1      32.771  16.114   4.974  0.00  0.00     0.022 C 
BRANCH  18  19
HETATM   19  C   UNK N   1      32.792  17.082   3.821  0.00  0.00     0.111 C 
BRANCH  19  20
HETATM   20  N   UNK N   1      31.658  17.978   3.937  0.00  0.00    -0.430 N 
HETATM   21  H   UNK N   1      31.200  18.113   4.839  0.00  0.00     0.149 HD
HETATM   22  H   UNK N   1      31.317  18.475   3.114  0.00  0.00     0.149 HD
ENDBRANCH  19  20
ENDBRANCH  18  19
ENDBRANCH  17  18
ENDBRANCH   5  17
BRANCH   1  23
HETATM   23  C   UNK N   1      30.346  17.090   8.352  0.00  0.00     0.029 A 
HETATM   24  C   UNK N   1      29.966  17.696   7.144  0.00  0.00     0.058 A 
HETATM   25  C   UNK N   1      28.762  18.397   7.048  0.00  0.00     0.117 A 
HETATM   26  C   UNK N   1      27.907  18.467   8.149  0.00  0.00     0.045 A 
HETATM   27  F   UNK N   1      28.421  19.002   5.885  0.00  0.00    -0.206 F 
HETATM   28  C   UNK N   1      28.263  17.847   9.350  0.00  0.00     0.046 A 
HETATM   29  C   UNK N   1      29.481  17.169   9.461  0.00  0.00     0.128 A 
HETATM   30  F   UNK N   1      29.771  16.527  10.619  0.00  0.00    -0.205 F 
ENDBRANCH   1  23
BRANCH   8  31
HETATM   31  C   UNK N   1      36.861  14.837  10.167  0.00  0.00     0.120 C 
HETATM   32  C   UNK N   1      37.870  13.906   9.532  0.00  0.00     0.026 C 
ENDBRANCH   8  31
TORSDOF 7
ENDMDL
MODEL 8
REMARK VINA RESULT:      -6.3     12.045     14.065
REMARK  7 active torsions:
REMARK  status: ('A' for Active; 'I' for Inactive)
REMARK    1  A    between atoms: C_3  and  C_7 
REMARK       I    between atoms: N_10  and  C_19 
REMARK    2  A    between atoms: C_11  and  C_13 
REMARK    3  A    between atoms: C_11  and  C_25 
REMARK       I    between atoms: C_19  and  N_20 
REMARK    4  A    between atoms: N_20  and  C_21 
REMARK    5  A    between atoms: C_25  and  C_26 
REMARK    6  A    between atoms: C_26  and  C_28 
REMARK    7  A    between atoms: C_28  and  N_29 
ROOT
HETATM    1  C   UNK N   1      27.876  24.460  -4.602  0.00  0.00     0.042 C 
HETATM    2  N   UNK N   1      28.839  24.495  -3.776  0.00  0.00    -0.297 N 
ATOM      3  HN  UNK N   1      28.846  25.039  -2.913  1.00  0.00     0.187 HD
HETATM    4  N   UNK N   1      29.857  23.708  -4.202  0.00  0.00    -0.228 N 
HETATM    5  C   UNK N   1      29.700  23.417  -5.634  0.00  0.00     0.091 C 
HETATM    6  C   UNK N   1      28.148  23.445  -5.714  0.00  0.00     0.098 C 
HETATM    7  C   UNK N   1      30.700  23.129  -3.290  0.00  0.00     0.338 C 
HETATM    8  N   UNK N   1      31.590  22.178  -3.654  0.00  0.00    -0.342 N 
HETATM    9  O   UNK N   1      30.605  23.443  -2.109  0.00  0.00    -0.245 OA
HETATM   10  H   UNK N   1      31.677  21.942  -4.607  0.00  0.00     0.164 HD
ENDROOT
BRANCH   5  11
HETATM   11  C   UNK N   1      30.519  22.238  -6.159  0.00  0.00    -0.028 A 
HETATM   12  C   UNK N   1      31.805  22.391  -6.692  0.00  0.00     0.010 A 
HETATM   13  C   UNK N   1      32.470  21.282  -7.237  0.00  0.00     0.001 A 
HETATM   14  C   UNK N   1      31.853  20.024  -7.268  0.00  0.00     0.000 A 
HETATM   15  C   UNK N   1      30.567  19.867  -6.757  0.00  0.00     0.001 A 
HETATM   16  C   UNK N   1      29.905  20.965  -6.219  0.00  0.00     0.010 A 
ENDBRANCH   5  11
BRANCH   5  17
HETATM   17  C   UNK N   1      30.055  24.637  -6.530  0.00  0.00     0.040 C 
BRANCH  17  18
HETATM   18  C   UNK N   1      29.154  24.625  -7.784  0.00  0.00     0.022 C 
BRANCH  18  19
HETATM   19  C   UNK N   1      28.894  26.004  -8.331  0.00  0.00     0.111 C 
BRANCH  19  20
HETATM   20  N   UNK N   1      28.829  26.943  -7.228  0.00  0.00    -0.430 N 
HETATM   21  H   UNK N   1      29.510  26.894  -6.470  0.00  0.00     0.149 HD
HETATM   22  H   UNK N   1      28.099  27.656  -7.210  0.00  0.00     0.149 HD
ENDBRANCH  19  20
ENDBRANCH  18  19
ENDBRANCH  17  18
ENDBRANCH   5  17
BRANCH   1  23
HETATM   23  C   UNK N   1      26.883  25.558  -4.610  0.00  0.00     0.029 A 
HETATM   24  C   UNK N   1      27.063  26.653  -3.752  0.00  0.00     0.058 A 
HETATM   25  C   UNK N   1      26.191  27.743  -3.797  0.00  0.00     0.117 A 
HETATM   26  C   UNK N   1      25.152  27.766  -4.728  0.00  0.00     0.045 A 
HETATM   27  F   UNK N   1      26.359  28.781  -2.943  0.00  0.00    -0.206 F 
HETATM   28  C   UNK N   1      24.976  26.691  -5.604  0.00  0.00     0.046 A 
HETATM   29  C   UNK N   1      25.828  25.584  -5.544  0.00  0.00     0.128 A 
HETATM   30  F   UNK N   1      25.670  24.585  -6.447  0.00  0.00    -0.205 F 
ENDBRANCH   1  23
BRANCH   8  31
HETATM   31  C   UNK N   1      32.418  21.498  -2.690  0.00  0.00     0.120 C 
HETATM   32  C   UNK N   1      33.609  20.881  -3.391  0.00  0.00     0.026 C 
ENDBRANCH   8  31
TORSDOF 7
ENDMDL
MODEL 9
REMARK VINA RESULT:      -6.2      7.813     10.855
REMARK  7 active torsions:
REMARK  status: ('A' for Active; 'I' for Inactive)
REMARK    1  A    between atoms: C_3  and  C_7 
REMARK       I    between atoms: N_10  and  C_19 
REMARK    2  A    between atoms: C_11  and  C_13 
REMARK    3  A    between atoms: C_11  and  C_25 
REMARK       I    between atoms: C_19  and  N_20 
REMARK    4  A    between atoms: N_20  and  C_21 
REMARK    5  A    between atoms: C_25  and  C_26 
REMARK    6  A    between atoms: C_26  and  C_28 
REMARK    7  A    between atoms: C_28  and  N_29 
ROOT
HETATM    1  C   UNK N   1      36.502  13.749  11.656  0.00  0.00     0.042 C 
HETATM    2  N   UNK N   1      35.814  14.816  11.656  0.00  0.00    -0.297 N 
ATOM      3  HN  UNK N   1      35.666  15.413  12.470  1.00  0.00     0.187 HD
HETATM    4  N   UNK N   1      35.304  15.050  10.423  0.00  0.00    -0.228 N 
HETATM    5  C   UNK N   1      35.352  13.822   9.617  0.00  0.00     0.091 C 
HETATM    6  C   UNK N   1      36.623  13.179  10.241  0.00  0.00     0.098 C 
HETATM    7  C   UNK N   1      35.052  16.337  10.022  0.00  0.00     0.338 C 
HETATM    8  N   UNK N   1      34.744  16.630   8.737  0.00  0.00    -0.342 N 
HETATM    9  O   UNK N   1      35.160  17.246  10.836  0.00  0.00    -0.245 OA
HETATM   10  H   UNK N   1      34.639  15.894   8.090  0.00  0.00     0.164 HD
ENDROOT
BRANCH   5  11
HETATM   11  C   UNK N   1      35.197  14.017   8.110  0.00  0.00    -0.028 A 
HETATM   12  C   UNK N   1      33.958  13.939   7.463  0.00  0.00     0.010 A 
HETATM   13  C   UNK N   1      33.894  14.040   6.065  0.00  0.00     0.001 A 
HETATM   14  C   UNK N   1      35.061  14.204   5.307  0.00  0.00     0.000 A 
HETATM   15  C   UNK N   1      36.300  14.263   5.941  0.00  0.00     0.001 A 
HETATM   16  C   UNK N   1      36.365  14.160   7.326  0.00  0.00     0.010 A 
ENDBRANCH   5  11
BRANCH   5  17
HETATM   17  C   UNK N   1      34.270  12.791  10.045  0.00  0.00     0.040 C 
BRANCH  17  18
HETATM   18  C   UNK N   1      34.780  11.365   9.742  0.00  0.00     0.022 C 
BRANCH  18  19
HETATM   19  C   UNK N   1      33.698  10.454   9.226  0.00  0.00     0.111 C 
BRANCH  19  20
HETATM   20  N   UNK N   1      32.407  10.993   9.607  0.00  0.00    -0.430 N 
HETATM   21  H   UNK N   1      31.958  11.708   9.033  0.00  0.00     0.149 HD
HETATM   22  H   UNK N   1      31.945  10.656  10.452  0.00  0.00     0.149 HD
ENDBRANCH  19  20
ENDBRANCH  18  19
ENDBRANCH  17  18
ENDBRANCH   5  17
BRANCH   1  23
HETATM   23  C   UNK N   1      36.757  13.047  12.933  0.00  0.00     0.029 A 
HETATM   24  C   UNK N   1      36.194  13.549  14.117  0.00  0.00     0.058 A 
HETATM   25  C   UNK N   1      36.346  12.861  15.324  0.00  0.00     0.117 A 
HETATM   26  C   UNK N   1      37.030  11.645  15.351  0.00  0.00     0.045 A 
HETATM   27  F   UNK N   1      35.823  13.371  16.464  0.00  0.00    -0.206 F 
HETATM   28  C   UNK N   1      37.575  11.124  14.175  0.00  0.00     0.046 A 
HETATM   29  C   UNK N   1      37.452  11.821  12.969  0.00  0.00     0.128 A 
HETATM   30  F   UNK N   1      37.937  11.261  11.834  0.00  0.00    -0.205 F 
ENDBRANCH   1  23
BRANCH   8  31
HETATM   31  C   UNK N   1      34.566  17.987   8.285  0.00  0.00     0.120 C 
HETATM   32  C   UNK N   1      33.665  18.001   7.069  0.00  0.00     0.026 C 
ENDBRANCH   8  31
TORSDOF 7
ENDMDL
