MODEL 1
REMARK VINA RESULT:      -7.1      0.000      0.000
REMARK  9 active torsions:
REMARK  status: ('A' for Active; 'I' for Inactive)
REMARK    1  A    between atoms: C_2  and  C_20 
REMARK    2  A    between atoms: C_7  and  C_8 
REMARK       I    between atoms: C_8  and  N_10 
REMARK    3  A    between atoms: C_11  and  N_10 
REMARK    4  A    between atoms: C_11  and  C_12 
REMARK    5  A    between atoms: C_11  and  C_13 
REMARK    6  A    between atoms: C_12  and  C_15 
REMARK    7  A    between atoms: C_15  and  O_17 
REMARK    8  A    between atoms: C_23  and  C_24 
REMARK    9  A    between atoms: C_24  and  O_25 
ROOT
HETATM    1  C   UNK N   1      29.114  17.029   5.138  0.00  0.00     0.032 A 
HETATM    2  C   UNK N   1      30.436  16.788   4.841  0.00  0.00    -0.009 A 
HETATM    3  C   UNK N   1      30.723  16.236   3.583  0.00  0.00     0.100 A 
HETATM    4  N   UNK N   1      29.683  15.915   2.741  0.00  0.00    -0.373 N 
ATOM      5  HN  UNK N   1      29.895  15.490   1.838  1.00  0.00     0.164 HD
HETATM    6  C   UNK N   1      28.366  16.150   3.072  0.00  0.00     0.104 A 
HETATM    7  C   UNK N   1      28.065  16.743   4.312  0.00  0.00     0.048 A 
ENDROOT
BRANCH   7   8
HETATM    8  C   UNK N   1      26.746  17.246   4.804  0.00  0.00     0.253 C 
HETATM    9  O   UNK N   1      25.978  16.408   5.270  0.00  0.00    -0.268 OA
HETATM   10  N   UNK N   1      26.308  18.519   4.790  0.00  0.00    -0.346 N 
HETATM   11  H   UNK N   1      25.543  18.702   5.383  0.00  0.00     0.163 HD
BRANCH  10  12
HETATM   12  C   UNK N   1      26.785  19.652   4.043  0.00  0.00     0.156 C 
BRANCH  12  13
HETATM   13  C   UNK N   1      27.408  20.635   5.036  0.00  0.00     0.142 C 
BRANCH  13  14
HETATM   14  C   UNK N   1      27.179  20.289   6.476  0.00  0.00     0.141 C 
HETATM   15  O   UNK N   1      28.026  19.673   7.098  0.00  0.00    -0.650 OA
BRANCH  14  16
HETATM   16  O   UNK N   1      26.012  20.611   7.067  0.00  0.00    -0.776 OA
HETATM   17  H   UNK N   1      25.856  20.402   7.968  0.00  0.00     0.167 HD
ENDBRANCH  14  16
ENDBRANCH  13  14
ENDBRANCH  12  13
BRANCH  12  18
HETATM   18  C   UNK N   1      25.585  20.259   3.351  0.00  0.00     0.256 C 
HETATM   19  O   UNK N   1      25.693  20.881   2.302  0.00  0.00    -0.305 OA
ENDBRANCH  12  18
ENDBRANCH  10  12
ENDBRANCH   7   8
BRANCH   2  20
HETATM   20  C   UNK N   1      31.391  17.195   5.907  0.00  0.00    -0.025 A 
HETATM   21  C   UNK N   1      31.073  17.373   7.266  0.00  0.00     0.013 A 
HETATM   22  C   UNK N   1      32.109  17.675   8.183  0.00  0.00     0.019 A 
HETATM   23  C   UNK N   1      33.445  17.812   7.737  0.00  0.00     0.037 A 
HETATM   24  C   UNK N   1      33.731  17.665   6.392  0.00  0.00     0.019 A 
HETATM   25  C   UNK N   1      32.729  17.356   5.505  0.00  0.00     0.013 A 
BRANCH  23  26
HETATM   26  C   UNK N   1      34.574  18.092   8.642  0.00  0.00     0.176 C 
HETATM   27  O   UNK N   1      34.846  17.330   9.552  0.00  0.00    -0.646 OA
BRANCH  26  28
HETATM   28  O   UNK N   1      35.329  19.196   8.448  0.00  0.00    -0.773 OA
HETATM   29  H   UNK N   1      35.389  19.579   7.595  0.00  0.00     0.167 HD
ENDBRANCH  26  28
ENDBRANCH  23  26
ENDBRANCH   2  20
TORSDOF 9
ENDMDL
MODEL 2
REMARK VINA RESULT:      -6.9      2.756      8.040
REMARK  9 active torsions:
REMARK  status: ('A' for Active; 'I' for Inactive)
REMARK    1  A    between atoms: C_2  and  C_20 
REMARK    2  A    between atoms: C_7  and  C_8 
REMARK       I    between atoms: C_8  and  N_10 
REMARK    3  A    between atoms: C_11  and  N_10 
REMARK    4  A    between atoms: C_11  and  C_12 
REMARK    5  A    between atoms: C_11  and  C_13 
REMARK    6  A    between atoms: C_12  and  C_15 
REMARK    7  A    between atoms: C_15  and  O_17 
REMARK    8  A    between atoms: C_23  and  C_24 
REMARK    9  A    between atoms: C_24  and  O_25 
ROOT
HETATM    1  C   UNK N   1      31.686  16.675   6.442  0.00  0.00     0.032 A 
HETATM    2  C   UNK N   1      30.371  16.414   6.132  0.00  0.00    -0.009 A 
HETATM    3  C   UNK N   1      30.031  15.084   5.839  0.00  0.00     0.100 A 
HETATM    4  N   UNK N   1      31.021  14.129   5.822  0.00  0.00    -0.373 N 
ATOM      5  HN  UNK N   1      30.775  13.168   5.582  1.00  0.00     0.164 HD
HETATM    6  C   UNK N   1      32.335  14.423   6.118  0.00  0.00     0.104 A 
HETATM    7  C   UNK N   1      32.684  15.744   6.455  0.00  0.00     0.048 A 
ENDROOT
BRANCH   7   8
HETATM    8  C   UNK N   1      33.988  16.254   6.977  0.00  0.00     0.253 C 
HETATM    9  O   UNK N   1      34.630  16.987   6.228  0.00  0.00    -0.268 OA
HETATM   10  N   UNK N   1      34.538  15.996   8.178  0.00  0.00    -0.346 N 
HETATM   11  H   UNK N   1      35.255  16.614   8.450  0.00  0.00     0.163 HD
BRANCH  10  12
HETATM   12  C   UNK N   1      34.239  14.956   9.126  0.00  0.00     0.156 C 
BRANCH  12  13
HETATM   13  C   UNK N   1      34.531  15.503  10.525  0.00  0.00     0.142 C 
BRANCH  13  14
HETATM   14  C   UNK N   1      35.664  16.481  10.581  0.00  0.00     0.141 C 
HETATM   15  O   UNK N   1      35.471  17.656  10.323  0.00  0.00    -0.650 OA
BRANCH  14  16
HETATM   16  O   UNK N   1      36.910  16.052  10.865  0.00  0.00    -0.776 OA
HETATM   17  H   UNK N   1      37.047  15.302  11.410  0.00  0.00     0.167 HD
ENDBRANCH  14  16
ENDBRANCH  13  14
ENDBRANCH  12  13
BRANCH  12  18
HETATM   18  C   UNK N   1      35.141  13.787   8.795  0.00  0.00     0.256 C 
HETATM   19  O   UNK N   1      35.943  13.343   9.607  0.00  0.00    -0.305 OA
ENDBRANCH  12  18
ENDBRANCH  10  12
ENDBRANCH   7   8
BRANCH   2  20
HETATM   20  C   UNK N   1      29.475  17.600   6.193  0.00  0.00    -0.025 A 
HETATM   21  C   UNK N   1      28.944  18.283   5.084  0.00  0.00     0.013 A 
HETATM   22  C   UNK N   1      28.031  19.344   5.298  0.00  0.00     0.019 A 
HETATM   23  C   UNK N   1      27.669  19.724   6.613  0.00  0.00     0.037 A 
HETATM   24  C   UNK N   1      28.227  19.061   7.690  0.00  0.00     0.019 A 
HETATM   25  C   UNK N   1      29.100  18.022   7.482  0.00  0.00     0.013 A 
BRANCH  23  26
HETATM   26  C   UNK N   1      26.701  20.795   6.905  0.00  0.00     0.176 C 
HETATM   27  O   UNK N   1      26.471  21.668   6.086  0.00  0.00    -0.646 OA
BRANCH  26  28
HETATM   28  O   UNK N   1      26.044  20.800   8.086  0.00  0.00    -0.773 OA
HETATM   29  H   UNK N   1      26.434  20.404   8.840  0.00  0.00     0.167 HD
ENDBRANCH  26  28
ENDBRANCH  23  26
ENDBRANCH   2  20
TORSDOF 9
ENDMDL
MODEL 3
REMARK VINA RESULT:      -6.9      2.855      7.520
REMARK  9 active torsions:
REMARK  status: ('A' for Active; 'I' for Inactive)
REMARK    1  A    between atoms: C_2  and  C_20 
REMARK    2  A    between atoms: C_7  and  C_8 
REMARK       I    between atoms: C_8  and  N_10 
REMARK    3  A    between atoms: C_11  and  N_10 
REMARK    4  A    between atoms: C_11  and  C_12 
REMARK    5  A    between atoms: C_11  and  C_13 
REMARK    6  A    between atoms: C_12  and  C_15 
REMARK    7  A    between atoms: C_15  and  O_17 
REMARK    8  A    between atoms: C_23  and  C_24 
REMARK    9  A    between atoms: C_24  and  O_25 
ROOT
HETATM    1  C   UNK N   1      29.228  17.436   6.551  0.00  0.00     0.032 A 
HETATM    2  C   UNK N   1      28.446  18.410   7.127  0.00  0.00    -0.009 A 
HETATM    3  C   UNK N   1      28.669  18.696   8.483  0.00  0.00     0.100 A 
HETATM    4  N   UNK N   1      29.605  17.963   9.175  0.00  0.00    -0.373 N 
ATOM      5  HN  UNK N   1      29.746  18.156  10.167  1.00  0.00     0.164 HD
HETATM    6  C   UNK N   1      30.362  16.979   8.577  0.00  0.00     0.104 A 
HETATM    7  C   UNK N   1      30.180  16.710   7.207  0.00  0.00     0.048 A 
ENDROOT
BRANCH   7   8
HETATM    8  C   UNK N   1      30.995  15.828   6.319  0.00  0.00     0.253 C 
HETATM    9  O   UNK N   1      30.729  14.628   6.343  0.00  0.00    -0.268 OA
HETATM   10  N   UNK N   1      31.992  16.204   5.495  0.00  0.00    -0.346 N 
HETATM   11  H   UNK N   1      32.233  15.545   4.805  0.00  0.00     0.163 HD
BRANCH  10  12
HETATM   12  C   UNK N   1      32.758  17.421   5.471  0.00  0.00     0.156 C 
BRANCH  12  13
HETATM   13  C   UNK N   1      33.182  17.674   4.022  0.00  0.00     0.142 C 
BRANCH  13  14
HETATM   14  C   UNK N   1      32.494  16.805   3.016  0.00  0.00     0.141 C 
HETATM   15  O   UNK N   1      33.081  15.859   2.521  0.00  0.00    -0.650 OA
BRANCH  14  16
HETATM   16  O   UNK N   1      31.241  17.101   2.615  0.00  0.00    -0.776 OA
HETATM   17  H   UNK N   1      30.671  17.609   3.159  0.00  0.00     0.167 HD
ENDBRANCH  14  16
ENDBRANCH  13  14
ENDBRANCH  12  13
BRANCH  12  18
HETATM   18  C   UNK N   1      33.960  17.201   6.362  0.00  0.00     0.256 C 
HETATM   19  O   UNK N   1      34.463  18.116   7.002  0.00  0.00    -0.305 OA
ENDBRANCH  12  18
ENDBRANCH  10  12
ENDBRANCH   7   8
BRANCH   2  20
HETATM   20  C   UNK N   1      27.484  19.060   6.196  0.00  0.00    -0.025 A 
HETATM   21  C   UNK N   1      27.328  20.446   6.016  0.00  0.00     0.013 A 
HETATM   22  C   UNK N   1      26.432  20.917   5.026  0.00  0.00     0.019 A 
HETATM   23  C   UNK N   1      25.690  20.006   4.238  0.00  0.00     0.037 A 
HETATM   24  C   UNK N   1      25.834  18.647   4.453  0.00  0.00     0.019 A 
HETATM   25  C   UNK N   1      26.714  18.190   5.402  0.00  0.00     0.013 A 
BRANCH  23  26
HETATM   26  C   UNK N   1      24.766  20.428   3.170  0.00  0.00     0.176 C 
HETATM   27  O   UNK N   1      23.562  20.434   3.354  0.00  0.00    -0.646 OA
BRANCH  26  28
HETATM   28  O   UNK N   1      25.261  20.831   1.979  0.00  0.00    -0.773 OA
HETATM   29  H   UNK N   1      25.592  21.702   1.880  0.00  0.00     0.167 HD
ENDBRANCH  26  28
ENDBRANCH  23  26
ENDBRANCH   2  20
TORSDOF 9
ENDMDL
MODEL 4
REMARK VINA RESULT:      -6.9      2.287      7.890
REMARK  9 active torsions:
REMARK  status: ('A' for Active; 'I' for Inactive)
REMARK    1  A    between atoms: C_2  and  C_20 
REMARK    2  A    between atoms: C_7  and  C_8 
REMARK       I    between atoms: C_8  and  N_10 
REMARK    3  A    between atoms: C_11  and  N_10 
REMARK    4  A    between atoms: C_11  and  C_12 
REMARK    5  A    between atoms: C_11  and  C_13 
REMARK    6  A    between atoms: C_12  and  C_15 
REMARK    7  A    between atoms: C_15  and  O_17 
REMARK    8  A    between atoms: C_23  and  C_24 
REMARK    9  A    between atoms: C_24  and  O_25 
ROOT
HETATM    1  C   UNK N   1      29.670  17.684   6.479  0.00  0.00     0.032 A 
HETATM    2  C   UNK N   1      28.966  17.175   5.411  0.00  0.00    -0.009 A 
HETATM    3  C   UNK N   1      29.267  15.865   5.008  0.00  0.00     0.100 A 
HETATM    4  N   UNK N   1      30.272  15.181   5.651  0.00  0.00    -0.373 N 
ATOM      5  HN  UNK N   1      30.506  14.239   5.338  1.00  0.00     0.164 HD
HETATM    6  C   UNK N   1      30.974  15.723   6.707  0.00  0.00     0.104 A 
HETATM    7  C   UNK N   1      30.655  17.019   7.151  0.00  0.00     0.048 A 
ENDROOT
BRANCH   7   8
HETATM    8  C   UNK N   1      31.152  17.731   8.367  0.00  0.00     0.253 C 
HETATM    9  O   UNK N   1      30.365  18.504   8.910  0.00  0.00    -0.268 OA
HETATM   10  N   UNK N   1      32.368  17.619   8.932  0.00  0.00    -0.346 N 
HETATM   11  H   UNK N   1      32.430  17.950   9.858  0.00  0.00     0.163 HD
BRANCH  10  12
HETATM   12  C   UNK N   1      33.592  17.089   8.392  0.00  0.00     0.156 C 
BRANCH  12  13
HETATM   13  C   UNK N   1      34.385  16.477   9.548  0.00  0.00     0.142 C 
BRANCH  13  14
HETATM   14  C   UNK N   1      33.890  15.135   9.994  0.00  0.00     0.141 C 
HETATM   15  O   UNK N   1      33.741  14.238   9.183  0.00  0.00    -0.650 OA
BRANCH  14  16
HETATM   16  O   UNK N   1      33.559  14.935  11.285  0.00  0.00    -0.776 OA
HETATM   17  H   UNK N   1      34.183  14.593  11.894  0.00  0.00     0.167 HD
ENDBRANCH  14  16
ENDBRANCH  13  14
ENDBRANCH  12  13
BRANCH  12  18
HETATM   18  C   UNK N   1      34.337  18.251   7.772  0.00  0.00     0.256 C 
HETATM   19  O   UNK N   1      35.022  19.009   8.446  0.00  0.00    -0.305 OA
ENDBRANCH  12  18
ENDBRANCH  10  12
ENDBRANCH   7   8
BRANCH   2  20
HETATM   20  C   UNK N   1      27.938  18.096   4.855  0.00  0.00    -0.025 A 
HETATM   21  C   UNK N   1      28.074  19.490   4.725  0.00  0.00     0.013 A 
HETATM   22  C   UNK N   1      27.044  20.228   4.093  0.00  0.00     0.019 A 
HETATM   23  C   UNK N   1      25.885  19.574   3.611  0.00  0.00     0.037 A 
HETATM   24  C   UNK N   1      25.757  18.207   3.777  0.00  0.00     0.019 A 
HETATM   25  C   UNK N   1      26.763  17.490   4.377  0.00  0.00     0.013 A 
BRANCH  23  26
HETATM   26  C   UNK N   1      24.792  20.276   2.914  0.00  0.00     0.176 C 
HETATM   27  O   UNK N   1      24.986  20.819   1.841  0.00  0.00    -0.646 OA
BRANCH  26  28
HETATM   28  O   UNK N   1      23.557  20.301   3.461  0.00  0.00    -0.773 OA
HETATM   29  H   UNK N   1      22.961  20.989   3.240  0.00  0.00     0.167 HD
ENDBRANCH  26  28
ENDBRANCH  23  26
ENDBRANCH   2  20
TORSDOF 9
ENDMDL
MODEL 5
REMARK VINA RESULT:      -6.9      6.428      9.466
REMARK  9 active torsions:
REMARK  status: ('A' for Active; 'I' for Inactive)
REMARK    1  A    between atoms: C_2  and  C_20 
REMARK    2  A    between atoms: C_7  and  C_8 
REMARK       I    between atoms: C_8  and  N_10 
REMARK    3  A    between atoms: C_11  and  N_10 
REMARK    4  A    between atoms: C_11  and  C_12 
REMARK    5  A    between atoms: C_11  and  C_13 
REMARK    6  A    between atoms: C_12  and  C_15 
REMARK    7  A    between atoms: C_15  and  O_17 
REMARK    8  A    between atoms: C_23  and  C_24 
REMARK    9  A    between atoms: C_24  and  O_25 
ROOT
HETATM    1  C   UNK N   1      35.139  14.713  11.616  0.00  0.00     0.032 A 
HETATM    2  C   UNK N   1      35.439  13.466  12.114  0.00  0.00    -0.009 A 
HETATM    3  C   UNK N   1      35.630  12.432  11.184  0.00  0.00     0.100 A 
HETATM    4  N   UNK N   1      35.458  12.696   9.845  0.00  0.00    -0.373 N 
ATOM      5  HN  UNK N   1      35.573  11.935   9.175  1.00  0.00     0.164 HD
HETATM    6  C   UNK N   1      35.139  13.952   9.376  0.00  0.00     0.104 A 
HETATM    7  C   UNK N   1      34.986  15.009  10.292  0.00  0.00     0.048 A 
ENDROOT
BRANCH   7   8
HETATM    8  C   UNK N   1      34.818  16.466  10.008  0.00  0.00     0.253 C 
HETATM    9  O   UNK N   1      35.590  17.230  10.583  0.00  0.00    -0.268 OA
HETATM   10  N   UNK N   1      33.912  17.033   9.189  0.00  0.00    -0.346 N 
HETATM   11  H   UNK N   1      34.114  17.960   8.923  0.00  0.00     0.163 HD
BRANCH  10  12
HETATM   12  C   UNK N   1      32.695  16.494   8.645  0.00  0.00     0.156 C 
BRANCH  12  13
HETATM   13  C   UNK N   1      32.992  16.019   7.222  0.00  0.00     0.142 C 
BRANCH  13  14
HETATM   14  C   UNK N   1      34.216  16.628   6.609  0.00  0.00     0.141 C 
HETATM   15  O   UNK N   1      35.218  15.954   6.446  0.00  0.00    -0.650 OA
BRANCH  14  16
HETATM   16  O   UNK N   1      34.227  17.937   6.289  0.00  0.00    -0.776 OA
HETATM   17  H   UNK N   1      33.431  18.391   6.095  0.00  0.00     0.167 HD
ENDBRANCH  14  16
ENDBRANCH  13  14
ENDBRANCH  12  13
BRANCH  12  18
HETATM   18  C   UNK N   1      31.679  17.615   8.647  0.00  0.00     0.256 C 
HETATM   19  O   UNK N   1      30.477  17.395   8.562  0.00  0.00    -0.305 OA
ENDBRANCH  12  18
ENDBRANCH  10  12
ENDBRANCH   7   8
BRANCH   2  20
HETATM   20  C   UNK N   1      35.557  13.405  13.596  0.00  0.00    -0.025 A 
HETATM   21  C   UNK N   1      36.471  14.137  14.375  0.00  0.00     0.013 A 
HETATM   22  C   UNK N   1      36.406  14.043  15.786  0.00  0.00     0.019 A 
HETATM   23  C   UNK N   1      35.443  13.211  16.406  0.00  0.00     0.037 A 
HETATM   24  C   UNK N   1      34.574  12.475  15.621  0.00  0.00     0.019 A 
HETATM   25  C   UNK N   1      34.627  12.579  14.253  0.00  0.00     0.013 A 
BRANCH  23  26
HETATM   26  C   UNK N   1      35.300  13.093  17.868  0.00  0.00     0.176 C 
HETATM   27  O   UNK N   1      35.204  12.000  18.398  0.00  0.00    -0.646 OA
BRANCH  26  28
HETATM   28  O   UNK N   1      35.295  14.208  18.632  0.00  0.00    -0.773 OA
HETATM   29  H   UNK N   1      35.221  15.051  18.230  0.00  0.00     0.167 HD
ENDBRANCH  26  28
ENDBRANCH  23  26
ENDBRANCH   2  20
TORSDOF 9
ENDMDL
MODEL 6
REMARK VINA RESULT:      -6.8     11.306     13.632
REMARK  9 active torsions:
REMARK  status: ('A' for Active; 'I' for Inactive)
REMARK    1  A    between atoms: C_2  and  C_20 
REMARK    2  A    between atoms: C_7  and  C_8 
REMARK       I    between atoms: C_8  and  N_10 
REMARK    3  A    between atoms: C_11  and  N_10 
REMARK    4  A    between atoms: C_11  and  C_12 
REMARK    5  A    between atoms: C_11  and  C_13 
REMARK    6  A    between atoms: C_12  and  C_15 
REMARK    7  A    between atoms: C_15  and  O_17 
REMARK    8  A    between atoms: C_23  and  C_24 
REMARK    9  A    between atoms: C_24  and  O_25 
ROOT
HETATM    1  C   UNK N   1      27.375  21.977  -7.628  0.00  0.00     0.032 A 
HETATM    2  C   UNK N   1      28.651  21.463  -7.679  0.00  0.00    -0.009 A 
HETATM    3  C   UNK N   1      29.125  21.043  -8.932  0.00  0.00     0.100 A 
HETATM    4  N   UNK N   1      28.288  21.112 -10.021  0.00  0.00    -0.373 N 
ATOM      5  HN  UNK N   1      28.627  20.781 -10.925  1.00  0.00     0.164 HD
HETATM    6  C   UNK N   1      27.007  21.615  -9.937  0.00  0.00     0.104 A 
HETATM    7  C   UNK N   1      26.532  22.079  -8.696  0.00  0.00     0.048 A 
ENDROOT
BRANCH   7   8
HETATM    8  C   UNK N   1      25.265  22.816  -8.405  0.00  0.00     0.253 C 
HETATM    9  O   UNK N   1      24.270  22.130  -8.181  0.00  0.00    -0.268 OA
HETATM   10  N   UNK N   1      25.094  24.151  -8.363  0.00  0.00    -0.346 N 
HETATM   11  H   UNK N   1      24.276  24.451  -7.905  0.00  0.00     0.163 HD
BRANCH  10  12
HETATM   12  C   UNK N   1      25.924  25.204  -8.883  0.00  0.00     0.156 C 
BRANCH  12  13
HETATM   13  C   UNK N   1      26.095  26.250  -7.779  0.00  0.00     0.142 C 
BRANCH  13  14
HETATM   14  C   UNK N   1      25.789  25.750  -6.401  0.00  0.00     0.141 C 
HETATM   15  O   UNK N   1      24.752  26.074  -5.850  0.00  0.00    -0.650 OA
BRANCH  14  16
HETATM   16  O   UNK N   1      26.686  24.984  -5.748  0.00  0.00    -0.776 OA
HETATM   17  H   UNK N   1      27.366  25.374  -5.235  0.00  0.00     0.167 HD
ENDBRANCH  14  16
ENDBRANCH  13  14
ENDBRANCH  12  13
BRANCH  12  18
HETATM   18  C   UNK N   1      25.199  25.784 -10.078  0.00  0.00     0.256 C 
HETATM   19  O   UNK N   1      24.327  25.158 -10.668  0.00  0.00    -0.305 OA
ENDBRANCH  12  18
ENDBRANCH  10  12
ENDBRANCH   7   8
BRANCH   2  20
HETATM   20  C   UNK N   1      29.370  21.465  -6.377  0.00  0.00    -0.025 A 
HETATM   21  C   UNK N   1      30.347  20.534  -5.980  0.00  0.00     0.013 A 
HETATM   22  C   UNK N   1      31.011  20.715  -4.743  0.00  0.00     0.019 A 
HETATM   23  C   UNK N   1      30.686  21.811  -3.908  0.00  0.00     0.037 A 
HETATM   24  C   UNK N   1      29.700  22.697  -4.302  0.00  0.00     0.019 A 
HETATM   25  C   UNK N   1      29.067  22.530  -5.509  0.00  0.00     0.013 A 
BRANCH  23  26
HETATM   26  C   UNK N   1      31.362  22.077  -2.625  0.00  0.00     0.176 C 
HETATM   27  O   UNK N   1      30.949  22.942  -1.872  0.00  0.00    -0.646 OA
BRANCH  26  28
HETATM   28  O   UNK N   1      32.438  21.341  -2.270  0.00  0.00    -0.773 OA
HETATM   29  H   UNK N   1      32.322  20.542  -1.795  0.00  0.00     0.167 HD
ENDBRANCH  26  28
ENDBRANCH  23  26
ENDBRANCH   2  20
TORSDOF 9
ENDMDL
MODEL 7
REMARK VINA RESULT:      -6.8      7.507      9.324
REMARK  9 active torsions:
REMARK  status: ('A' for Active; 'I' for Inactive)
REMARK    1  A    between atoms: C_2  and  C_20 
REMARK    2  A    between atoms: C_7  and  C_8 
REMARK       I    between atoms: C_8  and  N_10 
REMARK    3  A    between atoms: C_11  and  N_10 
REMARK    4  A    between atoms: C_11  and  C_12 
REMARK    5  A    between atoms: C_11  and  C_13 
REMARK    6  A    between atoms: C_12  and  C_15 
REMARK    7  A    between atoms: C_15  and  O_17 
REMARK    8  A    between atoms: C_23  and  C_24 
REMARK    9  A    between atoms: C_24  and  O_25 
ROOT
HETATM    1  C   UNK N   1      22.362  16.110   6.528  0.00  0.00     0.032 A 
HETATM    2  C   UNK N   1      23.165  15.009   6.723  0.00  0.00    -0.009 A 
HETATM    3  C   UNK N   1      24.232  14.825   5.830  0.00  0.00     0.100 A 
HETATM    4  N   UNK N   1      24.391  15.708   4.787  0.00  0.00    -0.373 N 
ATOM      5  HN  UNK N   1      25.152  15.556   4.125  1.00  0.00     0.164 HD
HETATM    6  C   UNK N   1      23.560  16.793   4.605  0.00  0.00     0.104 A 
HETATM    7  C   UNK N   1      22.511  17.015   5.517  0.00  0.00     0.048 A 
ENDROOT
BRANCH   7   8
HETATM    8  C   UNK N   1      21.609  18.201   5.621  0.00  0.00     0.253 C 
HETATM    9  O   UNK N   1      21.374  18.614   6.755  0.00  0.00    -0.268 OA
HETATM   10  N   UNK N   1      21.024  18.867   4.608  0.00  0.00    -0.346 N 
HETATM   11  H   UNK N   1      20.686  19.763   4.838  0.00  0.00     0.163 HD
BRANCH  10  12
HETATM   12  C   UNK N   1      20.817  18.470   3.241  0.00  0.00     0.156 C 
BRANCH  12  13
HETATM   13  C   UNK N   1      20.209  19.661   2.497  0.00  0.00     0.142 C 
BRANCH  13  14
HETATM   14  C   UNK N   1      21.215  20.636   1.967  0.00  0.00     0.141 C 
HETATM   15  O   UNK N   1      21.480  20.656   0.778  0.00  0.00    -0.650 OA
BRANCH  14  16
HETATM   16  O   UNK N   1      21.869  21.456   2.814  0.00  0.00    -0.776 OA
HETATM   17  H   UNK N   1      22.667  21.185   3.225  0.00  0.00     0.167 HD
ENDBRANCH  14  16
ENDBRANCH  13  14
ENDBRANCH  12  13
BRANCH  12  18
HETATM   18  C   UNK N   1      19.862  17.296   3.265  0.00  0.00     0.256 C 
HETATM   19  O   UNK N   1      20.116  16.248   2.684  0.00  0.00    -0.305 OA
ENDBRANCH  12  18
ENDBRANCH  10  12
ENDBRANCH   7   8
BRANCH   2  20
HETATM   20  C   UNK N   1      22.798  14.180   7.902  0.00  0.00    -0.025 A 
HETATM   21  C   UNK N   1      23.673  13.343   8.618  0.00  0.00     0.013 A 
HETATM   22  C   UNK N   1      23.201  12.680   9.777  0.00  0.00     0.019 A 
HETATM   23  C   UNK N   1      21.861  12.845  10.202  0.00  0.00     0.037 A 
HETATM   24  C   UNK N   1      21.008  13.648   9.466  0.00  0.00     0.019 A 
HETATM   25  C   UNK N   1      21.471  14.302   8.351  0.00  0.00     0.013 A 
BRANCH  23  26
HETATM   26  C   UNK N   1      21.315  12.213  11.416  0.00  0.00     0.176 C 
HETATM   27  O   UNK N   1      20.113  12.168  11.608  0.00  0.00    -0.646 OA
BRANCH  26  28
HETATM   28  O   UNK N   1      22.155  11.658  12.317  0.00  0.00    -0.773 OA
HETATM   29  H   UNK N   1      21.917  10.862  12.751  0.00  0.00     0.167 HD
ENDBRANCH  26  28
ENDBRANCH  23  26
ENDBRANCH   2  20
TORSDOF 9
ENDMDL
MODEL 8
REMARK VINA RESULT:      -6.5      6.697      9.947
REMARK  9 active torsions:
REMARK  status: ('A' for Active; 'I' for Inactive)
REMARK    1  A    between atoms: C_2  and  C_20 
REMARK    2  A    between atoms: C_7  and  C_8 
REMARK       I    between atoms: C_8  and  N_10 
REMARK    3  A    between atoms: C_11  and  N_10 
REMARK    4  A    between atoms: C_11  and  C_12 
REMARK    5  A    between atoms: C_11  and  C_13 
REMARK    6  A    between atoms: C_12  and  C_15 
REMARK    7  A    between atoms: C_15  and  O_17 
REMARK    8  A    between atoms: C_23  and  C_24 
REMARK    9  A    between atoms: C_24  and  O_25 
ROOT
HETATM    1  C   UNK N   1      35.757  14.685  11.758  0.00  0.00     0.032 A 
HETATM    2  C   UNK N   1      36.378  13.665  12.442  0.00  0.00    -0.009 A 
HETATM    3  C   UNK N   1      37.351  12.926  11.750  0.00  0.00     0.100 A 
HETATM    4  N   UNK N   1      37.597  13.216  10.428  0.00  0.00    -0.373 N 
ATOM      5  HN  UNK N   1      38.286  12.660   9.922  1.00  0.00     0.164 HD
HETATM    6  C   UNK N   1      36.946  14.233   9.763  0.00  0.00     0.104 A 
HETATM    7  C   UNK N   1      35.998  15.010  10.454  0.00  0.00     0.048 A 
ENDROOT
BRANCH   7   8
HETATM    8  C   UNK N   1      35.309  16.255   9.998  0.00  0.00     0.253 C 
HETATM    9  O   UNK N   1      35.481  17.260  10.683  0.00  0.00    -0.268 OA
HETATM   10  N   UNK N   1      34.518  16.394   8.917  0.00  0.00    -0.346 N 
HETATM   11  H   UNK N   1      34.369  17.323   8.627  0.00  0.00     0.163 HD
BRANCH  10  12
HETATM   12  C   UNK N   1      33.858  15.394   8.121  0.00  0.00     0.156 C 
BRANCH  12  13
HETATM   13  C   UNK N   1      34.263  15.618   6.663  0.00  0.00     0.142 C 
BRANCH  13  14
HETATM   14  C   UNK N   1      33.912  16.971   6.124  0.00  0.00     0.141 C 
HETATM   15  O   UNK N   1      33.139  17.074   5.188  0.00  0.00    -0.650 OA
BRANCH  14  16
HETATM   16  O   UNK N   1      34.493  18.072   6.640  0.00  0.00    -0.776 OA
HETATM   17  H   UNK N   1      34.864  18.726   6.081  0.00  0.00     0.167 HD
ENDBRANCH  14  16
ENDBRANCH  13  14
ENDBRANCH  12  13
BRANCH  12  18
HETATM   18  C   UNK N   1      32.371  15.592   8.313  0.00  0.00     0.256 C 
HETATM   19  O   UNK N   1      31.916  16.616   8.807  0.00  0.00    -0.305 OA
ENDBRANCH  12  18
ENDBRANCH  10  12
ENDBRANCH   7   8
BRANCH   2  20
HETATM   20  C   UNK N   1      35.943  13.517  13.857  0.00  0.00    -0.025 A 
HETATM   21  C   UNK N   1      34.889  12.704  14.308  0.00  0.00     0.013 A 
HETATM   22  C   UNK N   1      34.647  12.594  15.699  0.00  0.00     0.019 A 
HETATM   23  C   UNK N   1      35.448  13.306  16.624  0.00  0.00     0.037 A 
HETATM   24  C   UNK N   1      36.460  14.126  16.158  0.00  0.00     0.019 A 
HETATM   25  C   UNK N   1      36.703  14.219  14.810  0.00  0.00     0.013 A 
BRANCH  23  26
HETATM   26  C   UNK N   1      35.272  13.211  18.084  0.00  0.00     0.176 C 
HETATM   27  O   UNK N   1      35.220  14.216  18.772  0.00  0.00    -0.646 OA
BRANCH  26  28
HETATM   28  O   UNK N   1      35.148  11.998  18.666  0.00  0.00    -0.773 OA
HETATM   29  H   UNK N   1      34.744  11.294  18.198  0.00  0.00     0.167 HD
ENDBRANCH  26  28
ENDBRANCH  23  26
ENDBRANCH   2  20
TORSDOF 9
ENDMDL
MODEL 9
REMARK VINA RESULT:      -6.4      6.932     10.371
REMARK  9 active torsions:
REMARK  status: ('A' for Active; 'I' for Inactive)
REMARK    1  A    between atoms: C_2  and  C_20 
REMARK    2  A    between atoms: C_7  and  C_8 
REMARK       I    between atoms: C_8  and  N_10 
REMARK    3  A    between atoms: C_11  and  N_10 
REMARK    4  A    between atoms: C_11  and  C_12 
REMARK    5  A    between atoms: C_11  and  C_13 
REMARK    6  A    between atoms: C_12  and  C_15 
REMARK    7  A    between atoms: C_15  and  O_17 
REMARK    8  A    between atoms: C_23  and  C_24 
REMARK    9  A    between atoms: C_24  and  O_25 
ROOT
HETATM    1  C   UNK N   1      35.482  13.106  11.643  0.00  0.00     0.032 A 
HETATM    2  C   UNK N   1      35.024  12.333  12.686  0.00  0.00    -0.009 A 
HETATM    3  C   UNK N   1      34.338  11.153  12.358  0.00  0.00     0.100 A 
HETATM    4  N   UNK N   1      34.111  10.857  11.034  0.00  0.00    -0.373 N 
ATOM      5  HN  UNK N   1      33.589  10.012  10.801  1.00  0.00     0.164 HD
HETATM    6  C   UNK N   1      34.565  11.660  10.010  0.00  0.00     0.104 A 
HETATM    7  C   UNK N   1      35.292  12.824  10.321  0.00  0.00     0.048 A 
ENDROOT
BRANCH   7   8
HETATM    8  C   UNK N   1      36.023  13.737   9.391  0.00  0.00     0.253 C 
HETATM    9  O   UNK N   1      37.182  13.432   9.119  0.00  0.00    -0.268 OA
HETATM   10  N   UNK N   1      35.549  14.861   8.820  0.00  0.00    -0.346 N 
HETATM   11  H   UNK N   1      36.066  15.184   8.046  0.00  0.00     0.163 HD
BRANCH  10  12
HETATM   12  C   UNK N   1      34.406  15.661   9.166  0.00  0.00     0.156 C 
BRANCH  12  13
HETATM   13  C   UNK N   1      33.641  15.962   7.876  0.00  0.00     0.142 C 
BRANCH  13  14
HETATM   14  C   UNK N   1      34.471  16.585   6.796  0.00  0.00     0.141 C 
HETATM   15  O   UNK N   1      34.341  17.767   6.529  0.00  0.00    -0.650 OA
BRANCH  14  16
HETATM   16  O   UNK N   1      35.325  15.826   6.081  0.00  0.00    -0.776 OA
HETATM   17  H   UNK N   1      36.249  15.981   6.114  0.00  0.00     0.167 HD
ENDBRANCH  14  16
ENDBRANCH  13  14
ENDBRANCH  12  13
BRANCH  12  18
HETATM   18  C   UNK N   1      34.933  16.930   9.798  0.00  0.00     0.256 C 
HETATM   19  O   UNK N   1      35.235  16.981  10.984  0.00  0.00    -0.305 OA
ENDBRANCH  12  18
ENDBRANCH  10  12
ENDBRANCH   7   8
BRANCH   2  20
HETATM   20  C   UNK N   1      35.367  12.854  14.037  0.00  0.00    -0.025 A 
HETATM   21  C   UNK N   1      36.465  13.678  14.342  0.00  0.00     0.013 A 
HETATM   22  C   UNK N   1      36.613  14.171  15.661  0.00  0.00     0.019 A 
HETATM   23  C   UNK N   1      35.676  13.826  16.665  0.00  0.00     0.037 A 
HETATM   24  C   UNK N   1      34.621  12.989  16.352  0.00  0.00     0.019 A 
HETATM   25  C   UNK N   1      34.469  12.524  15.068  0.00  0.00     0.013 A 
BRANCH  23  26
HETATM   26  C   UNK N   1      35.752  14.331  18.048  0.00  0.00     0.176 C 
HETATM   27  O   UNK N   1      36.199  15.440  18.282  0.00  0.00    -0.646 OA
BRANCH  26  28
HETATM   28  O   UNK N   1      35.303  13.564  19.065  0.00  0.00    -0.773 OA
HETATM   29  H   UNK N   1      35.818  13.468  19.842  0.00  0.00     0.167 HD
ENDBRANCH  26  28
ENDBRANCH  23  26
ENDBRANCH   2  20
TORSDOF 9
ENDMDL
