MODEL 1
REMARK VINA RESULT:      -7.4      0.000      0.000
REMARK  5 active torsions:
REMARK  status: ('A' for Active; 'I' for Inactive)
REMARK    1  A    between atoms: C_1  and  N_18 
REMARK    2  A    between atoms: C_2  and  C_17 
REMARK    3  A    between atoms: C_7  and  N_20 
REMARK    4  A    between atoms: C_10  and  O_24 
REMARK    5  A    between atoms: C_17  and  O_23 
ROOT
HETATM    1  N   UNK N   1      29.086  23.803  -4.358  0.00  0.00    -0.299 N 
ATOM      2  HN  UNK N   1      29.348  24.211  -3.461  1.00  0.00     0.187 HD
HETATM    3  N   UNK N   1      28.233  24.393  -5.041  0.00  0.00    -0.300 N 
ATOM      4  HN  UNK N   1      27.962  23.996  -5.940  1.00  0.00     0.187 HD
ENDROOT
BRANCH   3   5
HETATM    5  C   UNK N   1      27.622  25.603  -4.614  0.00  0.00     0.059 A 
HETATM    6  C   UNK N   1      26.817  25.644  -3.465  0.00  0.00     0.034 A 
HETATM    7  C   UNK N   1      26.223  26.842  -3.057  0.00  0.00     0.040 A 
HETATM    8  C   UNK N   1      26.423  28.016  -3.790  0.00  0.00     0.076 A 
HETATM    9  C   UNK N   1      27.224  27.996  -4.941  0.00  0.00     0.009 A 
HETATM   10  C   UNK N   1      27.436  29.163  -5.689  0.00  0.00     0.015 A 
HETATM   11  C   UNK N   1      27.826  26.783  -5.355  0.00  0.00     0.005 A 
HETATM   12  C   UNK N   1      28.236  29.133  -6.835  0.00  0.00     0.001 A 
HETATM   13  C   UNK N   1      28.830  27.939  -7.243  0.00  0.00     0.001 A 
HETATM   14  C   UNK N   1      28.625  26.772  -6.507  0.00  0.00     0.014 A 
BRANCH   8  15
HETATM   15  O   UNK N   1      25.842  29.160  -3.380  0.00  0.00    -0.360 OA
HETATM   16  H   UNK N   1      25.007  29.134  -2.954  0.00  0.00     0.217 HD
ENDBRANCH   8  15
ENDBRANCH   3   5
BRANCH   1  17
HETATM   17  C   UNK N   1      29.721  22.586  -4.755  0.00  0.00     0.065 A 
HETATM   18  C   UNK N   1      30.692  21.820  -3.991  0.00  0.00     0.065 A 
HETATM   19  C   UNK N   1      31.195  20.641  -4.574  0.00  0.00     0.021 A 
HETATM   20  C   UNK N   1      30.797  20.203  -5.831  0.00  0.00     0.001 A 
HETATM   21  C   UNK N   1      29.871  20.938  -6.554  0.00  0.00     0.002 A 
HETATM   22  C   UNK N   1      29.345  22.110  -6.020  0.00  0.00     0.032 A 
BRANCH  18  23
HETATM   23  C   UNK N   1      31.254  22.113  -2.624  0.00  0.00     0.178 C 
HETATM   24  O   UNK N   1      30.717  22.967  -1.934  0.00  0.00    -0.646 OA
BRANCH  23  25
HETATM   25  O   UNK N   1      32.318  21.486  -2.116  0.00  0.00    -0.773 OA
HETATM   26  H   UNK N   1      32.340  20.551  -2.085  0.00  0.00     0.167 HD
ENDBRANCH  23  25
ENDBRANCH  18  23
ENDBRANCH   1  17
TORSDOF 5
ENDMDL
MODEL 2
REMARK VINA RESULT:      -7.4      2.311      7.073
REMARK  5 active torsions:
REMARK  status: ('A' for Active; 'I' for Inactive)
REMARK    1  A    between atoms: C_1  and  N_18 
REMARK    2  A    between atoms: C_2  and  C_17 
REMARK    3  A    between atoms: C_7  and  N_20 
REMARK    4  A    between atoms: C_10  and  O_24 
REMARK    5  A    between atoms: C_17  and  O_23 
ROOT
HETATM    1  N   UNK N   1      27.693  24.837  -3.900  0.00  0.00    -0.299 N 
ATOM      2  HN  UNK N   1      27.698  24.623  -2.903  1.00  0.00     0.187 HD
HETATM    3  N   UNK N   1      28.558  24.306  -4.616  0.00  0.00    -0.300 N 
ATOM      4  HN  UNK N   1      28.564  24.512  -5.615  1.00  0.00     0.187 HD
ENDROOT
BRANCH   3   5
HETATM    5  C   UNK N   1      29.538  23.421  -4.093  0.00  0.00     0.059 A 
HETATM    6  C   UNK N   1      30.123  23.646  -2.836  0.00  0.00     0.034 A 
HETATM    7  C   UNK N   1      31.087  22.765  -2.335  0.00  0.00     0.040 A 
HETATM    8  C   UNK N   1      31.481  21.649  -3.079  0.00  0.00     0.076 A 
HETATM    9  C   UNK N   1      30.908  21.407  -4.337  0.00  0.00     0.009 A 
HETATM   10  C   UNK N   1      31.291  20.293  -5.097  0.00  0.00     0.015 A 
HETATM   11  C   UNK N   1      29.932  22.298  -4.845  0.00  0.00     0.005 A 
HETATM   12  C   UNK N   1      30.715  20.060  -6.350  0.00  0.00     0.001 A 
HETATM   13  C   UNK N   1      29.753  20.937  -6.851  0.00  0.00     0.001 A 
HETATM   14  C   UNK N   1      29.365  22.048  -6.103  0.00  0.00     0.014 A 
BRANCH   8  15
HETATM   15  O   UNK N   1      32.411  20.814  -2.578  0.00  0.00    -0.360 OA
HETATM   16  H   UNK N   1      32.535  20.754  -1.651  0.00  0.00     0.217 HD
ENDBRANCH   8  15
ENDBRANCH   3   5
BRANCH   1  17
HETATM   17  C   UNK N   1      26.692  25.731  -4.391  0.00  0.00     0.065 A 
HETATM   18  C   UNK N   1      25.807  25.513  -5.523  0.00  0.00     0.065 A 
HETATM   19  C   UNK N   1      24.887  26.533  -5.836  0.00  0.00     0.021 A 
HETATM   20  C   UNK N   1      24.807  27.713  -5.108  0.00  0.00     0.001 A 
HETATM   21  C   UNK N   1      25.653  27.915  -4.030  0.00  0.00     0.002 A 
HETATM   22  C   UNK N   1      26.579  26.936  -3.681  0.00  0.00     0.032 A 
BRANCH  18  23
HETATM   23  C   UNK N   1      25.729  24.318  -6.437  0.00  0.00     0.178 C 
HETATM   24  O   UNK N   1      26.080  23.226  -6.015  0.00  0.00    -0.646 OA
BRANCH  23  25
HETATM   25  O   UNK N   1      25.293  24.383  -7.698  0.00  0.00    -0.773 OA
HETATM   26  H   UNK N   1      24.503  23.944  -7.944  0.00  0.00     0.167 HD
ENDBRANCH  23  25
ENDBRANCH  18  23
ENDBRANCH   1  17
TORSDOF 5
ENDMDL
MODEL 3
REMARK VINA RESULT:      -7.2      1.342      1.848
REMARK  5 active torsions:
REMARK  status: ('A' for Active; 'I' for Inactive)
REMARK    1  A    between atoms: C_1  and  N_18 
REMARK    2  A    between atoms: C_2  and  C_17 
REMARK    3  A    between atoms: C_7  and  N_20 
REMARK    4  A    between atoms: C_10  and  O_24 
REMARK    5  A    between atoms: C_17  and  O_23 
ROOT
HETATM    1  N   UNK N   1      29.319  23.927  -4.305  0.00  0.00    -0.299 N 
ATOM      2  HN  UNK N   1      28.949  24.004  -3.357  1.00  0.00     0.187 HD
HETATM    3  N   UNK N   1      29.280  24.933  -5.032  0.00  0.00    -0.300 N 
ATOM      4  HN  UNK N   1      29.646  24.868  -5.981  1.00  0.00     0.187 HD
ENDROOT
BRANCH   3   5
HETATM    5  C   UNK N   1      28.741  26.170  -4.587  0.00  0.00     0.059 A 
HETATM    6  C   UNK N   1      29.515  27.073  -3.841  0.00  0.00     0.034 A 
HETATM    7  C   UNK N   1      28.970  28.287  -3.411  0.00  0.00     0.040 A 
HETATM    8  C   UNK N   1      27.647  28.617  -3.718  0.00  0.00     0.076 A 
HETATM    9  C   UNK N   1      26.858  27.728  -4.462  0.00  0.00     0.009 A 
HETATM   10  C   UNK N   1      25.528  28.042  -4.780  0.00  0.00     0.015 A 
HETATM   11  C   UNK N   1      27.408  26.499  -4.898  0.00  0.00     0.005 A 
HETATM   12  C   UNK N   1      24.749  27.149  -5.522  0.00  0.00     0.001 A 
HETATM   13  C   UNK N   1      25.291  25.939  -5.952  0.00  0.00     0.001 A 
HETATM   14  C   UNK N   1      26.611  25.616  -5.642  0.00  0.00     0.014 A 
BRANCH   8  15
HETATM   15  O   UNK N   1      27.142  29.791  -3.294  0.00  0.00    -0.360 OA
HETATM   16  H   UNK N   1      27.528  30.229  -2.560  0.00  0.00     0.217 HD
ENDBRANCH   8  15
ENDBRANCH   3   5
BRANCH   1  17
HETATM   17  C   UNK N   1      29.853  22.667  -4.717  0.00  0.00     0.065 A 
HETATM   18  C   UNK N   1      30.770  21.821  -3.970  0.00  0.00     0.065 A 
HETATM   19  C   UNK N   1      31.173  20.611  -4.567  0.00  0.00     0.021 A 
HETATM   20  C   UNK N   1      30.726  20.214  -5.821  0.00  0.00     0.001 A 
HETATM   21  C   UNK N   1      29.852  21.024  -6.528  0.00  0.00     0.002 A 
HETATM   22  C   UNK N   1      29.425  22.230  -5.980  0.00  0.00     0.032 A 
BRANCH  18  23
HETATM   23  C   UNK N   1      31.370  22.061  -2.609  0.00  0.00     0.178 C 
HETATM   24  O   UNK N   1      30.878  22.914  -1.886  0.00  0.00    -0.646 OA
BRANCH  23  25
HETATM   25  O   UNK N   1      32.424  21.386  -2.140  0.00  0.00    -0.773 OA
HETATM   26  H   UNK N   1      32.782  21.601  -1.302  0.00  0.00     0.167 HD
ENDBRANCH  23  25
ENDBRANCH  18  23
ENDBRANCH   1  17
TORSDOF 5
ENDMDL
MODEL 4
REMARK VINA RESULT:      -7.2     16.107     18.671
REMARK  5 active torsions:
REMARK  status: ('A' for Active; 'I' for Inactive)
REMARK    1  A    between atoms: C_1  and  N_18 
REMARK    2  A    between atoms: C_2  and  C_17 
REMARK    3  A    between atoms: C_7  and  N_20 
REMARK    4  A    between atoms: C_10  and  O_24 
REMARK    5  A    between atoms: C_17  and  O_23 
ROOT
HETATM    1  N   UNK N   1      23.053  15.184   6.642  0.00  0.00    -0.299 N 
ATOM      2  HN  UNK N   1      24.065  15.283   6.722  1.00  0.00     0.187 HD
HETATM    3  N   UNK N   1      22.469  14.462   7.467  0.00  0.00    -0.300 N 
ATOM      4  HN  UNK N   1      21.457  14.355   7.398  1.00  0.00     0.187 HD
ENDROOT
BRANCH   3   5
HETATM    5  C   UNK N   1      23.161  13.781   8.505  0.00  0.00     0.059 A 
HETATM    6  C   UNK N   1      24.558  13.644   8.478  0.00  0.00     0.034 A 
HETATM    7  C   UNK N   1      25.224  12.971   9.506  0.00  0.00     0.040 A 
HETATM    8  C   UNK N   1      24.508  12.426  10.576  0.00  0.00     0.076 A 
HETATM    9  C   UNK N   1      23.111  12.552  10.620  0.00  0.00     0.009 A 
HETATM   10  C   UNK N   1      22.376  12.011  11.685  0.00  0.00     0.015 A 
HETATM   11  C   UNK N   1      22.435  13.233   9.580  0.00  0.00     0.005 A 
HETATM   12  C   UNK N   1      20.984  12.142  11.721  0.00  0.00     0.001 A 
HETATM   13  C   UNK N   1      20.318  12.813  10.696  0.00  0.00     0.001 A 
HETATM   14  C   UNK N   1      21.039  13.355   9.633  0.00  0.00     0.014 A 
BRANCH   8  15
HETATM   15  O   UNK N   1      25.169  11.782  11.556  0.00  0.00    -0.360 OA
HETATM   16  H   UNK N   1      25.288  10.853  11.508  0.00  0.00     0.217 HD
ENDBRANCH   8  15
ENDBRANCH   3   5
BRANCH   1  17
HETATM   17  C   UNK N   1      22.391  15.883   5.586  0.00  0.00     0.065 A 
HETATM   18  C   UNK N   1      21.472  17.001   5.723  0.00  0.00     0.065 A 
HETATM   19  C   UNK N   1      20.929  17.546   4.543  0.00  0.00     0.021 A 
HETATM   20  C   UNK N   1      21.243  17.053   3.282  0.00  0.00     0.001 A 
HETATM   21  C   UNK N   1      22.120  15.987   3.159  0.00  0.00     0.002 A 
HETATM   22  C   UNK N   1      22.682  15.415   4.296  0.00  0.00     0.032 A 
BRANCH  18  23
HETATM   23  C   UNK N   1      21.002  17.681   6.982  0.00  0.00     0.178 C 
HETATM   24  O   UNK N   1      20.860  18.895   6.983  0.00  0.00    -0.646 OA
BRANCH  23  25
HETATM   25  O   UNK N   1      20.727  17.027   8.114  0.00  0.00    -0.773 OA
HETATM   26  H   UNK N   1      19.839  16.831   8.338  0.00  0.00     0.167 HD
ENDBRANCH  23  25
ENDBRANCH  18  23
ENDBRANCH   1  17
TORSDOF 5
ENDMDL
MODEL 5
REMARK VINA RESULT:      -7.1     13.034     14.831
REMARK  5 active torsions:
REMARK  status: ('A' for Active; 'I' for Inactive)
REMARK    1  A    between atoms: C_1  and  N_18 
REMARK    2  A    between atoms: C_2  and  C_17 
REMARK    3  A    between atoms: C_7  and  N_20 
REMARK    4  A    between atoms: C_10  and  O_24 
REMARK    5  A    between atoms: C_17  and  O_23 
ROOT
HETATM    1  N   UNK N   1      21.961  17.345   6.193  0.00  0.00    -0.299 N 
ATOM      2  HN  UNK N   1      21.346  18.100   5.892  1.00  0.00     0.187 HD
HETATM    3  N   UNK N   1      23.113  17.309   5.731  0.00  0.00    -0.300 N 
ATOM      4  HN  UNK N   1      23.738  16.559   6.024  1.00  0.00     0.187 HD
ENDROOT
BRANCH   3   5
HETATM    5  C   UNK N   1      23.590  18.278   4.807  0.00  0.00     0.059 A 
HETATM    6  C   UNK N   1      22.703  19.042   4.033  0.00  0.00     0.034 A 
HETATM    7  C   UNK N   1      23.189  19.991   3.128  0.00  0.00     0.040 A 
HETATM    8  C   UNK N   1      24.565  20.191   2.982  0.00  0.00     0.076 A 
HETATM    9  C   UNK N   1      25.467  19.436   3.746  0.00  0.00     0.009 A 
HETATM   10  C   UNK N   1      26.851  19.623   3.614  0.00  0.00     0.015 A 
HETATM   11  C   UNK N   1      24.977  18.475   4.663  0.00  0.00     0.005 A 
HETATM   12  C   UNK N   1      27.743  18.866   4.380  0.00  0.00     0.001 A 
HETATM   13  C   UNK N   1      27.260  17.919   5.283  0.00  0.00     0.001 A 
HETATM   14  C   UNK N   1      25.886  17.726   5.423  0.00  0.00     0.014 A 
BRANCH   8  15
HETATM   15  O   UNK N   1      25.011  21.110   2.105  0.00  0.00    -0.360 OA
HETATM   16  H   UNK N   1      24.543  21.262   1.308  0.00  0.00     0.217 HD
ENDBRANCH   8  15
ENDBRANCH   3   5
BRANCH   1  17
HETATM   17  C   UNK N   1      21.447  16.389   7.123  0.00  0.00     0.065 A 
HETATM   18  C   UNK N   1      20.478  16.634   8.179  0.00  0.00     0.065 A 
HETATM   19  C   UNK N   1      20.106  15.542   8.988  0.00  0.00     0.021 A 
HETATM   20  C   UNK N   1      20.630  14.269   8.806  0.00  0.00     0.001 A 
HETATM   21  C   UNK N   1      21.553  14.042   7.798  0.00  0.00     0.002 A 
HETATM   22  C   UNK N   1      21.951  15.089   6.973  0.00  0.00     0.032 A 
BRANCH  18  23
HETATM   23  C   UNK N   1      19.793  17.926   8.544  0.00  0.00     0.178 C 
HETATM   24  O   UNK N   1      20.354  18.983   8.299  0.00  0.00    -0.646 OA
BRANCH  23  25
HETATM   25  O   UNK N   1      18.593  17.984   9.128  0.00  0.00    -0.773 OA
HETATM   26  H   UNK N   1      18.393  17.414   9.845  0.00  0.00     0.167 HD
ENDBRANCH  23  25
ENDBRANCH  18  23
ENDBRANCH   1  17
TORSDOF 5
ENDMDL
MODEL 6
REMARK VINA RESULT:      -7.1     13.689     15.091
REMARK  5 active torsions:
REMARK  status: ('A' for Active; 'I' for Inactive)
REMARK    1  A    between atoms: C_1  and  N_18 
REMARK    2  A    between atoms: C_2  and  C_17 
REMARK    3  A    between atoms: C_7  and  N_20 
REMARK    4  A    between atoms: C_10  and  O_24 
REMARK    5  A    between atoms: C_17  and  O_23 
ROOT
HETATM    1  N   UNK N   1      20.946  17.228   6.422  0.00  0.00    -0.299 N 
ATOM      2  HN  UNK N   1      20.300  17.998   6.596  1.00  0.00     0.187 HD
HETATM    3  N   UNK N   1      21.641  17.269   5.394  0.00  0.00    -0.300 N 
ATOM      4  HN  UNK N   1      22.290  16.505   5.208  1.00  0.00     0.187 HD
ENDROOT
BRANCH   3   5
HETATM    5  C   UNK N   1      21.563  18.343   4.466  0.00  0.00     0.059 A 
HETATM    6  C   UNK N   1      20.327  18.777   3.960  0.00  0.00     0.034 A 
HETATM    7  C   UNK N   1      20.267  19.835   3.048  0.00  0.00     0.040 A 
HETATM    8  C   UNK N   1      21.437  20.476   2.629  0.00  0.00     0.076 A 
HETATM    9  C   UNK N   1      22.681  20.056   3.124  0.00  0.00     0.009 A 
HETATM   10  C   UNK N   1      23.865  20.686   2.715  0.00  0.00     0.015 A 
HETATM   11  C   UNK N   1      22.743  18.985   4.047  0.00  0.00     0.005 A 
HETATM   12  C   UNK N   1      25.100  20.262   3.213  0.00  0.00     0.001 A 
HETATM   13  C   UNK N   1      25.162  19.206   4.122  0.00  0.00     0.001 A 
HETATM   14  C   UNK N   1      23.991  18.573   4.536  0.00  0.00     0.014 A 
BRANCH   8  15
HETATM   15  O   UNK N   1      21.357  21.493   1.750  0.00  0.00    -0.360 OA
HETATM   16  H   UNK N   1      21.700  21.390   0.884  0.00  0.00     0.217 HD
ENDBRANCH   8  15
ENDBRANCH   3   5
BRANCH   1  17
HETATM   17  C   UNK N   1      20.997  16.165   7.376  0.00  0.00     0.065 A 
HETATM   18  C   UNK N   1      20.090  15.950   8.492  0.00  0.00     0.065 A 
HETATM   19  C   UNK N   1      20.324  14.832   9.315  0.00  0.00     0.021 A 
HETATM   20  C   UNK N   1      21.375  13.951   9.093  0.00  0.00     0.001 A 
HETATM   21  C   UNK N   1      22.236  14.161   8.028  0.00  0.00     0.002 A 
HETATM   22  C   UNK N   1      22.046  15.253   7.187  0.00  0.00     0.032 A 
BRANCH  18  23
HETATM   23  C   UNK N   1      18.900  16.776   8.906  0.00  0.00     0.178 C 
HETATM   24  O   UNK N   1      17.857  16.208   9.195  0.00  0.00    -0.646 OA
BRANCH  23  25
HETATM   25  O   UNK N   1      18.918  18.110   8.978  0.00  0.00    -0.773 OA
HETATM   26  H   UNK N   1      18.136  18.598   8.814  0.00  0.00     0.167 HD
ENDBRANCH  23  25
ENDBRANCH  18  23
ENDBRANCH   1  17
TORSDOF 5
ENDMDL
MODEL 7
REMARK VINA RESULT:      -7.1     10.867     13.086
REMARK  5 active torsions:
REMARK  status: ('A' for Active; 'I' for Inactive)
REMARK    1  A    between atoms: C_1  and  N_18 
REMARK    2  A    between atoms: C_2  and  C_17 
REMARK    3  A    between atoms: C_7  and  N_20 
REMARK    4  A    between atoms: C_10  and  O_24 
REMARK    5  A    between atoms: C_17  and  O_23 
ROOT
HETATM    1  N   UNK N   1      28.402  18.418   6.079  0.00  0.00    -0.299 N 
ATOM      2  HN  UNK N   1      28.124  19.322   6.461  1.00  0.00     0.187 HD
HETATM    3  N   UNK N   1      27.821  18.011   5.059  0.00  0.00    -0.300 N 
ATOM      4  HN  UNK N   1      28.089  17.109   4.667  1.00  0.00     0.187 HD
ENDROOT
BRANCH   3   5
HETATM    5  C   UNK N   1      26.795  18.759   4.420  0.00  0.00     0.059 A 
HETATM    6  C   UNK N   1      27.085  19.946   3.729  0.00  0.00     0.034 A 
HETATM    7  C   UNK N   1      26.064  20.670   3.106  0.00  0.00     0.040 A 
HETATM    8  C   UNK N   1      24.741  20.222   3.163  0.00  0.00     0.076 A 
HETATM    9  C   UNK N   1      24.432  19.038   3.849  0.00  0.00     0.009 A 
HETATM   10  C   UNK N   1      23.111  18.573   3.917  0.00  0.00     0.015 A 
HETATM   11  C   UNK N   1      25.464  18.304   4.481  0.00  0.00     0.005 A 
HETATM   12  C   UNK N   1      22.812  17.392   4.604  0.00  0.00     0.001 A 
HETATM   13  C   UNK N   1      23.828  16.668   5.226  0.00  0.00     0.001 A 
HETATM   14  C   UNK N   1      25.146  17.122   5.164  0.00  0.00     0.014 A 
BRANCH   8  15
HETATM   15  O   UNK N   1      23.773  20.935   2.556  0.00  0.00    -0.360 OA
HETATM   16  H   UNK N   1      23.877  21.199   1.662  0.00  0.00     0.217 HD
ENDBRANCH   8  15
ENDBRANCH   3   5
BRANCH   1  17
HETATM   17  C   UNK N   1      29.437  17.695   6.748  0.00  0.00     0.065 A 
HETATM   18  C   UNK N   1      29.663  17.622   8.182  0.00  0.00     0.065 A 
HETATM   19  C   UNK N   1      30.749  16.846   8.631  0.00  0.00     0.021 A 
HETATM   20  C   UNK N   1      31.588  16.164   7.760  0.00  0.00     0.001 A 
HETATM   21  C   UNK N   1      31.367  16.237   6.394  0.00  0.00     0.002 A 
HETATM   22  C   UNK N   1      30.307  16.991   5.901  0.00  0.00     0.032 A 
BRANCH  18  23
HETATM   23  C   UNK N   1      28.881  18.278   9.290  0.00  0.00     0.178 C 
HETATM   24  O   UNK N   1      29.485  18.771  10.231  0.00  0.00    -0.646 OA
BRANCH  23  25
HETATM   25  O   UNK N   1      27.547  18.353   9.305  0.00  0.00    -0.773 OA
HETATM   26  H   UNK N   1      27.072  18.108  10.074  0.00  0.00     0.167 HD
ENDBRANCH  23  25
ENDBRANCH  18  23
ENDBRANCH   1  17
TORSDOF 5
ENDMDL
MODEL 8
REMARK VINA RESULT:      -6.9     12.986     15.386
REMARK  5 active torsions:
REMARK  status: ('A' for Active; 'I' for Inactive)
REMARK    1  A    between atoms: C_1  and  N_18 
REMARK    2  A    between atoms: C_2  and  C_17 
REMARK    3  A    between atoms: C_7  and  N_20 
REMARK    4  A    between atoms: C_10  and  O_24 
REMARK    5  A    between atoms: C_17  and  O_23 
ROOT
HETATM    1  N   UNK N   1      23.535  18.280   5.432  0.00  0.00    -0.299 N 
ATOM      2  HN  UNK N   1      23.367  18.637   6.372  1.00  0.00     0.187 HD
HETATM    3  N   UNK N   1      23.047  17.179   5.129  0.00  0.00    -0.300 N 
ATOM      4  HN  UNK N   1      23.208  16.811   4.191  1.00  0.00     0.187 HD
ENDROOT
BRANCH   3   5
HETATM    5  C   UNK N   1      22.272  16.414   6.042  0.00  0.00     0.059 A 
HETATM    6  C   UNK N   1      20.911  16.689   6.247  0.00  0.00     0.034 A 
HETATM    7  C   UNK N   1      20.163  15.927   7.150  0.00  0.00     0.040 A 
HETATM    8  C   UNK N   1      20.760  14.881   7.860  0.00  0.00     0.076 A 
HETATM    9  C   UNK N   1      22.119  14.592   7.668  0.00  0.00     0.009 A 
HETATM   10  C   UNK N   1      22.736  13.547   8.371  0.00  0.00     0.015 A 
HETATM   11  C   UNK N   1      22.878  15.362   6.755  0.00  0.00     0.005 A 
HETATM   12  C   UNK N   1      24.091  13.265   8.174  0.00  0.00     0.001 A 
HETATM   13  C   UNK N   1      24.839  14.024   7.274  0.00  0.00     0.001 A 
HETATM   14  C   UNK N   1      24.236  15.065   6.570  0.00  0.00     0.014 A 
BRANCH   8  15
HETATM   15  O   UNK N   1      20.022  14.160   8.724  0.00  0.00    -0.360 OA
HETATM   16  H   UNK N   1      20.443  13.597   9.344  0.00  0.00     0.217 HD
ENDBRANCH   8  15
ENDBRANCH   3   5
BRANCH   1  17
HETATM   17  C   UNK N   1      24.319  19.076   4.541  0.00  0.00     0.065 A 
HETATM   18  C   UNK N   1      23.827  19.927   3.470  0.00  0.00     0.065 A 
HETATM   19  C   UNK N   1      24.780  20.630   2.707  0.00  0.00     0.021 A 
HETATM   20  C   UNK N   1      26.144  20.533   2.947  0.00  0.00     0.001 A 
HETATM   21  C   UNK N   1      26.607  19.721   3.970  0.00  0.00     0.002 A 
HETATM   22  C   UNK N   1      25.704  19.006   4.751  0.00  0.00     0.032 A 
BRANCH  18  23
HETATM   23  C   UNK N   1      22.402  20.172   3.045  0.00  0.00     0.178 C 
HETATM   24  O   UNK N   1      21.620  19.233   3.024  0.00  0.00    -0.646 OA
BRANCH  23  25
HETATM   25  O   UNK N   1      21.938  21.372   2.685  0.00  0.00    -0.773 OA
HETATM   26  H   UNK N   1      21.079  21.639   2.947  0.00  0.00     0.167 HD
ENDBRANCH  23  25
ENDBRANCH  18  23
ENDBRANCH   1  17
TORSDOF 5
ENDMDL
MODEL 9
REMARK VINA RESULT:      -6.9     21.839     25.402
REMARK  5 active torsions:
REMARK  status: ('A' for Active; 'I' for Inactive)
REMARK    1  A    between atoms: C_1  and  N_18 
REMARK    2  A    between atoms: C_2  and  C_17 
REMARK    3  A    between atoms: C_7  and  N_20 
REMARK    4  A    between atoms: C_10  and  O_24 
REMARK    5  A    between atoms: C_17  and  O_23 
ROOT
HETATM    1  N   UNK N   1      34.661  11.906  14.321  0.00  0.00    -0.299 N 
ATOM      2  HN  UNK N   1      33.790  12.336  14.632  1.00  0.00     0.187 HD
HETATM    3  N   UNK N   1      35.566  11.749  15.157  0.00  0.00    -0.300 N 
ATOM      4  HN  UNK N   1      36.442  11.320  14.858  1.00  0.00     0.187 HD
ENDROOT
BRANCH   3   5
HETATM    5  C   UNK N   1      35.425  12.145  16.514  0.00  0.00     0.059 A 
HETATM    6  C   UNK N   1      35.444  13.500  16.880  0.00  0.00     0.034 A 
HETATM    7  C   UNK N   1      35.303  13.875  18.220  0.00  0.00     0.040 A 
HETATM    8  C   UNK N   1      35.141  12.904  19.213  0.00  0.00     0.076 A 
HETATM    9  C   UNK N   1      35.119  11.544  18.866  0.00  0.00     0.009 A 
HETATM   10  C   UNK N   1      34.958  10.556  19.848  0.00  0.00     0.015 A 
HETATM   11  C   UNK N   1      35.262  11.164  17.510  0.00  0.00     0.005 A 
HETATM   12  C   UNK N   1      34.937   9.204  19.494  0.00  0.00     0.001 A 
HETATM   13  C   UNK N   1      35.078   8.829  18.158  0.00  0.00     0.001 A 
HETATM   14  C   UNK N   1      35.239   9.803  17.173  0.00  0.00     0.014 A 
BRANCH   8  15
HETATM   15  O   UNK N   1      35.007  13.285  20.497  0.00  0.00    -0.360 OA
HETATM   16  H   UNK N   1      35.228  12.691  21.188  0.00  0.00     0.217 HD
ENDBRANCH   8  15
ENDBRANCH   3   5
BRANCH   1  17
HETATM   17  C   UNK N   1      34.767  11.520  12.949  0.00  0.00     0.065 A 
HETATM   18  C   UNK N   1      35.632  12.111  11.941  0.00  0.00     0.065 A 
HETATM   19  C   UNK N   1      35.578  11.573  10.641  0.00  0.00     0.021 A 
HETATM   20  C   UNK N   1      34.740  10.517  10.306  0.00  0.00     0.001 A 
HETATM   21  C   UNK N   1      33.918   9.958  11.271  0.00  0.00     0.002 A 
HETATM   22  C   UNK N   1      33.935  10.455  12.570  0.00  0.00     0.032 A 
BRANCH  18  23
HETATM   23  C   UNK N   1      36.606  13.250  12.092  0.00  0.00     0.178 C 
HETATM   24  O   UNK N   1      37.125  13.722  11.091  0.00  0.00    -0.646 OA
BRANCH  23  25
HETATM   25  O   UNK N   1      36.941  13.781  13.271  0.00  0.00    -0.773 OA
HETATM   26  H   UNK N   1      36.788  14.691  13.435  0.00  0.00     0.167 HD
ENDBRANCH  23  25
ENDBRANCH  18  23
ENDBRANCH   1  17
TORSDOF 5
ENDMDL
