MODEL 1
REMARK VINA RESULT:      -6.4      0.000      0.000
REMARK  4 active torsions:
REMARK  status: ('A' for Active; 'I' for Inactive)
REMARK    1  A    between atoms: C_2  and  N_1 
REMARK    2  A    between atoms: C_2  and  C_3 
REMARK    3  A    between atoms: C_2  and  C_4 
REMARK    4  A    between atoms: C_3  and  C_7 
REMARK       I    between atoms: C_4  and  N_6 
ROOT
HETATM    1  C   UNK N   1      35.182  12.712  17.030  0.00  0.00    -0.045 A 
HETATM    2  C   UNK N   1      35.171  13.517  18.180  0.00  0.00     0.008 A 
HETATM    3  C   UNK N   1      35.214  12.937  19.453  0.00  0.00     0.001 A 
HETATM    4  C   UNK N   1      35.267  11.548  19.593  0.00  0.00     0.012 A 
HETATM    5  C   UNK N   1      35.278  10.732  18.459  0.00  0.00    -0.025 A 
HETATM    6  C   UNK N   1      35.333   9.342  18.600  0.00  0.00     0.012 A 
HETATM    7  C   UNK N   1      35.345   8.522  17.466  0.00  0.00     0.001 A 
HETATM    8  C   UNK N   1      35.302   9.087  16.190  0.00  0.00     0.001 A 
HETATM    9  C   UNK N   1      35.246  10.475  16.041  0.00  0.00     0.013 A 
HETATM   10  C   UNK N   1      35.234  11.311  17.170  0.00  0.00    -0.020 A 
ENDROOT
BRANCH   1  11
HETATM   11  C   UNK N   1      35.120  13.309  15.646  0.00  0.00     0.073 C 
BRANCH  11  12
HETATM   12  C   UNK N   1      36.428  13.463  14.867  0.00  0.00     0.171 C 
BRANCH  12  13
HETATM   13  N   UNK N   1      37.162  14.620  15.356  0.00  0.00    -0.418 N 
HETATM   14  H   UNK N   1      37.402  15.528  14.959  0.00  0.00     0.150 HD
HETATM   15  H   UNK N   1      37.513  14.495  16.305  0.00  0.00     0.150 HD
ENDBRANCH  12  13
BRANCH  12  16
HETATM   16  C   UNK N   1      36.142  13.641  13.394  0.00  0.00     0.237 C 
HETATM   17  O   UNK N   1      35.005  13.876  13.023  0.00  0.00    -0.271 OA
HETATM   18  N   UNK N   1      37.134  13.558  12.477  0.00  0.00    -0.368 N 
HETATM   19  H   UNK N   1      36.950  13.424  11.520  0.00  0.00     0.159 HD
HETATM   20  H   UNK N   1      38.068  13.632  12.778  0.00  0.00     0.159 HD
ENDBRANCH  12  16
ENDBRANCH  11  12
ENDBRANCH   1  11
TORSDOF 4
ENDMDL
MODEL 2
REMARK VINA RESULT:      -6.4      1.063      2.872
REMARK  4 active torsions:
REMARK  status: ('A' for Active; 'I' for Inactive)
REMARK    1  A    between atoms: C_2  and  N_1 
REMARK    2  A    between atoms: C_2  and  C_3 
REMARK    3  A    between atoms: C_2  and  C_4 
REMARK    4  A    between atoms: C_3  and  C_7 
REMARK       I    between atoms: C_4  and  N_6 
ROOT
HETATM    1  C   UNK N   1      34.976  11.549  15.546  0.00  0.00    -0.045 A 
HETATM    2  C   UNK N   1      35.056  10.196  15.181  0.00  0.00     0.008 A 
HETATM    3  C   UNK N   1      35.259   9.209  16.153  0.00  0.00     0.001 A 
HETATM    4  C   UNK N   1      35.385   9.562  17.498  0.00  0.00     0.012 A 
HETATM    5  C   UNK N   1      35.308  10.903  17.880  0.00  0.00    -0.025 A 
HETATM    6  C   UNK N   1      35.433  11.255  19.227  0.00  0.00     0.012 A 
HETATM    7  C   UNK N   1      35.356  12.598  19.612  0.00  0.00     0.001 A 
HETATM    8  C   UNK N   1      35.154  13.593  18.653  0.00  0.00     0.001 A 
HETATM    9  C   UNK N   1      35.030  13.250  17.305  0.00  0.00     0.013 A 
HETATM   10  C   UNK N   1      35.105  11.906  16.904  0.00  0.00    -0.020 A 
ENDROOT
BRANCH   1  11
HETATM   11  C   UNK N   1      34.775  12.635  14.518  0.00  0.00     0.073 C 
BRANCH  11  12
HETATM   12  C   UNK N   1      35.894  12.885  13.504  0.00  0.00     0.171 C 
BRANCH  12  13
HETATM   13  N   UNK N   1      37.161  13.055  14.198  0.00  0.00    -0.418 N 
HETATM   14  H   UNK N   1      37.422  13.205  15.172  0.00  0.00     0.150 HD
HETATM   15  H   UNK N   1      37.965  13.014  13.573  0.00  0.00     0.150 HD
ENDBRANCH  12  13
BRANCH  12  16
HETATM   16  C   UNK N   1      35.599  14.127  12.695  0.00  0.00     0.237 C 
HETATM   17  O   UNK N   1      34.559  14.204  12.065  0.00  0.00    -0.271 OA
HETATM   18  N   UNK N   1      36.468  15.163  12.669  0.00  0.00    -0.368 N 
HETATM   19  H   UNK N   1      36.427  15.861  11.977  0.00  0.00     0.159 HD
HETATM   20  H   UNK N   1      37.163  15.220  13.364  0.00  0.00     0.159 HD
ENDBRANCH  12  16
ENDBRANCH  11  12
ENDBRANCH   1  11
TORSDOF 4
ENDMDL
MODEL 3
REMARK VINA RESULT:      -6.3     11.333     13.209
REMARK  4 active torsions:
REMARK  status: ('A' for Active; 'I' for Inactive)
REMARK    1  A    between atoms: C_2  and  N_1 
REMARK    2  A    between atoms: C_2  and  C_3 
REMARK    3  A    between atoms: C_2  and  C_4 
REMARK    4  A    between atoms: C_3  and  C_7 
REMARK       I    between atoms: C_4  and  N_6 
ROOT
HETATM    1  C   UNK N   1      30.841  17.539   7.322  0.00  0.00    -0.045 A 
HETATM    2  C   UNK N   1      31.664  17.776   8.434  0.00  0.00     0.008 A 
HETATM    3  C   UNK N   1      33.056  17.810   8.293  0.00  0.00     0.001 A 
HETATM    4  C   UNK N   1      33.641  17.608   7.041  0.00  0.00     0.012 A 
HETATM    5  C   UNK N   1      32.838  17.371   5.923  0.00  0.00    -0.025 A 
HETATM    6  C   UNK N   1      33.424  17.170   4.670  0.00  0.00     0.012 A 
HETATM    7  C   UNK N   1      32.622  16.933   3.549  0.00  0.00     0.001 A 
HETATM    8  C   UNK N   1      31.231  16.896   3.676  0.00  0.00     0.001 A 
HETATM    9  C   UNK N   1      30.638  17.094   4.924  0.00  0.00     0.013 A 
HETATM   10  C   UNK N   1      31.431  17.333   6.059  0.00  0.00    -0.020 A 
ENDROOT
BRANCH   1  11
HETATM   11  C   UNK N   1      29.339  17.480   7.449  0.00  0.00     0.073 C 
BRANCH  11  12
HETATM   12  C   UNK N   1      28.616  18.693   8.040  0.00  0.00     0.171 C 
BRANCH  12  13
HETATM   13  N   UNK N   1      27.710  18.263   9.094  0.00  0.00    -0.418 N 
HETATM   14  H   UNK N   1      26.799  17.805   9.104  0.00  0.00     0.150 HD
HETATM   15  H   UNK N   1      28.065  18.463  10.029  0.00  0.00     0.150 HD
ENDBRANCH  12  13
BRANCH  12  16
HETATM   16  C   UNK N   1      27.828  19.407   6.966  0.00  0.00     0.237 C 
HETATM   17  O   UNK N   1      28.081  19.201   5.792  0.00  0.00    -0.271 OA
HETATM   18  N   UNK N   1      26.832  20.263   7.288  0.00  0.00    -0.368 N 
HETATM   19  H   UNK N   1      26.475  20.915   6.643  0.00  0.00     0.159 HD
HETATM   20  H   UNK N   1      26.453  20.234   8.196  0.00  0.00     0.159 HD
ENDBRANCH  12  16
ENDBRANCH  11  12
ENDBRANCH   1  11
TORSDOF 4
ENDMDL
MODEL 4
REMARK VINA RESULT:      -6.2     10.523     12.402
REMARK  4 active torsions:
REMARK  status: ('A' for Active; 'I' for Inactive)
REMARK    1  A    between atoms: C_2  and  N_1 
REMARK    2  A    between atoms: C_2  and  C_3 
REMARK    3  A    between atoms: C_2  and  C_4 
REMARK    4  A    between atoms: C_3  and  C_7 
REMARK       I    between atoms: C_4  and  N_6 
ROOT
HETATM    1  C   UNK N   1      30.853  17.480   7.913  0.00  0.00    -0.045 A 
HETATM    2  C   UNK N   1      30.493  17.934   9.193  0.00  0.00     0.008 A 
HETATM    3  C   UNK N   1      29.238  18.510   9.416  0.00  0.00     0.001 A 
HETATM    4  C   UNK N   1      28.327  18.639   8.365  0.00  0.00     0.012 A 
HETATM    5  C   UNK N   1      28.666  18.194   7.085  0.00  0.00    -0.025 A 
HETATM    6  C   UNK N   1      27.753  18.323   6.035  0.00  0.00     0.012 A 
HETATM    7  C   UNK N   1      28.091  17.877   4.753  0.00  0.00     0.001 A 
HETATM    8  C   UNK N   1      29.341  17.300   4.516  0.00  0.00     0.001 A 
HETATM    9  C   UNK N   1      30.259  17.169   5.560  0.00  0.00     0.013 A 
HETATM   10  C   UNK N   1      29.934  17.612   6.853  0.00  0.00    -0.020 A 
ENDROOT
BRANCH   1  11
HETATM   11  C   UNK N   1      32.206  16.871   7.641  0.00  0.00     0.073 C 
BRANCH  11  12
HETATM   12  C   UNK N   1      33.339  17.800   7.199  0.00  0.00     0.171 C 
BRANCH  12  13
HETATM   13  N   UNK N   1      34.113  17.167   6.142  0.00  0.00    -0.418 N 
HETATM   14  H   UNK N   1      34.280  17.380   5.159  0.00  0.00     0.150 HD
HETATM   15  H   UNK N   1      34.595  16.323   6.453  0.00  0.00     0.150 HD
ENDBRANCH  12  13
BRANCH  12  16
HETATM   16  C   UNK N   1      34.249  18.108   8.366  0.00  0.00     0.237 C 
HETATM   17  O   UNK N   1      35.008  19.059   8.306  0.00  0.00    -0.271 OA
HETATM   18  N   UNK N   1      34.225  17.350   9.486  0.00  0.00    -0.368 N 
HETATM   19  H   UNK N   1      34.956  17.369  10.144  0.00  0.00     0.159 HD
HETATM   20  H   UNK N   1      33.453  16.760   9.646  0.00  0.00     0.159 HD
ENDBRANCH  12  16
ENDBRANCH  11  12
ENDBRANCH   1  11
TORSDOF 4
ENDMDL
MODEL 5
REMARK VINA RESULT:      -6.1     25.902     28.415
REMARK  4 active torsions:
REMARK  status: ('A' for Active; 'I' for Inactive)
REMARK    1  A    between atoms: C_2  and  N_1 
REMARK    2  A    between atoms: C_2  and  C_3 
REMARK    3  A    between atoms: C_2  and  C_4 
REMARK    4  A    between atoms: C_3  and  C_7 
REMARK       I    between atoms: C_4  and  N_6 
ROOT
HETATM    1  C   UNK N   1      25.946  27.414  -5.266  0.00  0.00    -0.045 A 
HETATM    2  C   UNK N   1      25.582  28.048  -4.066  0.00  0.00     0.008 A 
HETATM    3  C   UNK N   1      26.204  29.240  -3.677  0.00  0.00     0.001 A 
HETATM    4  C   UNK N   1      27.194  29.812  -4.478  0.00  0.00     0.012 A 
HETATM    5  C   UNK N   1      27.569  29.195  -5.675  0.00  0.00    -0.025 A 
HETATM    6  C   UNK N   1      28.559  29.769  -6.477  0.00  0.00     0.012 A 
HETATM    7  C   UNK N   1      28.936  29.154  -7.675  0.00  0.00     0.001 A 
HETATM    8  C   UNK N   1      28.324  27.964  -8.076  0.00  0.00     0.001 A 
HETATM    9  C   UNK N   1      27.334  27.383  -7.280  0.00  0.00     0.013 A 
HETATM   10  C   UNK N   1      26.946  27.990  -6.074  0.00  0.00    -0.020 A 
ENDROOT
BRANCH   1  11
HETATM   11  C   UNK N   1      25.304  26.120  -5.701  0.00  0.00     0.073 C 
BRANCH  11  12
HETATM   12  C   UNK N   1      26.154  24.847  -5.670  0.00  0.00     0.171 C 
BRANCH  12  13
HETATM   13  N   UNK N   1      25.321  23.690  -5.956  0.00  0.00    -0.418 N 
HETATM   14  H   UNK N   1      24.985  22.902  -5.402  0.00  0.00     0.150 HD
HETATM   15  H   UNK N   1      25.001  23.660  -6.924  0.00  0.00     0.150 HD
ENDBRANCH  12  13
BRANCH  12  16
HETATM   16  C   UNK N   1      26.792  24.677  -4.311  0.00  0.00     0.237 C 
HETATM   17  O   UNK N   1      26.106  24.350  -3.358  0.00  0.00    -0.271 OA
HETATM   18  N   UNK N   1      28.120  24.870  -4.136  0.00  0.00    -0.368 N 
HETATM   19  H   UNK N   1      28.514  25.008  -3.246  0.00  0.00     0.159 HD
HETATM   20  H   UNK N   1      28.709  24.872  -4.925  0.00  0.00     0.159 HD
ENDBRANCH  12  16
ENDBRANCH  11  12
ENDBRANCH   1  11
TORSDOF 4
ENDMDL
MODEL 6
REMARK VINA RESULT:      -6.1     25.976     28.495
REMARK  4 active torsions:
REMARK  status: ('A' for Active; 'I' for Inactive)
REMARK    1  A    between atoms: C_2  and  N_1 
REMARK    2  A    between atoms: C_2  and  C_3 
REMARK    3  A    between atoms: C_2  and  C_4 
REMARK    4  A    between atoms: C_3  and  C_7 
REMARK       I    between atoms: C_4  and  N_6 
ROOT
HETATM    1  C   UNK N   1      26.597  26.733  -6.707  0.00  0.00    -0.045 A 
HETATM    2  C   UNK N   1      27.410  26.756  -7.852  0.00  0.00     0.008 A 
HETATM    3  C   UNK N   1      28.266  27.837  -8.092  0.00  0.00     0.001 A 
HETATM    4  C   UNK N   1      28.321  28.905  -7.194  0.00  0.00     0.012 A 
HETATM    5  C   UNK N   1      27.520  28.899  -6.050  0.00  0.00    -0.025 A 
HETATM    6  C   UNK N   1      27.576  29.968  -5.151  0.00  0.00     0.012 A 
HETATM    7  C   UNK N   1      26.775  29.964  -4.004  0.00  0.00     0.001 A 
HETATM    8  C   UNK N   1      25.915  28.892  -3.752  0.00  0.00     0.001 A 
HETATM    9  C   UNK N   1      25.852  27.821  -4.646  0.00  0.00     0.013 A 
HETATM   10  C   UNK N   1      26.651  27.811  -5.801  0.00  0.00    -0.020 A 
ENDROOT
BRANCH   1  11
HETATM   11  C   UNK N   1      25.652  25.589  -6.432  0.00  0.00     0.073 C 
BRANCH  11  12
HETATM   12  C   UNK N   1      26.253  24.218  -6.112  0.00  0.00     0.171 C 
BRANCH  12  13
HETATM   13  N   UNK N   1      25.235  23.188  -6.252  0.00  0.00    -0.418 N 
HETATM   14  H   UNK N   1      25.230  22.242  -6.634  0.00  0.00     0.150 HD
HETATM   15  H   UNK N   1      24.327  23.474  -5.888  0.00  0.00     0.150 HD
ENDBRANCH  12  13
BRANCH  12  16
HETATM   16  C   UNK N   1      26.790  24.198  -4.700  0.00  0.00     0.237 C 
HETATM   17  O   UNK N   1      26.029  24.359  -3.762  0.00  0.00    -0.271 OA
HETATM   18  N   UNK N   1      28.105  23.991  -4.458  0.00  0.00    -0.368 N 
HETATM   19  H   UNK N   1      28.517  24.213  -3.593  0.00  0.00     0.159 HD
HETATM   20  H   UNK N   1      28.665  23.606  -5.170  0.00  0.00     0.159 HD
ENDBRANCH  12  16
ENDBRANCH  11  12
ENDBRANCH   1  11
TORSDOF 4
ENDMDL
MODEL 7
REMARK VINA RESULT:      -5.9     28.251     29.210
REMARK  4 active torsions:
REMARK  status: ('A' for Active; 'I' for Inactive)
REMARK    1  A    between atoms: C_2  and  N_1 
REMARK    2  A    between atoms: C_2  and  C_3 
REMARK    3  A    between atoms: C_2  and  C_4 
REMARK    4  A    between atoms: C_3  and  C_7 
REMARK       I    between atoms: C_4  and  N_6 
ROOT
HETATM    1  C   UNK N   1      26.130  26.944  -6.626  0.00  0.00    -0.045 A 
HETATM    2  C   UNK N   1      25.231  26.824  -5.555  0.00  0.00     0.008 A 
HETATM    3  C   UNK N   1      25.289  27.713  -4.476  0.00  0.00     0.001 A 
HETATM    4  C   UNK N   1      26.244  28.732  -4.454  0.00  0.00     0.012 A 
HETATM    5  C   UNK N   1      27.147  28.866  -5.512  0.00  0.00    -0.025 A 
HETATM    6  C   UNK N   1      28.103  29.887  -5.490  0.00  0.00     0.012 A 
HETATM    7  C   UNK N   1      29.008  30.024  -6.548  0.00  0.00     0.001 A 
HETATM    8  C   UNK N   1      28.961  29.143  -7.631  0.00  0.00     0.001 A 
HETATM    9  C   UNK N   1      28.011  28.120  -7.660  0.00  0.00     0.013 A 
HETATM   10  C   UNK N   1      27.095  27.970  -6.605  0.00  0.00    -0.020 A 
ENDROOT
BRANCH   1  11
HETATM   11  C   UNK N   1      26.101  25.988  -7.794  0.00  0.00     0.073 C 
BRANCH  11  12
HETATM   12  C   UNK N   1      26.634  24.570  -7.579  0.00  0.00     0.171 C 
BRANCH  12  13
HETATM   13  N   UNK N   1      27.573  24.229  -8.637  0.00  0.00    -0.418 N 
HETATM   14  H   UNK N   1      27.517  23.657  -9.479  0.00  0.00     0.150 HD
HETATM   15  H   UNK N   1      28.489  24.658  -8.508  0.00  0.00     0.150 HD
ENDBRANCH  12  13
BRANCH  12  16
HETATM   16  C   UNK N   1      25.496  23.576  -7.585  0.00  0.00     0.237 C 
HETATM   17  O   UNK N   1      24.758  23.508  -8.552  0.00  0.00    -0.271 OA
HETATM   18  N   UNK N   1      25.290  22.747  -6.536  0.00  0.00    -0.368 N 
HETATM   19  H   UNK N   1      24.437  22.276  -6.403  0.00  0.00     0.159 HD
HETATM   20  H   UNK N   1      26.016  22.612  -5.885  0.00  0.00     0.159 HD
ENDBRANCH  12  16
ENDBRANCH  11  12
ENDBRANCH   1  11
TORSDOF 4
ENDMDL
MODEL 8
REMARK VINA RESULT:      -5.8     22.940     25.215
REMARK  4 active torsions:
REMARK  status: ('A' for Active; 'I' for Inactive)
REMARK    1  A    between atoms: C_2  and  N_1 
REMARK    2  A    between atoms: C_2  and  C_3 
REMARK    3  A    between atoms: C_2  and  C_4 
REMARK    4  A    between atoms: C_3  and  C_7 
REMARK       I    between atoms: C_4  and  N_6 
ROOT
HETATM    1  C   UNK N   1      28.742  22.746  -5.960  0.00  0.00    -0.045 A 
HETATM    2  C   UNK N   1      28.588  21.916  -7.082  0.00  0.00     0.008 A 
HETATM    3  C   UNK N   1      29.349  20.749  -7.212  0.00  0.00     0.001 A 
HETATM    4  C   UNK N   1      30.272  20.397  -6.225  0.00  0.00     0.012 A 
HETATM    5  C   UNK N   1      30.439  21.211  -5.102  0.00  0.00    -0.025 A 
HETATM    6  C   UNK N   1      31.363  20.857  -4.114  0.00  0.00     0.012 A 
HETATM    7  C   UNK N   1      31.532  21.670  -2.988  0.00  0.00     0.001 A 
HETATM    8  C   UNK N   1      30.779  22.838  -2.845  0.00  0.00     0.001 A 
HETATM    9  C   UNK N   1      29.855  23.199  -3.828  0.00  0.00     0.013 A 
HETATM   10  C   UNK N   1      29.675  22.392  -4.964  0.00  0.00    -0.020 A 
ENDROOT
BRANCH   1  11
HETATM   11  C   UNK N   1      27.947  24.018  -5.802  0.00  0.00     0.073 C 
BRANCH  11  12
HETATM   12  C   UNK N   1      26.527  23.917  -5.241  0.00  0.00     0.171 C 
BRANCH  12  13
HETATM   13  N   UNK N   1      25.583  24.512  -6.174  0.00  0.00    -0.418 N 
HETATM   14  H   UNK N   1      24.798  25.156  -6.077  0.00  0.00     0.150 HD
HETATM   15  H   UNK N   1      25.742  24.222  -7.139  0.00  0.00     0.150 HD
ENDBRANCH  12  13
BRANCH  12  16
HETATM   16  C   UNK N   1      26.436  24.636  -3.915  0.00  0.00     0.237 C 
HETATM   17  O   UNK N   1      26.520  24.002  -2.877  0.00  0.00    -0.271 OA
HETATM   18  N   UNK N   1      26.276  25.978  -3.860  0.00  0.00    -0.368 N 
HETATM   19  H   UNK N   1      25.972  26.434  -3.043  0.00  0.00     0.159 HD
HETATM   20  H   UNK N   1      26.469  26.514  -4.663  0.00  0.00     0.159 HD
ENDBRANCH  12  16
ENDBRANCH  11  12
ENDBRANCH   1  11
TORSDOF 4
ENDMDL
MODEL 9
REMARK VINA RESULT:      -5.6     11.041     13.192
REMARK  4 active torsions:
REMARK  status: ('A' for Active; 'I' for Inactive)
REMARK    1  A    between atoms: C_2  and  N_1 
REMARK    2  A    between atoms: C_2  and  C_3 
REMARK    3  A    between atoms: C_2  and  C_4 
REMARK    4  A    between atoms: C_3  and  C_7 
REMARK       I    between atoms: C_4  and  N_6 
ROOT
HETATM    1  C   UNK N   1      30.049  17.325   5.512  0.00  0.00    -0.045 A 
HETATM    2  C   UNK N   1      29.143  17.642   4.486  0.00  0.00     0.008 A 
HETATM    3  C   UNK N   1      27.945  18.304   4.776  0.00  0.00     0.001 A 
HETATM    4  C   UNK N   1      27.636  18.656   6.092  0.00  0.00     0.012 A 
HETATM    5  C   UNK N   1      28.524  18.348   7.126  0.00  0.00    -0.025 A 
HETATM    6  C   UNK N   1      28.215  18.702   8.442  0.00  0.00     0.012 A 
HETATM    7  C   UNK N   1      29.103  18.395   9.479  0.00  0.00     0.001 A 
HETATM    8  C   UNK N   1      30.303  17.735   9.203  0.00  0.00     0.001 A 
HETATM    9  C   UNK N   1      30.619  17.377   7.891  0.00  0.00     0.013 A 
HETATM   10  C   UNK N   1      29.737  17.678   6.840  0.00  0.00    -0.020 A 
ENDROOT
BRANCH   1  11
HETATM   11  C   UNK N   1      31.340  16.597   5.230  0.00  0.00     0.073 C 
BRANCH  11  12
HETATM   12  C   UNK N   1      32.534  17.414   4.731  0.00  0.00     0.171 C 
BRANCH  12  13
HETATM   13  N   UNK N   1      32.810  17.087   3.340  0.00  0.00    -0.418 N 
HETATM   14  H   UNK N   1      32.379  17.343   2.452  0.00  0.00     0.150 HD
HETATM   15  H   UNK N   1      33.611  16.467   3.229  0.00  0.00     0.150 HD
ENDBRANCH  12  13
BRANCH  12  16
HETATM   16  C   UNK N   1      33.758  17.114   5.565  0.00  0.00     0.237 C 
HETATM   17  O   UNK N   1      34.205  17.968   6.312  0.00  0.00    -0.271 OA
HETATM   18  N   UNK N   1      34.361  15.905   5.507  0.00  0.00    -0.368 N 
HETATM   19  H   UNK N   1      35.276  15.761   5.837  0.00  0.00     0.159 HD
HETATM   20  H   UNK N   1      33.867  15.144   5.122  0.00  0.00     0.159 HD
ENDBRANCH  12  16
ENDBRANCH  11  12
ENDBRANCH   1  11
TORSDOF 4
ENDMDL
