MODEL 1
REMARK VINA RESULT:      -6.0      0.000      0.000
REMARK  2 active torsions:
REMARK  status: ('A' for Active; 'I' for Inactive)
REMARK    1  A    between atoms: S_1  and  O_4 
REMARK    2  A    between atoms: S_1  and  C_6 
ROOT
HETATM    1  C   UNK N   1      23.842  20.274   3.096  0.00  0.00     0.037 A 
HETATM    2  C   UNK N   1      22.667  19.552   3.335  0.00  0.00     0.073 A 
HETATM    3  C   UNK N   1      22.725  18.330   4.025  0.00  0.00     0.026 A 
HETATM    4  C   UNK N   1      23.952  17.847   4.498  0.00  0.00     0.014 A 
HETATM    5  C   UNK N   1      26.353  18.106   4.741  0.00  0.00     0.012 A 
HETATM    6  C   UNK N   1      27.519  18.842   4.505  0.00  0.00     0.001 A 
HETATM    7  C   UNK N   1      27.460  20.049   3.799  0.00  0.00     0.001 A 
HETATM    8  C   UNK N   1      26.235  20.527   3.328  0.00  0.00     0.012 A 
HETATM    9  C   UNK N   1      25.067  19.798   3.561  0.00  0.00    -0.025 A 
HETATM   10  C   UNK N   1      25.123  18.578   4.271  0.00  0.00    -0.026 A 
ENDROOT
BRANCH   2  11
HETATM   11  S   UNK N   1      21.112  20.186   2.699  0.00  0.00     0.129 S 
HETATM   12  O   UNK N   1      20.191  21.063   3.559  0.00  0.00    -0.598 OA
HETATM   13  O   UNK N   1      21.096  20.793   1.288  0.00  0.00    -0.598 OA
BRANCH  11  14
HETATM   14  O   UNK N   1      22.132  21.547   2.960  0.00  0.00    -0.292 OA
HETATM   15  H   UNK N   1      22.861  22.187   2.956  0.00  0.00     0.232 HD
ENDBRANCH  11  14
ENDBRANCH   2  11
TORSDOF 2
ENDMDL
MODEL 2
REMARK VINA RESULT:      -5.8      9.113     10.383
REMARK  2 active torsions:
REMARK  status: ('A' for Active; 'I' for Inactive)
REMARK    1  A    between atoms: S_1  and  O_4 
REMARK    2  A    between atoms: S_1  and  C_6 
ROOT
HETATM    1  C   UNK N   1      31.893  17.930   8.601  0.00  0.00     0.037 A 
HETATM    2  C   UNK N   1      32.792  17.622   7.573  0.00  0.00     0.073 A 
HETATM    3  C   UNK N   1      32.311  17.145   6.343  0.00  0.00     0.026 A 
HETATM    4  C   UNK N   1      30.933  17.003   6.134  0.00  0.00     0.014 A 
HETATM    5  C   UNK N   1      28.658  17.188   6.959  0.00  0.00     0.012 A 
HETATM    6  C   UNK N   1      27.769  17.510   7.991  0.00  0.00     0.001 A 
HETATM    7  C   UNK N   1      28.253  17.966   9.222  0.00  0.00     0.001 A 
HETATM    8  C   UNK N   1      29.629  18.105   9.427  0.00  0.00     0.012 A 
HETATM    9  C   UNK N   1      30.521  17.788   8.401  0.00  0.00    -0.025 A 
HETATM   10  C   UNK N   1      30.036  17.325   7.157  0.00  0.00    -0.026 A 
ENDROOT
BRANCH   2  11
HETATM   11  S   UNK N   1      34.553  17.795   7.876  0.00  0.00     0.129 S 
HETATM   12  O   UNK N   1      35.139  19.069   8.503  0.00  0.00    -0.598 OA
HETATM   13  O   UNK N   1      35.301  16.615   8.515  0.00  0.00    -0.598 OA
BRANCH  11  14
HETATM   14  O   UNK N   1      33.786  17.767   9.417  0.00  0.00    -0.292 OA
HETATM   15  H   UNK N   1      33.533  17.916  10.341  0.00  0.00     0.232 HD
ENDBRANCH  11  14
ENDBRANCH   2  11
TORSDOF 2
ENDMDL
MODEL 3
REMARK VINA RESULT:      -5.8     17.146     18.642
REMARK  2 active torsions:
REMARK  status: ('A' for Active; 'I' for Inactive)
REMARK    1  A    between atoms: S_1  and  O_4 
REMARK    2  A    between atoms: S_1  and  C_6 
ROOT
HETATM    1  C   UNK N   1      35.354  13.171  15.618  0.00  0.00     0.037 A 
HETATM    2  C   UNK N   1      35.548  12.281  14.555  0.00  0.00     0.073 A 
HETATM    3  C   UNK N   1      35.759  10.917  14.815  0.00  0.00     0.026 A 
HETATM    4  C   UNK N   1      35.750  10.442  16.133  0.00  0.00     0.014 A 
HETATM    5  C   UNK N   1      35.530  10.867  18.512  0.00  0.00     0.012 A 
HETATM    6  C   UNK N   1      35.326  11.765  19.565  0.00  0.00     0.001 A 
HETATM    7  C   UNK N   1      35.136  13.126  19.304  0.00  0.00     0.001 A 
HETATM    8  C   UNK N   1      35.146  13.597  17.988  0.00  0.00     0.012 A 
HETATM    9  C   UNK N   1      35.348  12.705  16.932  0.00  0.00    -0.025 A 
HETATM   10  C   UNK N   1      35.543  11.331  17.192  0.00  0.00    -0.026 A 
ENDROOT
BRANCH   2  11
HETATM   11  S   UNK N   1      35.573  12.921  12.878  0.00  0.00     0.129 S 
HETATM   12  O   UNK N   1      34.567  13.982  12.408  0.00  0.00    -0.598 OA
HETATM   13  O   UNK N   1      36.929  13.308  12.267  0.00  0.00    -0.598 OA
BRANCH  11  14
HETATM   14  O   UNK N   1      35.993  14.230  13.914  0.00  0.00    -0.292 OA
HETATM   15  H   UNK N   1      35.995  14.935  14.581  0.00  0.00     0.232 HD
ENDBRANCH  11  14
ENDBRANCH   2  11
TORSDOF 2
ENDMDL
MODEL 4
REMARK VINA RESULT:      -5.8     11.231     12.447
REMARK  2 active torsions:
REMARK  status: ('A' for Active; 'I' for Inactive)
REMARK    1  A    between atoms: S_1  and  O_4 
REMARK    2  A    between atoms: S_1  and  C_6 
ROOT
HETATM    1  C   UNK N   1      34.727  15.456   7.353  0.00  0.00     0.037 A 
HETATM    2  C   UNK N   1      34.691  16.255   8.502  0.00  0.00     0.073 A 
HETATM    3  C   UNK N   1      34.117  17.535   8.445  0.00  0.00     0.026 A 
HETATM    4  C   UNK N   1      33.556  18.002   7.249  0.00  0.00     0.014 A 
HETATM    5  C   UNK N   1      33.022  17.652   4.907  0.00  0.00     0.012 A 
HETATM    6  C   UNK N   1      33.054  16.840   3.769  0.00  0.00     0.001 A 
HETATM    7  C   UNK N   1      33.646  15.573   3.824  0.00  0.00     0.001 A 
HETATM    8  C   UNK N   1      34.205  15.111   5.018  0.00  0.00     0.012 A 
HETATM    9  C   UNK N   1      34.174  15.916   6.159  0.00  0.00    -0.025 A 
HETATM   10  C   UNK N   1      33.580  17.197   6.106  0.00  0.00    -0.026 A 
ENDROOT
BRANCH   2  11
HETATM   11  S   UNK N   1      35.435  15.638  10.015  0.00  0.00     0.129 S 
HETATM   12  O   UNK N   1      36.589  16.380  10.704  0.00  0.00    -0.598 OA
HETATM   13  O   UNK N   1      34.505  15.146  11.135  0.00  0.00    -0.598 OA
BRANCH  11  14
HETATM   14  O   UNK N   1      34.657  17.120  10.415  0.00  0.00    -0.292 OA
HETATM   15  H   UNK N   1      34.410  17.975  10.800  0.00  0.00     0.232 HD
ENDBRANCH  11  14
ENDBRANCH   2  11
TORSDOF 2
ENDMDL
MODEL 5
REMARK VINA RESULT:      -5.8     10.997     12.167
REMARK  2 active torsions:
REMARK  status: ('A' for Active; 'I' for Inactive)
REMARK    1  A    between atoms: S_1  and  O_4 
REMARK    2  A    between atoms: S_1  and  C_6 
ROOT
HETATM    1  C   UNK N   1      25.606  25.813  -7.274  0.00  0.00     0.037 A 
HETATM    2  C   UNK N   1      25.932  24.514  -7.683  0.00  0.00     0.073 A 
HETATM    3  C   UNK N   1      26.464  23.603  -6.757  0.00  0.00     0.026 A 
HETATM    4  C   UNK N   1      26.643  23.982  -5.420  0.00  0.00     0.014 A 
HETATM    5  C   UNK N   1      26.475  25.664  -3.678  0.00  0.00     0.012 A 
HETATM    6  C   UNK N   1      26.136  26.961  -3.279  0.00  0.00     0.001 A 
HETATM    7  C   UNK N   1      25.625  27.873  -4.210  0.00  0.00     0.001 A 
HETATM    8  C   UNK N   1      25.449  27.492  -5.542  0.00  0.00     0.012 A 
HETATM    9  C   UNK N   1      25.785  26.198  -5.946  0.00  0.00    -0.025 A 
HETATM   10  C   UNK N   1      26.303  25.275  -5.010  0.00  0.00    -0.026 A 
ENDROOT
BRANCH   2  11
HETATM   11  S   UNK N   1      25.710  24.063  -9.407  0.00  0.00     0.129 S 
HETATM   12  O   UNK N   1      25.827  22.606  -9.877  0.00  0.00    -0.598 OA
HETATM   13  O   UNK N   1      24.526  24.673 -10.172  0.00  0.00    -0.598 OA
BRANCH  11  14
HETATM   14  O   UNK N   1      24.408  23.350  -8.537  0.00  0.00    -0.292 OA
HETATM   15  H   UNK N   1      23.693  23.157  -7.911  0.00  0.00     0.232 HD
ENDBRANCH  11  14
ENDBRANCH   2  11
TORSDOF 2
ENDMDL
MODEL 6
REMARK VINA RESULT:      -5.7      9.166     10.252
REMARK  2 active torsions:
REMARK  status: ('A' for Active; 'I' for Inactive)
REMARK    1  A    between atoms: S_1  and  O_4 
REMARK    2  A    between atoms: S_1  and  C_6 
ROOT
HETATM    1  C   UNK N   1      33.028  17.391   6.034  0.00  0.00     0.037 A 
HETATM    2  C   UNK N   1      32.786  17.544   7.404  0.00  0.00     0.073 A 
HETATM    3  C   UNK N   1      31.472  17.477   7.894  0.00  0.00     0.026 A 
HETATM    4  C   UNK N   1      30.406  17.231   7.018  0.00  0.00     0.014 A 
HETATM    5  C   UNK N   1      29.595  16.817   4.768  0.00  0.00     0.012 A 
HETATM    6  C   UNK N   1      29.850  16.656   3.403  0.00  0.00     0.001 A 
HETATM    7  C   UNK N   1      31.159  16.743   2.916  0.00  0.00     0.001 A 
HETATM    8  C   UNK N   1      32.220  16.990   3.792  0.00  0.00     0.012 A 
HETATM    9  C   UNK N   1      31.972  17.150   5.156  0.00  0.00    -0.025 A 
HETATM   10  C   UNK N   1      30.651  17.065   5.652  0.00  0.00    -0.026 A 
ENDROOT
BRANCH   2  11
HETATM   11  S   UNK N   1      34.169  17.878   8.500  0.00  0.00     0.129 S 
HETATM   12  O   UNK N   1      35.224  16.806   8.811  0.00  0.00    -0.598 OA
HETATM   13  O   UNK N   1      34.932  19.200   8.326  0.00  0.00    -0.598 OA
BRANCH  11  14
HETATM   14  O   UNK N   1      34.830  17.625   6.931  0.00  0.00    -0.292 OA
HETATM   15  H   UNK N   1      34.964  17.429   5.990  0.00  0.00     0.232 HD
ENDBRANCH  11  14
ENDBRANCH   2  11
TORSDOF 2
ENDMDL
MODEL 7
REMARK VINA RESULT:      -5.7     11.831     13.027
REMARK  2 active torsions:
REMARK  status: ('A' for Active; 'I' for Inactive)
REMARK    1  A    between atoms: S_1  and  O_4 
REMARK    2  A    between atoms: S_1  and  C_6 
ROOT
HETATM    1  C   UNK N   1      27.057  26.821  -7.317  0.00  0.00     0.037 A 
HETATM    2  C   UNK N   1      26.118  25.810  -7.083  0.00  0.00     0.073 A 
HETATM    3  C   UNK N   1      25.272  25.887  -5.966  0.00  0.00     0.026 A 
HETATM    4  C   UNK N   1      25.347  26.986  -5.100  0.00  0.00     0.014 A 
HETATM    5  C   UNK N   1      26.359  29.105  -4.487  0.00  0.00     0.012 A 
HETATM    6  C   UNK N   1      27.295  30.114  -4.737  0.00  0.00     0.001 A 
HETATM    7  C   UNK N   1      28.151  30.024  -5.841  0.00  0.00     0.001 A 
HETATM    8  C   UNK N   1      28.073  28.926  -6.701  0.00  0.00     0.012 A 
HETATM    9  C   UNK N   1      27.140  27.916  -6.458  0.00  0.00    -0.025 A 
HETATM   10  C   UNK N   1      26.276  28.002  -5.344  0.00  0.00    -0.026 A 
ENDROOT
BRANCH   2  11
HETATM   11  S   UNK N   1      26.058  24.404  -8.199  0.00  0.00     0.129 S 
HETATM   12  O   UNK N   1      26.875  23.132  -7.932  0.00  0.00    -0.598 OA
HETATM   13  O   UNK N   1      24.686  23.939  -8.710  0.00  0.00    -0.598 OA
BRANCH  11  14
HETATM   14  O   UNK N   1      25.357  23.888  -6.714  0.00  0.00    -0.292 OA
HETATM   15  H   UNK N   1      24.819  23.461  -6.030  0.00  0.00     0.232 HD
ENDBRANCH  11  14
ENDBRANCH   2  11
TORSDOF 2
ENDMDL
MODEL 8
REMARK VINA RESULT:      -5.6     15.597     16.984
REMARK  2 active torsions:
REMARK  status: ('A' for Active; 'I' for Inactive)
REMARK    1  A    between atoms: S_1  and  O_4 
REMARK    2  A    between atoms: S_1  and  C_6 
ROOT
HETATM    1  C   UNK N   1      34.939  12.986  12.766  0.00  0.00     0.037 A 
HETATM    2  C   UNK N   1      35.702  14.153  12.640  0.00  0.00     0.073 A 
HETATM    3  C   UNK N   1      36.448  14.622  13.734  0.00  0.00     0.026 A 
HETATM    4  C   UNK N   1      36.451  13.909  14.940  0.00  0.00     0.014 A 
HETATM    5  C   UNK N   1      35.696  12.016  16.258  0.00  0.00     0.012 A 
HETATM    6  C   UNK N   1      34.938  10.846  16.368  0.00  0.00     0.001 A 
HETATM    7  C   UNK N   1      34.180  10.393  15.283  0.00  0.00     0.001 A 
HETATM    8  C   UNK N   1      34.178  11.107  14.081  0.00  0.00     0.012 A 
HETATM    9  C   UNK N   1      34.934  12.275  13.965  0.00  0.00    -0.025 A 
HETATM   10  C   UNK N   1      35.699  12.736  15.059  0.00  0.00    -0.026 A 
ENDROOT
BRANCH   2  11
HETATM   11  S   UNK N   1      35.662  15.055  11.088  0.00  0.00     0.129 S 
HETATM   12  O   UNK N   1      36.563  16.275  10.845  0.00  0.00    -0.598 OA
HETATM   13  O   UNK N   1      35.658  14.251   9.779  0.00  0.00    -0.598 OA
BRANCH  11  14
HETATM   14  O   UNK N   1      37.216  14.322  11.196  0.00  0.00    -0.292 OA
HETATM   15  H   UNK N   1      38.110  14.055  11.459  0.00  0.00     0.232 HD
ENDBRANCH  11  14
ENDBRANCH   2  11
TORSDOF 2
ENDMDL
MODEL 9
REMARK VINA RESULT:      -5.6      8.684     10.040
REMARK  2 active torsions:
REMARK  status: ('A' for Active; 'I' for Inactive)
REMARK    1  A    between atoms: S_1  and  O_4 
REMARK    2  A    between atoms: S_1  and  C_6 
ROOT
HETATM    1  C   UNK N   1      31.195  16.612   6.521  0.00  0.00     0.037 A 
HETATM    2  C   UNK N   1      32.575  16.782   6.677  0.00  0.00     0.073 A 
HETATM    3  C   UNK N   1      33.068  17.572   7.729  0.00  0.00     0.026 A 
HETATM    4  C   UNK N   1      32.182  18.166   8.637  0.00  0.00     0.014 A 
HETATM    5  C   UNK N   1      29.910  18.571   9.389  0.00  0.00     0.012 A 
HETATM    6  C   UNK N   1      28.533  18.385   9.229  0.00  0.00     0.001 A 
HETATM    7  C   UNK N   1      28.045  17.614   8.168  0.00  0.00     0.001 A 
HETATM    8  C   UNK N   1      28.931  17.023   7.263  0.00  0.00     0.012 A 
HETATM    9  C   UNK N   1      30.307  17.204   7.419  0.00  0.00    -0.025 A 
HETATM   10  C   UNK N   1      30.804  17.983   8.488  0.00  0.00    -0.026 A 
ENDROOT
BRANCH   2  11
HETATM   11  S   UNK N   1      33.685  16.024   5.487  0.00  0.00     0.129 S 
HETATM   12  O   UNK N   1      33.594  16.343   3.987  0.00  0.00    -0.598 OA
HETATM   13  O   UNK N   1      35.182  15.959   5.826  0.00  0.00    -0.598 OA
BRANCH  11  14
HETATM   14  O   UNK N   1      34.050  17.706   5.503  0.00  0.00    -0.292 OA
HETATM   15  H   UNK N   1      34.378  18.592   5.722  0.00  0.00     0.232 HD
ENDBRANCH  11  14
ENDBRANCH   2  11
TORSDOF 2
ENDMDL
