MODEL 1
REMARK VINA RESULT:      -5.6      0.000      0.000
REMARK  6 active torsions:
REMARK  status: ('A' for Active; 'I' for Inactive)
REMARK    1  A    between atoms: C_3  and  O_12 
REMARK    2  A    between atoms: C_4  and  O_13 
REMARK    3  A    between atoms: C_5  and  C_6 
REMARK    4  A    between atoms: C_6  and  O_15 
REMARK    5  A    between atoms: C_7  and  C_8 
REMARK    6  A    between atoms: C_8  and  C_17 
ROOT
HETATM    1  C   UNK N   1      21.990  18.342   3.930  0.00  0.00     0.214 C 
HETATM    2  C   UNK N   1      21.545  19.763   3.493  0.00  0.00     0.152 C 
HETATM    3  C   UNK N   1      20.348  19.744   2.525  0.00  0.00     0.175 C 
HETATM    4  C   UNK N   1      19.457  18.586   2.969  0.00  0.00     0.180 C 
HETATM    5  C   UNK N   1      20.250  17.262   2.730  0.00  0.00     0.178 C 
HETATM    6  C   UNK N   1      23.815  19.901   3.183  0.00  0.00     0.045 C 
HETATM    7  N   UNK N   1      22.684  20.448   2.955  0.00  0.00    -0.377 N 
ATOM      8  HN  UNK N   1      22.597  21.314   2.424  1.00  0.00     0.160 HD
HETATM    9  O   UNK N   1      21.659  17.359   2.966  0.00  0.00    -0.363 OA
HETATM   10  S   UNK N   1      23.805  18.393   4.140  0.00  0.00    -0.083 SA
ENDROOT
BRANCH   5  11
HETATM   11  C   UNK N   1      19.661  16.091   3.515  0.00  0.00     0.198 C 
BRANCH  11  12
HETATM   12  O   UNK N   1      18.693  16.533   4.419  0.00  0.00    -0.398 OA
HETATM   13  H   UNK N   1      18.913  17.200   5.088  0.00  0.00     0.209 HD
ENDBRANCH  11  12
ENDBRANCH   5  11
BRANCH   4  14
HETATM   14  O   UNK N   1      18.254  18.574   2.257  0.00  0.00    -0.390 OA
HETATM   15  H   UNK N   1      18.142  18.124   1.406  0.00  0.00     0.210 HD
ENDBRANCH   4  14
BRANCH   3  16
HETATM   16  O   UNK N   1      20.766  19.536   1.204  0.00  0.00    -0.391 OA
HETATM   17  H   UNK N   1      20.801  19.354   0.252  0.00  0.00     0.210 HD
ENDBRANCH   3  16
BRANCH   6  18
HETATM   18  C   UNK N   1      25.092  20.540   2.739  0.00  0.00     0.064 C 
BRANCH  18  19
HETATM   19  C   UNK N   1      26.288  19.913   3.444  0.00  0.00     0.002 C 
HETATM   20  C   UNK N   1      26.698  20.741   4.649  0.00  0.00     0.005 C 
ENDBRANCH  18  19
ENDBRANCH   6  18
TORSDOF 6
ENDMDL
MODEL 2
REMARK VINA RESULT:      -5.4      2.014      3.229
REMARK  6 active torsions:
REMARK  status: ('A' for Active; 'I' for Inactive)
REMARK    1  A    between atoms: C_3  and  O_12 
REMARK    2  A    between atoms: C_4  and  O_13 
REMARK    3  A    between atoms: C_5  and  C_6 
REMARK    4  A    between atoms: C_6  and  O_15 
REMARK    5  A    between atoms: C_7  and  C_8 
REMARK    6  A    between atoms: C_8  and  C_17 
ROOT
HETATM    1  C   UNK N   1      23.246  20.055   2.541  0.00  0.00     0.214 C 
HETATM    2  C   UNK N   1      22.866  18.847   3.437  0.00  0.00     0.152 C 
HETATM    3  C   UNK N   1      21.367  18.813   3.791  0.00  0.00     0.175 C 
HETATM    4  C   UNK N   1      20.625  19.327   2.560  0.00  0.00     0.180 C 
HETATM    5  C   UNK N   1      21.009  20.829   2.371  0.00  0.00     0.178 C 
HETATM    6  C   UNK N   1      24.722  19.636   4.533  0.00  0.00     0.045 C 
HETATM    7  N   UNK N   1      23.710  18.860   4.597  0.00  0.00    -0.377 N 
ATOM      8  HN  UNK N   1      23.515  18.288   5.418  1.00  0.00     0.160 HD
HETATM    9  O   UNK N   1      22.363  21.147   2.714  0.00  0.00    -0.363 OA
HETATM   10  S   UNK N   1      24.935  20.562   3.021  0.00  0.00    -0.083 SA
ENDROOT
BRANCH   5  11
HETATM   11  C   UNK N   1      20.687  21.331   0.964  0.00  0.00     0.198 C 
BRANCH  11  12
HETATM   12  O   UNK N   1      20.687  20.277   0.047  0.00  0.00    -0.398 OA
HETATM   13  H   UNK N   1      20.512  19.370   0.340  0.00  0.00     0.209 HD
ENDBRANCH  11  12
ENDBRANCH   5  11
BRANCH   4  14
HETATM   14  O   UNK N   1      19.243  19.188   2.710  0.00  0.00    -0.390 OA
HETATM   15  H   UNK N   1      18.660  18.853   2.012  0.00  0.00     0.210 HD
ENDBRANCH   4  14
BRANCH   3  16
HETATM   16  O   UNK N   1      21.086  19.637   4.889  0.00  0.00    -0.391 OA
HETATM   17  H   UNK N   1      20.870  19.979   5.771  0.00  0.00     0.210 HD
ENDBRANCH   3  16
BRANCH   6  18
HETATM   18  C   UNK N   1      25.723  19.701   5.642  0.00  0.00     0.064 C 
BRANCH  18  19
HETATM   19  C   UNK N   1      26.313  21.102   5.760  0.00  0.00     0.002 C 
HETATM   20  C   UNK N   1      27.718  21.048   6.334  0.00  0.00     0.005 C 
ENDBRANCH  18  19
ENDBRANCH   6  18
TORSDOF 6
ENDMDL
MODEL 3
REMARK VINA RESULT:      -5.3     12.886     15.265
REMARK  6 active torsions:
REMARK  status: ('A' for Active; 'I' for Inactive)
REMARK    1  A    between atoms: C_3  and  O_12 
REMARK    2  A    between atoms: C_4  and  O_13 
REMARK    3  A    between atoms: C_5  and  C_6 
REMARK    4  A    between atoms: C_6  and  O_15 
REMARK    5  A    between atoms: C_7  and  C_8 
REMARK    6  A    between atoms: C_8  and  C_17 
ROOT
HETATM    1  C   UNK N   1      35.172  15.606   9.675  0.00  0.00     0.214 C 
HETATM    2  C   UNK N   1      34.176  14.416   9.687  0.00  0.00     0.152 C 
HETATM    3  C   UNK N   1      32.755  14.820   9.251  0.00  0.00     0.175 C 
HETATM    4  C   UNK N   1      32.926  15.879   8.164  0.00  0.00     0.180 C 
HETATM    5  C   UNK N   1      33.568  17.138   8.829  0.00  0.00     0.178 C 
HETATM    6  C   UNK N   1      35.181  14.165  11.735  0.00  0.00     0.045 C 
HETATM    7  N   UNK N   1      34.208  13.813  10.987  0.00  0.00    -0.377 N 
ATOM      8  HN  UNK N   1      33.501  13.146  11.295  1.00  0.00     0.160 HD
HETATM    9  O   UNK N   1      34.520  16.849   9.859  0.00  0.00    -0.363 OA
HETATM   10  S   UNK N   1      36.346  15.331  11.047  0.00  0.00    -0.083 SA
ENDROOT
BRANCH   5  11
HETATM   11  C   UNK N   1      34.176  18.084   7.796  0.00  0.00     0.198 C 
BRANCH  11  12
HETATM   12  O   UNK N   1      34.983  19.044   8.413  0.00  0.00    -0.398 OA
HETATM   13  H   UNK N   1      34.586  19.755   8.939  0.00  0.00     0.209 HD
ENDBRANCH  11  12
ENDBRANCH   5  11
BRANCH   4  14
HETATM   14  O   UNK N   1      31.698  16.203   7.581  0.00  0.00    -0.390 OA
HETATM   15  H   UNK N   1      31.545  17.017   7.075  0.00  0.00     0.210 HD
ENDBRANCH   4  14
BRANCH   3  16
HETATM   16  O   UNK N   1      32.029  15.358  10.323  0.00  0.00    -0.391 OA
HETATM   17  H   UNK N   1      31.601  15.509  11.180  0.00  0.00     0.210 HD
ENDBRANCH   3  16
BRANCH   6  18
HETATM   18  C   UNK N   1      35.377  13.566  13.091  0.00  0.00     0.064 C 
BRANCH  18  19
HETATM   19  C   UNK N   1      36.402  14.359  13.892  0.00  0.00     0.002 C 
HETATM   20  C   UNK N   1      36.790  13.615  15.158  0.00  0.00     0.005 C 
ENDBRANCH  18  19
ENDBRANCH   6  18
TORSDOF 6
ENDMDL
MODEL 4
REMARK VINA RESULT:      -5.3     13.228     15.817
REMARK  6 active torsions:
REMARK  status: ('A' for Active; 'I' for Inactive)
REMARK    1  A    between atoms: C_3  and  O_12 
REMARK    2  A    between atoms: C_4  and  O_13 
REMARK    3  A    between atoms: C_5  and  C_6 
REMARK    4  A    between atoms: C_6  and  O_15 
REMARK    5  A    between atoms: C_7  and  C_8 
REMARK    6  A    between atoms: C_8  and  C_17 
ROOT
HETATM    1  C   UNK N   1      34.155  14.371  10.177  0.00  0.00     0.214 C 
HETATM    2  C   UNK N   1      35.386  14.836   9.355  0.00  0.00     0.152 C 
HETATM    3  C   UNK N   1      36.685  14.857  10.182  0.00  0.00     0.175 C 
HETATM    4  C   UNK N   1      36.601  13.671  11.141  0.00  0.00     0.180 C 
HETATM    5  C   UNK N   1      35.430  13.951  12.135  0.00  0.00     0.178 C 
HETATM    6  C   UNK N   1      33.852  16.449   8.795  0.00  0.00     0.045 C 
HETATM    7  N   UNK N   1      35.082  16.107   8.765  0.00  0.00    -0.377 N 
ATOM      8  HN  UNK N   1      35.800  16.699   8.349  1.00  0.00     0.160 HD
HETATM    9  O   UNK N   1      34.308  14.631  11.560  0.00  0.00    -0.363 OA
HETATM   10  S   UNK N   1      32.712  15.297   9.545  0.00  0.00    -0.083 SA
ENDROOT
BRANCH   5  11
HETATM   11  C   UNK N   1      34.970  12.683  12.851  0.00  0.00     0.198 C 
BRANCH  11  12
HETATM   12  O   UNK N   1      34.529  12.972  14.144  0.00  0.00    -0.398 OA
HETATM   13  H   UNK N   1      35.163  13.214  14.837  0.00  0.00     0.209 HD
ENDBRANCH  11  12
ENDBRANCH   5  11
BRANCH   4  14
HETATM   14  O   UNK N   1      37.803  13.498  11.833  0.00  0.00    -0.390 OA
HETATM   15  H   UNK N   1      37.870  13.516  12.800  0.00  0.00     0.210 HD
ENDBRANCH   4  14
BRANCH   3  16
HETATM   16  O   UNK N   1      36.802  16.047  10.913  0.00  0.00    -0.391 OA
HETATM   17  H   UNK N   1      37.069  16.736  11.541  0.00  0.00     0.210 HD
ENDBRANCH   3  16
BRANCH   6  18
HETATM   18  C   UNK N   1      33.382  17.717   8.158  0.00  0.00     0.064 C 
BRANCH  18  19
HETATM   19  C   UNK N   1      32.580  17.426   6.895  0.00  0.00     0.002 C 
HETATM   20  C   UNK N   1      33.477  17.448   5.670  0.00  0.00     0.005 C 
ENDBRANCH  18  19
ENDBRANCH   6  18
TORSDOF 6
ENDMDL
MODEL 5
REMARK VINA RESULT:      -5.2     14.700     17.174
REMARK  6 active torsions:
REMARK  status: ('A' for Active; 'I' for Inactive)
REMARK    1  A    between atoms: C_3  and  O_12 
REMARK    2  A    between atoms: C_4  and  O_13 
REMARK    3  A    between atoms: C_5  and  C_6 
REMARK    4  A    between atoms: C_6  and  O_15 
REMARK    5  A    between atoms: C_7  and  C_8 
REMARK    6  A    between atoms: C_8  and  C_17 
ROOT
HETATM    1  C   UNK N   1      34.807  13.860  11.276  0.00  0.00     0.214 C 
HETATM    2  C   UNK N   1      35.744  14.739  12.146  0.00  0.00     0.152 C 
HETATM    3  C   UNK N   1      36.245  15.993  11.405  0.00  0.00     0.175 C 
HETATM    4  C   UNK N   1      35.091  16.457  10.520  0.00  0.00     0.180 C 
HETATM    5  C   UNK N   1      34.856  15.358   9.436  0.00  0.00     0.178 C 
HETATM    6  C   UNK N   1      36.644  12.658  12.501  0.00  0.00     0.045 C 
HETATM    7  N   UNK N   1      36.813  13.916  12.633  0.00  0.00    -0.377 N 
ATOM      8  HN  UNK N   1      37.652  14.311  13.056  1.00  0.00     0.160 HD
HETATM    9  O   UNK N   1      35.061  14.016   9.892  0.00  0.00    -0.363 OA
HETATM   10  S   UNK N   1      35.113  12.123  11.753  0.00  0.00    -0.083 SA
ENDROOT
BRANCH   5  11
HETATM   11  C   UNK N   1      33.487  15.490   8.773  0.00  0.00     0.198 C 
BRANCH  11  12
HETATM   12  O   UNK N   1      32.723  16.478   9.398  0.00  0.00    -0.398 OA
HETATM   13  H   UNK N   1      32.697  17.379   9.040  0.00  0.00     0.209 HD
ENDBRANCH  11  12
ENDBRANCH   5  11
BRANCH   4  14
HETATM   14  O   UNK N   1      35.380  17.686   9.920  0.00  0.00    -0.390 OA
HETATM   15  H   UNK N   1      34.705  18.261   9.528  0.00  0.00     0.210 HD
ENDBRANCH   4  14
BRANCH   3  16
HETATM   16  O   UNK N   1      37.361  15.700  10.610  0.00  0.00    -0.391 OA
HETATM   17  H   UNK N   1      37.952  15.472   9.875  0.00  0.00     0.210 HD
ENDBRANCH   3  16
BRANCH   6  18
HETATM   18  C   UNK N   1      37.647  11.680  13.024  0.00  0.00     0.064 C 
BRANCH  18  19
HETATM   19  C   UNK N   1      37.609  11.625  14.547  0.00  0.00     0.002 C 
HETATM   20  C   UNK N   1      37.182  10.248  15.026  0.00  0.00     0.005 C 
ENDBRANCH  18  19
ENDBRANCH   6  18
TORSDOF 6
ENDMDL
MODEL 6
REMARK VINA RESULT:      -5.1     13.221     16.017
REMARK  6 active torsions:
REMARK  status: ('A' for Active; 'I' for Inactive)
REMARK    1  A    between atoms: C_3  and  O_12 
REMARK    2  A    between atoms: C_4  and  O_13 
REMARK    3  A    between atoms: C_5  and  C_6 
REMARK    4  A    between atoms: C_6  and  O_15 
REMARK    5  A    between atoms: C_7  and  C_8 
REMARK    6  A    between atoms: C_8  and  C_17 
ROOT
HETATM    1  C   UNK N   1      35.685  15.005   9.195  0.00  0.00     0.214 C 
HETATM    2  C   UNK N   1      35.120  15.829  10.382  0.00  0.00     0.152 C 
HETATM    3  C   UNK N   1      35.278  15.113  11.736  0.00  0.00     0.175 C 
HETATM    4  C   UNK N   1      36.609  14.367  11.672  0.00  0.00     0.180 C 
HETATM    5  C   UNK N   1      36.472  13.252  10.587  0.00  0.00     0.178 C 
HETATM    6  C   UNK N   1      33.392  15.986   8.879  0.00  0.00     0.045 C 
HETATM    7  N   UNK N   1      33.758  16.169  10.088  0.00  0.00    -0.377 N 
ATOM      8  HN  UNK N   1      33.123  16.532  10.799  1.00  0.00     0.160 HD
HETATM    9  O   UNK N   1      35.672  13.615   9.456  0.00  0.00    -0.363 OA
HETATM   10  S   UNK N   1      34.624  15.358   7.749  0.00  0.00    -0.083 SA
ENDROOT
BRANCH   5  11
HETATM   11  C   UNK N   1      37.832  12.730  10.128  0.00  0.00     0.198 C 
BRANCH  11  12
HETATM   12  O   UNK N   1      38.870  13.373  10.808  0.00  0.00    -0.398 OA
HETATM   13  H   UNK N   1      39.787  13.274  10.511  0.00  0.00     0.209 HD
ENDBRANCH  11  12
ENDBRANCH   5  11
BRANCH   4  14
HETATM   14  O   UNK N   1      36.933  13.809  12.912  0.00  0.00    -0.390 OA
HETATM   15  H   UNK N   1      36.309  13.756  13.653  0.00  0.00     0.210 HD
ENDBRANCH   4  14
BRANCH   3  16
HETATM   16  O   UNK N   1      34.236  14.202  11.953  0.00  0.00    -0.391 OA
HETATM   17  H   UNK N   1      33.570  13.503  11.858  0.00  0.00     0.210 HD
ENDBRANCH   3  16
BRANCH   6  18
HETATM   18  C   UNK N   1      32.020  16.359   8.416  0.00  0.00     0.064 C 
BRANCH  18  19
HETATM   19  C   UNK N   1      31.859  17.874   8.358  0.00  0.00     0.002 C 
HETATM   20  C   UNK N   1      30.532  18.298   8.961  0.00  0.00     0.005 C 
ENDBRANCH  18  19
ENDBRANCH   6  18
TORSDOF 6
ENDMDL
MODEL 7
REMARK VINA RESULT:      -5.1      8.259     10.493
REMARK  6 active torsions:
REMARK  status: ('A' for Active; 'I' for Inactive)
REMARK    1  A    between atoms: C_3  and  O_12 
REMARK    2  A    between atoms: C_4  and  O_13 
REMARK    3  A    between atoms: C_5  and  C_6 
REMARK    4  A    between atoms: C_6  and  O_15 
REMARK    5  A    between atoms: C_7  and  C_8 
REMARK    6  A    between atoms: C_8  and  C_17 
ROOT
HETATM    1  C   UNK N   1      30.530  16.720   7.263  0.00  0.00     0.214 C 
HETATM    2  C   UNK N   1      30.730  16.791   8.800  0.00  0.00     0.152 C 
HETATM    3  C   UNK N   1      29.688  17.683   9.499  0.00  0.00     0.175 C 
HETATM    4  C   UNK N   1      28.378  17.485   8.740  0.00  0.00     0.180 C 
HETATM    5  C   UNK N   1      28.573  18.063   7.303  0.00  0.00     0.178 C 
HETATM    6  C   UNK N   1      32.873  17.158   8.063  0.00  0.00     0.045 C 
HETATM    7  N   UNK N   1      32.079  17.202   9.062  0.00  0.00    -0.377 N 
ATOM      8  HN  UNK N   1      32.384  17.510   9.985  1.00  0.00     0.160 HD
HETATM    9  O   UNK N   1      29.883  17.872   6.756  0.00  0.00    -0.363 OA
HETATM   10  S   UNK N   1      32.192  16.582   6.516  0.00  0.00    -0.083 SA
ENDROOT
BRANCH   5  11
HETATM   11  C   UNK N   1      27.513  17.550   6.330  0.00  0.00     0.198 C 
BRANCH  11  12
HETATM   12  O   UNK N   1      26.693  16.598   6.941  0.00  0.00    -0.398 OA
HETATM   13  H   UNK N   1      26.602  16.575   7.906  0.00  0.00     0.209 HD
ENDBRANCH  11  12
ENDBRANCH   5  11
BRANCH   4  14
HETATM   14  O   UNK N   1      27.319  18.127   9.389  0.00  0.00    -0.390 OA
HETATM   15  H   UNK N   1      26.426  17.752   9.453  0.00  0.00     0.210 HD
ENDBRANCH   4  14
BRANCH   3  16
HETATM   16  O   UNK N   1      30.061  19.033   9.451  0.00  0.00    -0.391 OA
HETATM   17  H   UNK N   1      30.477  19.894   9.610  0.00  0.00     0.210 HD
ENDBRANCH   3  16
BRANCH   6  18
HETATM   18  C   UNK N   1      34.322  17.495   8.206  0.00  0.00     0.064 C 
BRANCH  18  19
HETATM   19  C   UNK N   1      34.869  16.991   9.537  0.00  0.00     0.002 C 
HETATM   20  C   UNK N   1      35.313  15.543   9.423  0.00  0.00     0.005 C 
ENDBRANCH  18  19
ENDBRANCH   6  18
TORSDOF 6
ENDMDL
MODEL 8
REMARK VINA RESULT:      -5.1      2.765      4.654
REMARK  6 active torsions:
REMARK  status: ('A' for Active; 'I' for Inactive)
REMARK    1  A    between atoms: C_3  and  O_12 
REMARK    2  A    between atoms: C_4  and  O_13 
REMARK    3  A    between atoms: C_5  and  C_6 
REMARK    4  A    between atoms: C_6  and  O_15 
REMARK    5  A    between atoms: C_7  and  C_8 
REMARK    6  A    between atoms: C_8  and  C_17 
ROOT
HETATM    1  C   UNK N   1      22.035  18.048   3.619  0.00  0.00     0.214 C 
HETATM    2  C   UNK N   1      21.598  16.587   3.333  0.00  0.00     0.152 C 
HETATM    3  C   UNK N   1      20.349  16.500   2.436  0.00  0.00     0.175 C 
HETATM    4  C   UNK N   1      20.459  17.650   1.438  0.00  0.00     0.180 C 
HETATM    5  C   UNK N   1      20.345  18.985   2.241  0.00  0.00     0.178 C 
HETATM    6  C   UNK N   1      21.910  16.512   5.605  0.00  0.00     0.045 C 
HETATM    7  N   UNK N   1      21.430  15.911   4.587  0.00  0.00    -0.377 N 
ATOM      8  HN  UNK N   1      20.958  15.011   4.660  1.00  0.00     0.160 HD
HETATM    9  O   UNK N   1      20.952  18.955   3.538  0.00  0.00    -0.363 OA
HETATM   10  S   UNK N   1      22.721  18.076   5.312  0.00  0.00    -0.083 SA
ENDROOT
BRANCH   5  11
HETATM   11  C   UNK N   1      20.861  20.180   1.443  0.00  0.00     0.198 C 
BRANCH  11  12
HETATM   12  O   UNK N   1      20.620  20.010   0.077  0.00  0.00    -0.398 OA
HETATM   13  H   UNK N   1      20.423  20.775  -0.486  0.00  0.00     0.209 HD
ENDBRANCH  11  12
ENDBRANCH   5  11
BRANCH   4  14
HETATM   14  O   UNK N   1      19.455  17.572   0.468  0.00  0.00    -0.390 OA
HETATM   15  H   UNK N   1      18.516  17.458   0.680  0.00  0.00     0.210 HD
ENDBRANCH   4  14
BRANCH   3  16
HETATM   16  O   UNK N   1      19.174  16.639   3.187  0.00  0.00    -0.391 OA
HETATM   17  H   UNK N   1      18.432  16.502   3.797  0.00  0.00     0.210 HD
ENDBRANCH   3  16
BRANCH   6  18
HETATM   18  C   UNK N   1      21.866  15.894   6.966  0.00  0.00     0.064 C 
BRANCH  18  19
HETATM   19  C   UNK N   1      20.434  15.821   7.483  0.00  0.00     0.002 C 
HETATM   20  C   UNK N   1      20.156  16.949   8.461  0.00  0.00     0.005 C 
ENDBRANCH  18  19
ENDBRANCH   6  18
TORSDOF 6
ENDMDL
MODEL 9
REMARK VINA RESULT:      -5.0     11.162     12.354
REMARK  6 active torsions:
REMARK  status: ('A' for Active; 'I' for Inactive)
REMARK    1  A    between atoms: C_3  and  O_12 
REMARK    2  A    between atoms: C_4  and  O_13 
REMARK    3  A    between atoms: C_5  and  C_6 
REMARK    4  A    between atoms: C_6  and  O_15 
REMARK    5  A    between atoms: C_7  and  C_8 
REMARK    6  A    between atoms: C_8  and  C_17 
ROOT
HETATM    1  C   UNK N   1      29.941  22.788  -4.959  0.00  0.00     0.214 C 
HETATM    2  C   UNK N   1      30.263  23.780  -3.810  0.00  0.00     0.152 C 
HETATM    3  C   UNK N   1      30.891  23.092  -2.584  0.00  0.00     0.175 C 
HETATM    4  C   UNK N   1      31.783  21.979  -3.128  0.00  0.00     0.180 C 
HETATM    5  C   UNK N   1      30.857  20.923  -3.811  0.00  0.00     0.178 C 
HETATM    6  C   UNK N   1      28.117  24.402  -4.336  0.00  0.00     0.045 C 
HETATM    7  N   UNK N   1      29.067  24.504  -3.490  0.00  0.00    -0.377 N 
ATOM      8  HN  UNK N   1      28.982  25.063  -2.641  1.00  0.00     0.160 HD
HETATM    9  O   UNK N   1      29.718  21.474  -4.483  0.00  0.00    -0.363 OA
HETATM   10  S   UNK N   1      28.427  23.398  -5.780  0.00  0.00    -0.083 SA
ENDROOT
BRANCH   5  11
HETATM   11  C   UNK N   1      31.632  20.002  -4.751  0.00  0.00     0.198 C 
BRANCH  11  12
HETATM   12  O   UNK N   1      32.440  19.119  -4.030  0.00  0.00    -0.398 OA
HETATM   13  H   UNK N   1      32.093  18.661  -3.249  0.00  0.00     0.209 HD
ENDBRANCH  11  12
ENDBRANCH   5  11
BRANCH   4  14
HETATM   14  O   UNK N   1      32.532  21.389  -2.106  0.00  0.00    -0.390 OA
HETATM   15  H   UNK N   1      32.189  21.240  -1.211  0.00  0.00     0.210 HD
ENDBRANCH   4  14
BRANCH   3  16
HETATM   16  O   UNK N   1      29.908  22.543  -1.750  0.00  0.00    -0.391 OA
HETATM   17  H   UNK N   1      29.143  22.062  -1.398  0.00  0.00     0.210 HD
ENDBRANCH   3  16
BRANCH   6  18
HETATM   18  C   UNK N   1      26.838  25.156  -4.164  0.00  0.00     0.064 C 
BRANCH  18  19
HETATM   19  C   UNK N   1      25.910  24.932  -5.352  0.00  0.00     0.002 C 
HETATM   20  C   UNK N   1      25.169  26.209  -5.705  0.00  0.00     0.005 C 
ENDBRANCH  18  19
ENDBRANCH   6  18
TORSDOF 6
ENDMDL
