REMARK  6 active torsions:
REMARK  status: ('A' for Active; 'I' for Inactive)
REMARK    1  A    between atoms: C_3  and  O_12 
REMARK    2  A    between atoms: C_4  and  O_13 
REMARK    3  A    between atoms: C_5  and  C_6 
REMARK    4  A    between atoms: C_6  and  O_15 
REMARK    5  A    between atoms: C_7  and  C_8 
REMARK    6  A    between atoms: C_8  and  C_17 
ROOT
HETATM    1  C   UNK N   1       0.636  -1.767  -0.436  0.00  0.00     0.214 C 
HETATM    2  C   UNK N   1       0.307  -0.268  -0.663  0.00  0.00     0.152 C 
HETATM    3  C   UNK N   1       1.316   0.676   0.017  0.00  0.00     0.175 C 
HETATM    4  C   UNK N   1       2.679  -0.004  -0.093  0.00  0.00     0.180 C 
HETATM    5  C   UNK N   1       2.628  -1.305   0.769  0.00  0.00     0.178 C 
HETATM    6  C   UNK N   1      -1.750  -1.078  -0.046  0.00  0.00     0.045 C 
HETATM    7  N   UNK N   1      -1.044  -0.033  -0.243  0.00  0.00    -0.377 N 
ATOM      8  HN  UNK N   1      -1.416   0.907  -0.110  1.00  0.00     0.160 HD
HETATM    9  O   UNK N   1       1.364  -1.979   0.759  0.00  0.00    -0.363 OA
HETATM   10  S   UNK N   1      -0.959  -2.653  -0.336  0.00  0.00    -0.083 SA
ENDROOT
BRANCH   5  11
HETATM   11  C   UNK N   1       3.749  -2.277   0.407  0.00  0.00     0.198 C 
BRANCH  11  12
HETATM   12  O   UNK N   1       5.001  -1.680   0.575  0.00  0.00    -0.398 OA
HETATM   13  H   UNK N   1       5.794  -2.226   0.692  0.00  0.00     0.209 HD
ENDBRANCH  11  12
ENDBRANCH   5  11
BRANCH   4  14
HETATM   14  O   UNK N   1       3.700   0.841   0.351  0.00  0.00    -0.390 OA
HETATM   15  H   UNK N   1       4.562   0.521   0.659  0.00  0.00     0.210 HD
ENDBRANCH   4  14
BRANCH   3  16
HETATM   16  O   UNK N   1       0.996   0.874   1.367  0.00  0.00    -0.391 OA
HETATM   17  H   UNK N   1       1.003   1.135   2.301  0.00  0.00     0.210 HD
ENDBRANCH   3  16
BRANCH   6  18
HETATM   18  C   UNK N   1      -3.194  -0.982   0.330  0.00  0.00     0.064 C 
BRANCH  18  19
HETATM   19  C   UNK N   1      -3.999  -0.305  -0.773  0.00  0.00     0.002 C 
HETATM   20  C   UNK N   1      -3.842   1.204  -0.706  0.00  0.00     0.005 C 
ENDBRANCH  18  19
ENDBRANCH   6  18
TORSDOF 6
