MODEL 1
REMARK VINA RESULT:      -5.8      0.000      0.000
REMARK  4 active torsions:
REMARK  status: ('A' for Active; 'I' for Inactive)
REMARK    1  A    between atoms: C_1  and  N_2 
REMARK       I    between atoms: N_2  and  C_3 
REMARK       I    between atoms: C_3  and  N_4 
REMARK    2  A    between atoms: N_4  and  C_5 
REMARK    3  A    between atoms: C_5  and  C_6 
REMARK    4  A    between atoms: C_6  and  O_7 
ROOT
HETATM    1  N   UNK N   1      35.994  13.408  15.217  0.00  0.00    -0.339 N 
HETATM    2  C   UNK N   1      36.772  14.482  14.909  0.00  0.00     0.316 C 
HETATM    3  N   UNK N   1      36.724  15.038  13.676  0.00  0.00    -0.333 N 
HETATM    4  O   UNK N   1      37.542  14.945  15.738  0.00  0.00    -0.247 OA
HETATM    5  H   UNK N   1      35.338  13.098  14.552  0.00  0.00     0.164 HD
HETATM    6  H   UNK N   1      37.276  15.831  13.493  0.00  0.00     0.164 HD
ENDROOT
BRANCH   1   7
HETATM    7  C   UNK N   1      36.086  12.703  16.479  0.00  0.00     0.086 C 
HETATM    8  C   UNK N   1      35.978  11.199  16.241  0.00  0.00     0.025 C 
HETATM    9  C   UNK N   1      36.156  10.448  17.559  0.00  0.00     0.002 C 
HETATM   10  C   UNK N   1      35.127  10.911  18.589  0.00  0.00     0.000 C 
HETATM   11  C   UNK N   1      35.215  12.421  18.796  0.00  0.00     0.002 C 
HETATM   12  C   UNK N   1      35.003  13.140  17.467  0.00  0.00     0.025 C 
ENDBRANCH   1   7
BRANCH   3  13
HETATM   13  C   UNK N   1      35.896  14.510  12.617  0.00  0.00     0.234 C 
BRANCH  13  14
HETATM   14  C   UNK N   1      35.813  15.484  11.481  0.00  0.00     0.158 C 
HETATM   15  O   UNK N   1      34.728  15.743  10.990  0.00  0.00    -0.649 OA
BRANCH  14  16
HETATM   16  O   UNK N   1      36.924  16.067  10.990  0.00  0.00    -0.775 OA
HETATM   17  H   UNK N   1      37.320  15.751  10.201  0.00  0.00     0.167 HD
ENDBRANCH  14  16
ENDBRANCH  13  14
ENDBRANCH   3  13
TORSDOF 4
ENDMDL
MODEL 2
REMARK VINA RESULT:      -5.7      5.696      9.958
REMARK  4 active torsions:
REMARK  status: ('A' for Active; 'I' for Inactive)
REMARK    1  A    between atoms: C_1  and  N_2 
REMARK       I    between atoms: N_2  and  C_3 
REMARK       I    between atoms: C_3  and  N_4 
REMARK    2  A    between atoms: N_4  and  C_5 
REMARK    3  A    between atoms: C_5  and  C_6 
REMARK    4  A    between atoms: C_6  and  O_7 
ROOT
HETATM    1  N   UNK N   1      33.635  17.082   7.999  0.00  0.00    -0.339 N 
HETATM    2  C   UNK N   1      34.514  17.897   8.646  0.00  0.00     0.316 C 
HETATM    3  N   UNK N   1      35.088  17.508   9.808  0.00  0.00    -0.333 N 
HETATM    4  O   UNK N   1      34.780  19.001   8.195  0.00  0.00    -0.247 OA
HETATM    5  H   UNK N   1      33.491  16.174   8.352  0.00  0.00     0.164 HD
HETATM    6  H   UNK N   1      35.742  18.106  10.236  0.00  0.00     0.164 HD
ENDROOT
BRANCH   1   7
HETATM    7  C   UNK N   1      32.906  17.490   6.817  0.00  0.00     0.086 C 
HETATM    8  C   UNK N   1      31.517  16.854   6.820  0.00  0.00     0.025 C 
HETATM    9  C   UNK N   1      30.715  17.346   5.616  0.00  0.00     0.002 C 
HETATM   10  C   UNK N   1      31.451  17.038   4.313  0.00  0.00     0.000 C 
HETATM   11  C   UNK N   1      32.853  17.644   4.331  0.00  0.00     0.002 C 
HETATM   12  C   UNK N   1      33.635  17.109   5.527  0.00  0.00     0.025 C 
ENDBRANCH   1   7
BRANCH   3  13
HETATM   13  C   UNK N   1      34.777  16.251  10.447  0.00  0.00     0.234 C 
BRANCH  13  14
HETATM   14  C   UNK N   1      35.960  15.746  11.215  0.00  0.00     0.158 C 
HETATM   15  O   UNK N   1      35.785  15.150  12.265  0.00  0.00    -0.649 OA
BRANCH  14  16
HETATM   16  O   UNK N   1      37.214  15.952  10.767  0.00  0.00    -0.775 OA
HETATM   17  H   UNK N   1      37.952  15.788  11.321  0.00  0.00     0.167 HD
ENDBRANCH  14  16
ENDBRANCH  13  14
ENDBRANCH   3  13
TORSDOF 4
ENDMDL
MODEL 3
REMARK VINA RESULT:      -5.4      5.650      9.409
REMARK  4 active torsions:
REMARK  status: ('A' for Active; 'I' for Inactive)
REMARK    1  A    between atoms: C_1  and  N_2 
REMARK       I    between atoms: N_2  and  C_3 
REMARK       I    between atoms: C_3  and  N_4 
REMARK    2  A    between atoms: N_4  and  C_5 
REMARK    3  A    between atoms: C_5  and  C_6 
REMARK    4  A    between atoms: C_6  and  O_7 
ROOT
HETATM    1  N   UNK N   1      32.705  17.113   8.906  0.00  0.00    -0.339 N 
HETATM    2  C   UNK N   1      33.972  17.600   8.799  0.00  0.00     0.316 C 
HETATM    3  N   UNK N   1      34.956  17.147   9.611  0.00  0.00    -0.333 N 
HETATM    4  O   UNK N   1      34.233  18.470   7.982  0.00  0.00    -0.247 OA
HETATM    5  H   UNK N   1      32.539  16.368   9.528  0.00  0.00     0.164 HD
HETATM    6  H   UNK N   1      35.867  17.496   9.489  0.00  0.00     0.164 HD
ENDROOT
BRANCH   1   7
HETATM    7  C   UNK N   1      31.591  17.640   8.145  0.00  0.00     0.086 C 
HETATM    8  C   UNK N   1      30.455  18.026   9.090  0.00  0.00     0.025 C 
HETATM    9  C   UNK N   1      29.310  18.657   8.299  0.00  0.00     0.002 C 
HETATM   10  C   UNK N   1      28.814  17.705   7.212  0.00  0.00     0.000 C 
HETATM   11  C   UNK N   1      29.961  17.293   6.293  0.00  0.00     0.002 C 
HETATM   12  C   UNK N   1      31.072  16.640   7.110  0.00  0.00     0.025 C 
ENDBRANCH   1   7
BRANCH   3  13
HETATM   13  C   UNK N   1      34.719  16.172  10.649  0.00  0.00     0.234 C 
BRANCH  13  14
HETATM   14  C   UNK N   1      36.003  15.810  11.331  0.00  0.00     0.158 C 
HETATM   15  O   UNK N   1      35.974  15.300  12.439  0.00  0.00    -0.649 OA
BRANCH  14  16
HETATM   16  O   UNK N   1      37.191  16.052  10.740  0.00  0.00    -0.775 OA
HETATM   17  H   UNK N   1      37.765  16.712  11.076  0.00  0.00     0.167 HD
ENDBRANCH  14  16
ENDBRANCH  13  14
ENDBRANCH   3  13
TORSDOF 4
ENDMDL
MODEL 4
REMARK VINA RESULT:      -5.3      6.359     10.125
REMARK  4 active torsions:
REMARK  status: ('A' for Active; 'I' for Inactive)
REMARK    1  A    between atoms: C_1  and  N_2 
REMARK       I    between atoms: N_2  and  C_3 
REMARK       I    between atoms: C_3  and  N_4 
REMARK    2  A    between atoms: N_4  and  C_5 
REMARK    3  A    between atoms: C_5  and  C_6 
REMARK    4  A    between atoms: C_6  and  O_7 
ROOT
HETATM    1  N   UNK N   1      33.575  15.998   7.454  0.00  0.00    -0.339 N 
HETATM    2  C   UNK N   1      32.890  16.211   8.612  0.00  0.00     0.316 C 
HETATM    3  N   UNK N   1      33.459  15.937   9.809  0.00  0.00    -0.333 N 
HETATM    4  O   UNK N   1      31.744  16.633   8.584  0.00  0.00    -0.247 OA
HETATM    5  H   UNK N   1      34.518  15.720   7.511  0.00  0.00     0.164 HD
HETATM    6  H   UNK N   1      32.951  16.130  10.629  0.00  0.00     0.164 HD
ENDROOT
BRANCH   1   7
HETATM    7  C   UNK N   1      32.979  16.164   6.145  0.00  0.00     0.086 C 
HETATM    8  C   UNK N   1      33.351  14.982   5.253  0.00  0.00     0.025 C 
HETATM    9  C   UNK N   1      32.659  15.112   3.898  0.00  0.00     0.002 C 
HETATM   10  C   UNK N   1      33.027  16.435   3.227  0.00  0.00     0.000 C 
HETATM   11  C   UNK N   1      32.687  17.612   4.138  0.00  0.00     0.002 C 
HETATM   12  C   UNK N   1      33.418  17.465   5.470  0.00  0.00     0.025 C 
ENDBRANCH   1   7
BRANCH   3  13
HETATM   13  C   UNK N   1      34.782  15.371   9.931  0.00  0.00     0.234 C 
BRANCH  13  14
HETATM   14  C   UNK N   1      35.746  16.396  10.445  0.00  0.00     0.158 C 
HETATM   15  O   UNK N   1      35.475  17.581  10.344  0.00  0.00    -0.649 OA
BRANCH  14  16
HETATM   16  O   UNK N   1      36.913  16.025  11.008  0.00  0.00    -0.775 OA
HETATM   17  H   UNK N   1      37.730  16.282  10.626  0.00  0.00     0.167 HD
ENDBRANCH  14  16
ENDBRANCH  13  14
ENDBRANCH   3  13
TORSDOF 4
ENDMDL
MODEL 5
REMARK VINA RESULT:      -5.3      4.400      8.322
REMARK  4 active torsions:
REMARK  status: ('A' for Active; 'I' for Inactive)
REMARK    1  A    between atoms: C_1  and  N_2 
REMARK       I    between atoms: N_2  and  C_3 
REMARK       I    between atoms: C_3  and  N_4 
REMARK    2  A    between atoms: N_4  and  C_5 
REMARK    3  A    between atoms: C_5  and  C_6 
REMARK    4  A    between atoms: C_6  and  O_7 
ROOT
HETATM    1  N   UNK N   1      34.745  15.907   9.487  0.00  0.00    -0.339 N 
HETATM    2  C   UNK N   1      35.618  16.552  10.310  0.00  0.00     0.316 C 
HETATM    3  N   UNK N   1      36.413  15.855  11.155  0.00  0.00    -0.333 N 
HETATM    4  O   UNK N   1      35.679  17.772  10.311  0.00  0.00    -0.247 OA
HETATM    5  H   UNK N   1      34.764  14.923   9.462  0.00  0.00     0.164 HD
HETATM    6  H   UNK N   1      37.055  16.347  11.715  0.00  0.00     0.164 HD
ENDROOT
BRANCH   1   7
HETATM    7  C   UNK N   1      33.792  16.602   8.648  0.00  0.00     0.086 C 
HETATM    8  C   UNK N   1      32.450  15.875   8.675  0.00  0.00     0.025 C 
HETATM    9  C   UNK N   1      31.419  16.650   7.856  0.00  0.00     0.002 C 
HETATM   10  C   UNK N   1      31.904  16.843   6.420  0.00  0.00     0.000 C 
HETATM   11  C   UNK N   1      33.264  17.537   6.400  0.00  0.00     0.002 C 
HETATM   12  C   UNK N   1      34.275  16.722   7.201  0.00  0.00     0.025 C 
ENDBRANCH   1   7
BRANCH   3  13
HETATM   13  C   UNK N   1      36.355  14.416  11.268  0.00  0.00     0.234 C 
BRANCH  13  14
HETATM   14  C   UNK N   1      35.298  14.010  12.250  0.00  0.00     0.158 C 
HETATM   15  O   UNK N   1      35.618  13.712  13.389  0.00  0.00    -0.649 OA
BRANCH  14  16
HETATM   16  O   UNK N   1      34.001  13.958  11.887  0.00  0.00    -0.775 OA
HETATM   17  H   UNK N   1      33.351  13.641  12.482  0.00  0.00     0.167 HD
ENDBRANCH  14  16
ENDBRANCH  13  14
ENDBRANCH   3  13
TORSDOF 4
ENDMDL
MODEL 6
REMARK VINA RESULT:      -5.2     20.222     23.047
REMARK  4 active torsions:
REMARK  status: ('A' for Active; 'I' for Inactive)
REMARK    1  A    between atoms: C_1  and  N_2 
REMARK       I    between atoms: N_2  and  C_3 
REMARK       I    between atoms: C_3  and  N_4 
REMARK    2  A    between atoms: N_4  and  C_5 
REMARK    3  A    between atoms: C_5  and  C_6 
REMARK    4  A    between atoms: C_6  and  O_7 
ROOT
HETATM    1  N   UNK N   1      28.641  24.028  -3.476  0.00  0.00    -0.339 N 
HETATM    2  C   UNK N   1      28.804  23.310  -2.332  0.00  0.00     0.316 C 
HETATM    3  N   UNK N   1      30.005  22.766  -2.024  0.00  0.00    -0.333 N 
HETATM    4  O   UNK N   1      27.861  23.129  -1.576  0.00  0.00    -0.247 OA
HETATM    5  H   UNK N   1      29.432  24.212  -4.032  0.00  0.00     0.164 HD
HETATM    6  H   UNK N   1      30.099  22.278  -1.175  0.00  0.00     0.164 HD
ENDROOT
BRANCH   1   7
HETATM    7  C   UNK N   1      27.356  24.535  -3.913  0.00  0.00     0.086 C 
HETATM    8  C   UNK N   1      27.008  23.955  -5.282  0.00  0.00     0.025 C 
HETATM    9  C   UNK N   1      25.618  24.423  -5.709  0.00  0.00     0.002 C 
HETATM   10  C   UNK N   1      25.544  25.949  -5.730  0.00  0.00     0.000 C 
HETATM   11  C   UNK N   1      25.929  26.525  -4.370  0.00  0.00     0.002 C 
HETATM   12  C   UNK N   1      27.332  26.063  -3.989  0.00  0.00     0.025 C 
ENDBRANCH   1   7
BRANCH   3  13
HETATM   13  C   UNK N   1      31.152  22.871  -2.894  0.00  0.00     0.234 C 
BRANCH  13  14
HETATM   14  C   UNK N   1      31.862  21.555  -2.988  0.00  0.00     0.158 C 
HETATM   15  O   UNK N   1      31.611  20.801  -3.914  0.00  0.00    -0.649 OA
BRANCH  14  16
HETATM   16  O   UNK N   1      32.765  21.190  -2.057  0.00  0.00    -0.775 OA
HETATM   17  H   UNK N   1      33.049  21.798  -1.403  0.00  0.00     0.167 HD
ENDBRANCH  14  16
ENDBRANCH  13  14
ENDBRANCH   3  13
TORSDOF 4
ENDMDL
MODEL 7
REMARK VINA RESULT:      -5.1     15.862     18.200
REMARK  4 active torsions:
REMARK  status: ('A' for Active; 'I' for Inactive)
REMARK    1  A    between atoms: C_1  and  N_2 
REMARK       I    between atoms: N_2  and  C_3 
REMARK       I    between atoms: C_3  and  N_4 
REMARK    2  A    between atoms: N_4  and  C_5 
REMARK    3  A    between atoms: C_5  and  C_6 
REMARK    4  A    between atoms: C_6  and  O_7 
ROOT
HETATM    1  N   UNK N   1      23.970  19.644   3.654  0.00  0.00    -0.339 N 
HETATM    2  C   UNK N   1      22.783  19.037   3.929  0.00  0.00     0.316 C 
HETATM    3  N   UNK N   1      21.643  19.444   3.324  0.00  0.00    -0.333 N 
HETATM    4  O   UNK N   1      22.728  18.128   4.744  0.00  0.00    -0.247 OA
HETATM    5  H   UNK N   1      23.994  20.328   2.946  0.00  0.00     0.164 HD
HETATM    6  H   UNK N   1      20.807  18.965   3.520  0.00  0.00     0.164 HD
ENDROOT
BRANCH   1   7
HETATM    7  C   UNK N   1      25.198  19.328   4.353  0.00  0.00     0.086 C 
HETATM    8  C   UNK N   1      25.969  20.612   4.651  0.00  0.00     0.025 C 
HETATM    9  C   UNK N   1      27.225  20.291   5.460  0.00  0.00     0.002 C 
HETATM   10  C   UNK N   1      28.106  19.288   4.716  0.00  0.00     0.000 C 
HETATM   11  C   UNK N   1      27.319  18.021   4.388  0.00  0.00     0.002 C 
HETATM   12  C   UNK N   1      26.090  18.375   3.556  0.00  0.00     0.025 C 
ENDBRANCH   1   7
BRANCH   3  13
HETATM   13  C   UNK N   1      21.607  20.555   2.402  0.00  0.00     0.234 C 
BRANCH  13  14
HETATM   14  C   UNK N   1      20.982  20.140   1.105  0.00  0.00     0.158 C 
HETATM   15  O   UNK N   1      21.139  20.832   0.113  0.00  0.00    -0.649 OA
BRANCH  14  16
HETATM   16  O   UNK N   1      20.239  19.018   1.024  0.00  0.00    -0.775 OA
HETATM   17  H   UNK N   1      19.314  19.046   1.174  0.00  0.00     0.167 HD
ENDBRANCH  14  16
ENDBRANCH  13  14
ENDBRANCH   3  13
TORSDOF 4
ENDMDL
MODEL 8
REMARK VINA RESULT:      -5.1     20.862     24.181
REMARK  4 active torsions:
REMARK  status: ('A' for Active; 'I' for Inactive)
REMARK    1  A    between atoms: C_1  and  N_2 
REMARK       I    between atoms: N_2  and  C_3 
REMARK       I    between atoms: C_3  and  N_4 
REMARK    2  A    between atoms: N_4  and  C_5 
REMARK    3  A    between atoms: C_5  and  C_6 
REMARK    4  A    between atoms: C_6  and  O_7 
ROOT
HETATM    1  N   UNK N   1      28.527  25.514  -4.155  0.00  0.00    -0.339 N 
HETATM    2  C   UNK N   1      28.324  24.200  -4.447  0.00  0.00     0.316 C 
HETATM    3  N   UNK N   1      29.285  23.281  -4.193  0.00  0.00    -0.333 N 
HETATM    4  O   UNK N   1      27.278  23.836  -4.963  0.00  0.00    -0.247 OA
HETATM    5  H   UNK N   1      29.352  25.768  -3.681  0.00  0.00     0.164 HD
HETATM    6  H   UNK N   1      29.097  22.335  -4.386  0.00  0.00     0.164 HD
ENDROOT
BRANCH   1   7
HETATM    7  C   UNK N   1      27.584  26.555  -4.508  0.00  0.00     0.086 C 
HETATM    8  C   UNK N   1      28.336  27.833  -4.872  0.00  0.00     0.025 C 
HETATM    9  C   UNK N   1      27.349  28.908  -5.324  0.00  0.00     0.002 C 
HETATM   10  C   UNK N   1      26.309  29.180  -4.237  0.00  0.00     0.000 C 
HETATM   11  C   UNK N   1      25.587  27.891  -3.851  0.00  0.00     0.002 C 
HETATM   12  C   UNK N   1      26.598  26.851  -3.377  0.00  0.00     0.025 C 
ENDBRANCH   1   7
BRANCH   3  13
HETATM   13  C   UNK N   1      30.575  23.635  -3.650  0.00  0.00     0.234 C 
BRANCH  13  14
HETATM   14  C   UNK N   1      30.847  22.860  -2.396  0.00  0.00     0.158 C 
HETATM   15  O   UNK N   1      30.174  23.070  -1.401  0.00  0.00    -0.649 OA
BRANCH  14  16
HETATM   16  O   UNK N   1      31.834  21.943  -2.352  0.00  0.00    -0.775 OA
HETATM   17  H   UNK N   1      32.377  21.789  -3.101  0.00  0.00     0.167 HD
ENDBRANCH  14  16
ENDBRANCH  13  14
ENDBRANCH   3  13
TORSDOF 4
ENDMDL
MODEL 9
REMARK VINA RESULT:      -5.1      2.192      2.434
REMARK  4 active torsions:
REMARK  status: ('A' for Active; 'I' for Inactive)
REMARK    1  A    between atoms: C_1  and  N_2 
REMARK       I    between atoms: N_2  and  C_3 
REMARK       I    between atoms: C_3  and  N_4 
REMARK    2  A    between atoms: N_4  and  C_5 
REMARK    3  A    between atoms: C_5  and  C_6 
REMARK    4  A    between atoms: C_6  and  O_7 
ROOT
HETATM    1  N   UNK N   1      35.617  13.236  13.315  0.00  0.00    -0.339 N 
HETATM    2  C   UNK N   1      36.272  14.420  13.461  0.00  0.00     0.316 C 
HETATM    3  N   UNK N   1      36.462  15.239  12.399  0.00  0.00    -0.333 N 
HETATM    4  O   UNK N   1      36.717  14.751  14.550  0.00  0.00    -0.247 OA
HETATM    5  H   UNK N   1      35.214  13.027  12.442  0.00  0.00     0.164 HD
HETATM    6  H   UNK N   1      36.912  16.102  12.542  0.00  0.00     0.164 HD
ENDROOT
BRANCH   1   7
HETATM    7  C   UNK N   1      35.485  12.271  14.387  0.00  0.00     0.086 C 
HETATM    8  C   UNK N   1      36.729  11.387  14.444  0.00  0.00     0.025 C 
HETATM    9  C   UNK N   1      36.629  10.422  15.624  0.00  0.00     0.002 C 
HETATM   10  C   UNK N   1      35.363   9.572  15.523  0.00  0.00     0.000 C 
HETATM   11  C   UNK N   1      34.125  10.461  15.428  0.00  0.00     0.002 C 
HETATM   12  C   UNK N   1      34.245  11.391  14.224  0.00  0.00     0.025 C 
ENDBRANCH   1   7
BRANCH   3  13
HETATM   13  C   UNK N   1      36.031  14.893  11.065  0.00  0.00     0.234 C 
BRANCH  13  14
HETATM   14  C   UNK N   1      34.673  15.463  10.788  0.00  0.00     0.158 C 
HETATM   15  O   UNK N   1      34.570  16.468  10.105  0.00  0.00    -0.649 OA
BRANCH  14  16
HETATM   16  O   UNK N   1      33.566  14.885  11.295  0.00  0.00    -0.775 OA
HETATM   17  H   UNK N   1      33.117  15.269  12.022  0.00  0.00     0.167 HD
ENDBRANCH  14  16
ENDBRANCH  13  14
ENDBRANCH   3  13
TORSDOF 4
ENDMDL
