REMARK  6 active torsions:
REMARK  status: ('A' for Active; 'I' for Inactive)
REMARK    1  A    between atoms: C_1  and  N_2 
REMARK       I    between atoms: N_2  and  C_3 
REMARK       I    between atoms: C_3  and  N_4 
REMARK    2  A    between atoms: N_4  and  C_5 
REMARK    3  A    between atoms: C_5  and  C_6 
REMARK    4  A    between atoms: C_6  and  C_7 
REMARK    5  A    between atoms: C_7  and  C_8 
REMARK    6  A    between atoms: C_8  and  O_9 
ROOT
HETATM    1  N   UNK N   1      -1.467  -1.096  -0.000  0.00  0.00    -0.339 N 
HETATM    2  C   UNK N   1      -0.196  -0.613   0.000  0.00  0.00     0.316 C 
HETATM    3  N   UNK N   1       0.837  -1.496   0.000  0.00  0.00    -0.343 N 
HETATM    4  O   UNK N   1       0.011   0.592  -0.000  0.00  0.00    -0.247 OA
HETATM    5  H   UNK N   1      -1.573  -2.074   0.000  0.00  0.00     0.164 HD
HETATM    6  H   UNK N   1       0.593  -2.449   0.000  0.00  0.00     0.164 HD
ENDROOT
BRANCH   1   7
HETATM    7  C   UNK N   1      -2.684  -0.301  -0.000  0.00  0.00     0.086 A 
HETATM    8  C   UNK N   1      -3.972  -1.098   0.000  0.00  0.00     0.025 A 
HETATM    9  C   UNK N   1      -5.273  -0.306  -0.000  0.00  0.00     0.002 A 
HETATM   10  C   UNK N   1      -5.243   1.222   0.000  0.00  0.00     0.000 A 
HETATM   11  C   UNK N   1      -3.918   1.983  -0.000  0.00  0.00     0.002 A 
HETATM   12  C   UNK N   1      -2.604   1.217   0.000  0.00  0.00     0.025 A 
ENDBRANCH   1   7
BRANCH   3  13
HETATM   13  C   UNK N   1       2.262  -1.198   0.000  0.00  0.00     0.125 C 
BRANCH  13  14
HETATM   14  C   UNK N   1       2.644   0.282  -0.000  0.00  0.00     0.030 C 
BRANCH  14  15
HETATM   15  C   UNK N   1       4.148   0.614   0.000  0.00  0.00     0.111 C 
BRANCH  15  16
HETATM   16  C   UNK N   1       5.182  -0.489  -0.000  0.00  0.00     0.139 C 
HETATM   17  O   UNK N   1       4.868  -1.668  -0.000  0.00  0.00    -0.650 OA
BRANCH  16  18
HETATM   18  O   UNK N   1       6.485  -0.158   0.000  0.00  0.00    -0.776 OA
HETATM   19  H   UNK N   1       7.139  -0.829   0.000  0.00  0.00     0.167 HD
ENDBRANCH  16  18
ENDBRANCH  15  16
ENDBRANCH  14  15
ENDBRANCH  13  14
ENDBRANCH   3  13
TORSDOF 6
