MODEL 1
REMARK VINA RESULT:      -6.4      0.000      0.000
REMARK  6 active torsions:
REMARK  status: ('A' for Active; 'I' for Inactive)
REMARK    1  A    between atoms: C_1  and  N_2 
REMARK       I    between atoms: N_2  and  C_3 
REMARK       I    between atoms: C_3  and  N_4 
REMARK    2  A    between atoms: N_4  and  C_5 
REMARK    3  A    between atoms: C_5  and  C_6 
REMARK    4  A    between atoms: C_6  and  C_7 
REMARK    5  A    between atoms: C_7  and  C_8 
REMARK    6  A    between atoms: C_8  and  O_9 
ROOT
HETATM    1  N   UNK N   1      36.843  13.927  13.747  0.00  0.00    -0.339 N 
HETATM    2  C   UNK N   1      36.066  14.233  12.674  0.00  0.00     0.316 C 
HETATM    3  N   UNK N   1      36.601  14.982  11.674  0.00  0.00    -0.343 N 
HETATM    4  O   UNK N   1      34.910  13.841  12.612  0.00  0.00    -0.247 OA
HETATM    5  H   UNK N   1      37.765  14.269  13.743  0.00  0.00     0.164 HD
HETATM    6  H   UNK N   1      37.537  15.260  11.794  0.00  0.00     0.164 HD
ENDROOT
BRANCH   1   7
HETATM    7  C   UNK N   1      36.437  13.141  14.901  0.00  0.00     0.086 A 
HETATM    8  C   UNK N   1      36.866  11.689  14.872  0.00  0.00     0.025 A 
HETATM    9  C   UNK N   1      36.462  10.826  16.061  0.00  0.00     0.002 A 
HETATM   10  C   UNK N   1      35.660  11.432  17.213  0.00  0.00     0.000 A 
HETATM   11  C   UNK N   1      35.250  12.904  17.197  0.00  0.00     0.002 A 
HETATM   12  C   UNK N   1      35.640  13.787  16.022  0.00  0.00     0.025 A 
ENDBRANCH   1   7
BRANCH   3  13
HETATM   13  C   UNK N   1      35.953  15.420  10.447  0.00  0.00     0.125 C 
BRANCH  13  14
HETATM   14  C   UNK N   1      35.321  16.812  10.475  0.00  0.00     0.030 C 
BRANCH  14  15
HETATM   15  C   UNK N   1      34.355  17.162   9.328  0.00  0.00     0.111 C 
BRANCH  15  16
HETATM   16  C   UNK N   1      34.745  18.170   8.271  0.00  0.00     0.139 C 
HETATM   17  O   UNK N   1      34.519  17.984   7.086  0.00  0.00    -0.650 OA
BRANCH  16  18
HETATM   18  O   UNK N   1      35.360  19.304   8.650  0.00  0.00    -0.776 OA
HETATM   19  H   UNK N   1      35.196  20.103   8.188  0.00  0.00     0.167 HD
ENDBRANCH  16  18
ENDBRANCH  15  16
ENDBRANCH  14  15
ENDBRANCH  13  14
ENDBRANCH   3  13
TORSDOF 6
ENDMDL
MODEL 2
REMARK VINA RESULT:      -6.2      1.714      2.507
REMARK  6 active torsions:
REMARK  status: ('A' for Active; 'I' for Inactive)
REMARK    1  A    between atoms: C_1  and  N_2 
REMARK       I    between atoms: N_2  and  C_3 
REMARK       I    between atoms: C_3  and  N_4 
REMARK    2  A    between atoms: N_4  and  C_5 
REMARK    3  A    between atoms: C_5  and  C_6 
REMARK    4  A    between atoms: C_6  and  C_7 
REMARK    5  A    between atoms: C_7  and  C_8 
REMARK    6  A    between atoms: C_8  and  O_9 
ROOT
HETATM    1  N   UNK N   1      37.213  13.647  14.373  0.00  0.00    -0.339 N 
HETATM    2  C   UNK N   1      36.552  13.668  13.185  0.00  0.00     0.316 C 
HETATM    3  N   UNK N   1      37.223  13.311  12.058  0.00  0.00    -0.343 N 
HETATM    4  O   UNK N   1      35.377  14.002  13.133  0.00  0.00    -0.247 OA
HETATM    5  H   UNK N   1      38.157  13.371  14.353  0.00  0.00     0.164 HD
HETATM    6  H   UNK N   1      38.166  13.055  12.178  0.00  0.00     0.164 HD
ENDROOT
BRANCH   1   7
HETATM    7  C   UNK N   1      36.654  13.996  15.669  0.00  0.00     0.086 A 
HETATM    8  C   UNK N   1      35.662  12.998  16.230  0.00  0.00     0.025 A 
HETATM    9  C   UNK N   1      35.050  13.322  17.586  0.00  0.00     0.002 A 
HETATM   10  C   UNK N   1      35.443  14.604  18.320  0.00  0.00     0.000 A 
HETATM   11  C   UNK N   1      36.449  15.581  17.714  0.00  0.00     0.002 A 
HETATM   12  C   UNK N   1      37.075  15.282  16.360  0.00  0.00     0.025 A 
ENDBRANCH   1   7
BRANCH   3  13
HETATM   13  C   UNK N   1      36.713  13.264  10.696  0.00  0.00     0.125 C 
BRANCH  13  14
HETATM   14  C   UNK N   1      36.901  14.528   9.858  0.00  0.00     0.030 C 
BRANCH  14  15
HETATM   15  C   UNK N   1      35.651  15.393   9.611  0.00  0.00     0.111 C 
BRANCH  15  16
HETATM   16  C   UNK N   1      35.370  16.607  10.468  0.00  0.00     0.139 C 
HETATM   17  O   UNK N   1      35.544  17.742  10.056  0.00  0.00    -0.650 OA
BRANCH  16  18
HETATM   18  O   UNK N   1      34.915  16.427  11.720  0.00  0.00    -0.776 OA
HETATM   19  H   UNK N   1      34.281  17.017  12.078  0.00  0.00     0.167 HD
ENDBRANCH  16  18
ENDBRANCH  15  16
ENDBRANCH  14  15
ENDBRANCH  13  14
ENDBRANCH   3  13
TORSDOF 6
ENDMDL
MODEL 3
REMARK VINA RESULT:      -5.7      1.877      2.115
REMARK  6 active torsions:
REMARK  status: ('A' for Active; 'I' for Inactive)
REMARK    1  A    between atoms: C_1  and  N_2 
REMARK       I    between atoms: N_2  and  C_3 
REMARK       I    between atoms: C_3  and  N_4 
REMARK    2  A    between atoms: N_4  and  C_5 
REMARK    3  A    between atoms: C_5  and  C_6 
REMARK    4  A    between atoms: C_6  and  C_7 
REMARK    5  A    between atoms: C_7  and  C_8 
REMARK    6  A    between atoms: C_8  and  O_9 
ROOT
HETATM    1  N   UNK N   1      37.083  13.178  14.266  0.00  0.00    -0.339 N 
HETATM    2  C   UNK N   1      36.430  13.496  13.117  0.00  0.00     0.316 C 
HETATM    3  N   UNK N   1      37.157  13.915  12.048  0.00  0.00    -0.343 N 
HETATM    4  O   UNK N   1      35.212  13.408  13.049  0.00  0.00    -0.247 OA
HETATM    5  H   UNK N   1      38.063  13.269  14.262  0.00  0.00     0.164 HD
HETATM    6  H   UNK N   1      38.131  13.961  12.177  0.00  0.00     0.164 HD
ENDROOT
BRANCH   1   7
HETATM    7  C   UNK N   1      36.469  12.716  15.499  0.00  0.00     0.086 A 
HETATM    8  C   UNK N   1      36.592  11.229  15.761  0.00  0.00     0.025 A 
HETATM    9  C   UNK N   1      35.963  10.700  17.043  0.00  0.00     0.002 A 
HETATM   10  C   UNK N   1      35.247  11.654  17.999  0.00  0.00     0.000 A 
HETATM   11  C   UNK N   1      35.147  13.148  17.692  0.00  0.00     0.002 A 
HETATM   12  C   UNK N   1      35.767  13.703  16.419  0.00  0.00     0.025 A 
ENDBRANCH   1   7
BRANCH   3  13
HETATM   13  C   UNK N   1      36.664  14.302  10.733  0.00  0.00     0.125 C 
BRANCH  13  14
HETATM   14  C   UNK N   1      36.042  15.694  10.627  0.00  0.00     0.030 C 
BRANCH  14  15
HETATM   15  C   UNK N   1      34.878  15.864   9.633  0.00  0.00     0.111 C 
BRANCH  15  16
HETATM   16  C   UNK N   1      33.497  15.348   9.966  0.00  0.00     0.139 C 
HETATM   17  O   UNK N   1      32.591  15.354   9.149  0.00  0.00    -0.650 OA
BRANCH  16  18
HETATM   18  O   UNK N   1      33.263  14.867  11.200  0.00  0.00    -0.776 OA
HETATM   19  H   UNK N   1      32.639  14.179  11.324  0.00  0.00     0.167 HD
ENDBRANCH  16  18
ENDBRANCH  15  16
ENDBRANCH  14  15
ENDBRANCH  13  14
ENDBRANCH   3  13
TORSDOF 6
ENDMDL
MODEL 4
REMARK VINA RESULT:      -5.6      2.908      3.596
REMARK  6 active torsions:
REMARK  status: ('A' for Active; 'I' for Inactive)
REMARK    1  A    between atoms: C_1  and  N_2 
REMARK       I    between atoms: N_2  and  C_3 
REMARK       I    between atoms: C_3  and  N_4 
REMARK    2  A    between atoms: N_4  and  C_5 
REMARK    3  A    between atoms: C_5  and  C_6 
REMARK    4  A    between atoms: C_6  and  C_7 
REMARK    5  A    between atoms: C_7  and  C_8 
REMARK    6  A    between atoms: C_8  and  O_9 
ROOT
HETATM    1  N   UNK N   1      36.718  13.973  14.475  0.00  0.00    -0.339 N 
HETATM    2  C   UNK N   1      35.980  14.286  13.377  0.00  0.00     0.316 C 
HETATM    3  N   UNK N   1      36.436  15.254  12.539  0.00  0.00    -0.343 N 
HETATM    4  O   UNK N   1      34.928  13.707  13.150  0.00  0.00    -0.247 OA
HETATM    5  H   UNK N   1      37.556  14.472  14.607  0.00  0.00     0.164 HD
HETATM    6  H   UNK N   1      37.290  15.675  12.786  0.00  0.00     0.164 HD
ENDROOT
BRANCH   1   7
HETATM    7  C   UNK N   1      36.384  12.970  15.473  0.00  0.00     0.086 A 
HETATM    8  C   UNK N   1      35.580  13.479  16.651  0.00  0.00     0.025 A 
HETATM    9  C   UNK N   1      35.208  12.463  17.722  0.00  0.00     0.002 A 
HETATM   10  C   UNK N   1      35.642  11.004  17.582  0.00  0.00     0.000 A 
HETATM   11  C   UNK N   1      36.453  10.537  16.374  0.00  0.00     0.002 A 
HETATM   12  C   UNK N   1      36.838  11.531  15.290  0.00  0.00     0.025 A 
ENDBRANCH   1   7
BRANCH   3  13
HETATM   13  C   UNK N   1      35.810  15.740  11.318  0.00  0.00     0.125 C 
BRANCH  13  14
HETATM   14  C   UNK N   1      36.096  14.943  10.046  0.00  0.00     0.030 C 
BRANCH  14  15
HETATM   15  C   UNK N   1      37.543  14.461   9.836  0.00  0.00     0.111 C 
BRANCH  15  16
HETATM   16  C   UNK N   1      37.991  13.112  10.351  0.00  0.00     0.139 C 
HETATM   17  O   UNK N   1      38.104  12.145   9.615  0.00  0.00    -0.650 OA
BRANCH  16  18
HETATM   18  O   UNK N   1      38.271  12.976  11.659  0.00  0.00    -0.776 OA
HETATM   19  H   UNK N   1      39.033  12.502  11.928  0.00  0.00     0.167 HD
ENDBRANCH  16  18
ENDBRANCH  15  16
ENDBRANCH  14  15
ENDBRANCH  13  14
ENDBRANCH   3  13
TORSDOF 6
ENDMDL
MODEL 5
REMARK VINA RESULT:      -5.6      7.327     11.754
REMARK  6 active torsions:
REMARK  status: ('A' for Active; 'I' for Inactive)
REMARK    1  A    between atoms: C_1  and  N_2 
REMARK       I    between atoms: N_2  and  C_3 
REMARK       I    between atoms: C_3  and  N_4 
REMARK    2  A    between atoms: N_4  and  C_5 
REMARK    3  A    between atoms: C_5  and  C_6 
REMARK    4  A    between atoms: C_6  and  C_7 
REMARK    5  A    between atoms: C_7  and  C_8 
REMARK    6  A    between atoms: C_8  and  O_9 
ROOT
HETATM    1  N   UNK N   1      27.555  18.601   6.863  0.00  0.00    -0.339 N 
HETATM    2  C   UNK N   1      28.772  18.009   6.992  0.00  0.00     0.316 C 
HETATM    3  N   UNK N   1      29.274  17.813   8.240  0.00  0.00    -0.343 N 
HETATM    4  O   UNK N   1      29.401  17.659   6.003  0.00  0.00    -0.247 OA
HETATM    5  H   UNK N   1      27.095  18.861   7.693  0.00  0.00     0.164 HD
HETATM    6  H   UNK N   1      28.711  18.120   8.986  0.00  0.00     0.164 HD
ENDROOT
BRANCH   1   7
HETATM    7  C   UNK N   1      26.871  18.886   5.612  0.00  0.00     0.086 A 
HETATM    8  C   UNK N   1      27.145  20.256   5.028  0.00  0.00     0.025 A 
HETATM    9  C   UNK N   1      26.449  20.599   3.717  0.00  0.00     0.002 A 
HETATM   10  C   UNK N   1      25.523  19.583   3.050  0.00  0.00     0.000 A 
HETATM   11  C   UNK N   1      25.277  18.212   3.678  0.00  0.00     0.002 A 
HETATM   12  C   UNK N   1      25.959  17.844   4.986  0.00  0.00     0.025 A 
ENDBRANCH   1   7
BRANCH   3  13
HETATM   13  C   UNK N   1      30.545  17.204   8.602  0.00  0.00     0.125 C 
BRANCH  13  14
HETATM   14  C   UNK N   1      31.761  18.130   8.612  0.00  0.00     0.030 C 
BRANCH  14  15
HETATM   15  C   UNK N   1      33.142  17.468   8.445  0.00  0.00     0.111 C 
BRANCH  15  16
HETATM   16  C   UNK N   1      34.257  18.184   7.716  0.00  0.00     0.139 C 
HETATM   17  O   UNK N   1      34.500  17.970   6.540  0.00  0.00    -0.650 OA
BRANCH  16  18
HETATM   18  O   UNK N   1      35.001  19.081   8.387  0.00  0.00    -0.776 OA
HETATM   19  H   UNK N   1      35.884  18.875   8.621  0.00  0.00     0.167 HD
ENDBRANCH  16  18
ENDBRANCH  15  16
ENDBRANCH  14  15
ENDBRANCH  13  14
ENDBRANCH   3  13
TORSDOF 6
ENDMDL
MODEL 6
REMARK VINA RESULT:      -5.5      1.901      2.732
REMARK  6 active torsions:
REMARK  status: ('A' for Active; 'I' for Inactive)
REMARK    1  A    between atoms: C_1  and  N_2 
REMARK       I    between atoms: N_2  and  C_3 
REMARK       I    between atoms: C_3  and  N_4 
REMARK    2  A    between atoms: N_4  and  C_5 
REMARK    3  A    between atoms: C_5  and  C_6 
REMARK    4  A    between atoms: C_6  and  C_7 
REMARK    5  A    between atoms: C_7  and  C_8 
REMARK    6  A    between atoms: C_8  and  O_9 
ROOT
HETATM    1  N   UNK N   1      34.920  13.003  15.545  0.00  0.00    -0.339 N 
HETATM    2  C   UNK N   1      35.868  13.568  14.752  0.00  0.00     0.316 C 
HETATM    3  N   UNK N   1      35.511  13.991  13.510  0.00  0.00    -0.343 N 
HETATM    4  O   UNK N   1      37.018  13.692  15.149  0.00  0.00    -0.247 OA
HETATM    5  H   UNK N   1      34.012  12.929  15.174  0.00  0.00     0.164 HD
HETATM    6  H   UNK N   1      34.569  13.858  13.261  0.00  0.00     0.164 HD
ENDROOT
BRANCH   1   7
HETATM    7  C   UNK N   1      35.123  12.497  16.893  0.00  0.00     0.086 A 
HETATM    8  C   UNK N   1      35.399  11.011  16.987  0.00  0.00     0.025 A 
HETATM    9  C   UNK N   1      35.618  10.437  18.381  0.00  0.00     0.002 A 
HETATM   10  C   UNK N   1      35.556  11.348  19.606  0.00  0.00     0.000 A 
HETATM   11  C   UNK N   1      35.274  12.843  19.462  0.00  0.00     0.002 A 
HETATM   12  C   UNK N   1      35.051  13.442  18.082  0.00  0.00     0.025 A 
ENDBRANCH   1   7
BRANCH   3  13
HETATM   13  C   UNK N   1      36.359  14.618  12.506  0.00  0.00     0.125 C 
BRANCH  13  14
HETATM   14  C   UNK N   1      36.245  14.068  11.085  0.00  0.00     0.030 C 
BRANCH  14  15
HETATM   15  C   UNK N   1      36.017  15.092   9.957  0.00  0.00     0.111 C 
BRANCH  15  16
HETATM   16  C   UNK N   1      35.140  16.303  10.180  0.00  0.00     0.139 C 
HETATM   17  O   UNK N   1      35.608  17.422  10.317  0.00  0.00    -0.650 OA
BRANCH  16  18
HETATM   18  O   UNK N   1      33.807  16.140  10.228  0.00  0.00    -0.776 OA
HETATM   19  H   UNK N   1      33.401  15.831  11.014  0.00  0.00     0.167 HD
ENDBRANCH  16  18
ENDBRANCH  15  16
ENDBRANCH  14  15
ENDBRANCH  13  14
ENDBRANCH   3  13
TORSDOF 6
ENDMDL
MODEL 7
REMARK VINA RESULT:      -5.5      3.143      8.636
REMARK  6 active torsions:
REMARK  status: ('A' for Active; 'I' for Inactive)
REMARK    1  A    between atoms: C_1  and  N_2 
REMARK       I    between atoms: N_2  and  C_3 
REMARK       I    between atoms: C_3  and  N_4 
REMARK    2  A    between atoms: N_4  and  C_5 
REMARK    3  A    between atoms: C_5  and  C_6 
REMARK    4  A    between atoms: C_6  and  C_7 
REMARK    5  A    between atoms: C_7  and  C_8 
REMARK    6  A    between atoms: C_8  and  O_9 
ROOT
HETATM    1  N   UNK N   1      33.698  17.787   8.158  0.00  0.00    -0.339 N 
HETATM    2  C   UNK N   1      34.049  16.862   9.091  0.00  0.00     0.316 C 
HETATM    3  N   UNK N   1      34.852  17.245  10.118  0.00  0.00    -0.343 N 
HETATM    4  O   UNK N   1      33.647  15.711   9.006  0.00  0.00    -0.247 OA
HETATM    5  H   UNK N   1      34.051  18.698   8.278  0.00  0.00     0.164 HD
HETATM    6  H   UNK N   1      35.135  18.187  10.120  0.00  0.00     0.164 HD
ENDROOT
BRANCH   1   7
HETATM    7  C   UNK N   1      32.851  17.555   7.000  0.00  0.00     0.086 A 
HETATM    8  C   UNK N   1      33.574  17.532   5.670  0.00  0.00     0.025 A 
HETATM    9  C   UNK N   1      32.726  17.292   4.428  0.00  0.00     0.002 A 
HETATM   10  C   UNK N   1      31.217  17.087   4.555  0.00  0.00     0.000 A 
HETATM   11  C   UNK N   1      30.531  17.119   5.920  0.00  0.00     0.002 A 
HETATM   12  C   UNK N   1      31.354  17.357   7.177  0.00  0.00     0.025 A 
ENDBRANCH   1   7
BRANCH   3  13
HETATM   13  C   UNK N   1      35.344  16.424  11.216  0.00  0.00     0.125 C 
BRANCH  13  14
HETATM   14  C   UNK N   1      36.373  15.354  10.852  0.00  0.00     0.030 C 
BRANCH  14  15
HETATM   15  C   UNK N   1      36.358  14.060  11.688  0.00  0.00     0.111 C 
BRANCH  15  16
HETATM   16  C   UNK N   1      36.021  14.096  13.161  0.00  0.00     0.139 C 
HETATM   17  O   UNK N   1      35.020  13.559  13.607  0.00  0.00    -0.650 OA
BRANCH  16  18
HETATM   18  O   UNK N   1      36.849  14.740  14.001  0.00  0.00    -0.776 OA
HETATM   19  H   UNK N   1      36.624  15.591  14.321  0.00  0.00     0.167 HD
ENDBRANCH  16  18
ENDBRANCH  15  16
ENDBRANCH  14  15
ENDBRANCH  13  14
ENDBRANCH   3  13
TORSDOF 6
ENDMDL
MODEL 8
REMARK VINA RESULT:      -5.4      4.111      8.951
REMARK  6 active torsions:
REMARK  status: ('A' for Active; 'I' for Inactive)
REMARK    1  A    between atoms: C_1  and  N_2 
REMARK       I    between atoms: N_2  and  C_3 
REMARK       I    between atoms: C_3  and  N_4 
REMARK    2  A    between atoms: N_4  and  C_5 
REMARK    3  A    between atoms: C_5  and  C_6 
REMARK    4  A    between atoms: C_6  and  C_7 
REMARK    5  A    between atoms: C_7  and  C_8 
REMARK    6  A    between atoms: C_8  and  O_9 
ROOT
HETATM    1  N   UNK N   1      31.369  16.815   8.791  0.00  0.00    -0.339 N 
HETATM    2  C   UNK N   1      32.663  17.231   8.818  0.00  0.00     0.316 C 
HETATM    3  N   UNK N   1      33.552  16.550   9.588  0.00  0.00    -0.343 N 
HETATM    4  O   UNK N   1      33.018  18.200   8.162  0.00  0.00    -0.247 OA
HETATM    5  H   UNK N   1      31.141  16.030   9.339  0.00  0.00     0.164 HD
HETATM    6  H   UNK N   1      33.193  15.782  10.087  0.00  0.00     0.164 HD
ENDROOT
BRANCH   1   7
HETATM    7  C   UNK N   1      30.291  17.422   8.028  0.00  0.00     0.086 A 
HETATM    8  C   UNK N   1      30.199  16.980   6.582  0.00  0.00     0.025 A 
HETATM    9  C   UNK N   1      29.084  17.590   5.744  0.00  0.00     0.002 A 
HETATM   10  C   UNK N   1      28.119  18.599   6.366  0.00  0.00     0.000 A 
HETATM   11  C   UNK N   1      28.251  19.015   7.830  0.00  0.00     0.002 A 
HETATM   12  C   UNK N   1      29.356  18.421   8.690  0.00  0.00     0.025 A 
ENDBRANCH   1   7
BRANCH   3  13
HETATM   13  C   UNK N   1      34.971  16.822   9.760  0.00  0.00     0.125 C 
BRANCH  13  14
HETATM   14  C   UNK N   1      35.639  16.185  10.979  0.00  0.00     0.030 C 
BRANCH  14  15
HETATM   15  C   UNK N   1      35.031  14.870  11.500  0.00  0.00     0.111 C 
BRANCH  15  16
HETATM   16  C   UNK N   1      35.640  14.152  12.683  0.00  0.00     0.139 C 
HETATM   17  O   UNK N   1      34.957  13.715  13.594  0.00  0.00    -0.650 OA
BRANCH  16  18
HETATM   18  O   UNK N   1      36.974  13.992  12.729  0.00  0.00    -0.776 OA
HETATM   19  H   UNK N   1      37.464  13.909  11.934  0.00  0.00     0.167 HD
ENDBRANCH  16  18
ENDBRANCH  15  16
ENDBRANCH  14  15
ENDBRANCH  13  14
ENDBRANCH   3  13
TORSDOF 6
ENDMDL
MODEL 9
REMARK VINA RESULT:      -5.2      2.275      2.981
REMARK  6 active torsions:
REMARK  status: ('A' for Active; 'I' for Inactive)
REMARK    1  A    between atoms: C_1  and  N_2 
REMARK       I    between atoms: N_2  and  C_3 
REMARK       I    between atoms: C_3  and  N_4 
REMARK    2  A    between atoms: N_4  and  C_5 
REMARK    3  A    between atoms: C_5  and  C_6 
REMARK    4  A    between atoms: C_6  and  C_7 
REMARK    5  A    between atoms: C_7  and  C_8 
REMARK    6  A    between atoms: C_8  and  O_9 
ROOT
HETATM    1  N   UNK N   1      34.363  11.836  14.527  0.00  0.00    -0.339 N 
HETATM    2  C   UNK N   1      35.074  12.407  13.519  0.00  0.00     0.316 C 
HETATM    3  N   UNK N   1      34.604  12.301  12.248  0.00  0.00    -0.343 N 
HETATM    4  O   UNK N   1      36.116  13.004  13.752  0.00  0.00    -0.247 OA
HETATM    5  H   UNK N   1      33.533  11.369  14.280  0.00  0.00     0.164 HD
HETATM    6  H   UNK N   1      33.760  11.807  12.138  0.00  0.00     0.164 HD
ENDROOT
BRANCH   1   7
HETATM    7  C   UNK N   1      34.716  11.851  15.937  0.00  0.00     0.086 A 
HETATM    8  C   UNK N   1      34.728  13.222  16.582  0.00  0.00     0.025 A 
HETATM    9  C   UNK N   1      35.092  13.286  18.060  0.00  0.00     0.002 A 
HETATM   10  C   UNK N   1      35.425  12.006  18.826  0.00  0.00     0.000 A 
HETATM   11  C   UNK N   1      35.400  10.645  18.132  0.00  0.00     0.002 A 
HETATM   12  C   UNK N   1      35.040  10.552  16.657  0.00  0.00     0.025 A 
ENDBRANCH   1   7
BRANCH   3  13
HETATM   13  C   UNK N   1      35.201  12.833  11.031  0.00  0.00     0.125 C 
BRANCH  13  14
HETATM   14  C   UNK N   1      34.355  13.832  10.243  0.00  0.00     0.030 C 
BRANCH  14  15
HETATM   15  C   UNK N   1      35.101  15.000   9.571  0.00  0.00     0.111 C 
BRANCH  15  16
HETATM   16  C   UNK N   1      35.639  16.148  10.395  0.00  0.00     0.139 C 
HETATM   17  O   UNK N   1      36.786  16.162  10.812  0.00  0.00    -0.650 OA
BRANCH  16  18
HETATM   18  O   UNK N   1      34.828  17.183  10.675  0.00  0.00    -0.776 OA
HETATM   19  H   UNK N   1      33.910  17.121  10.496  0.00  0.00     0.167 HD
ENDBRANCH  16  18
ENDBRANCH  15  16
ENDBRANCH  14  15
ENDBRANCH  13  14
ENDBRANCH   3  13
TORSDOF 6
ENDMDL
