MODEL 1
REMARK VINA RESULT:      -6.4      0.000      0.000
REMARK  8 active torsions:
REMARK  status: ('A' for Active; 'I' for Inactive)
REMARK    1  A    between atoms: C_1  and  N_2 
REMARK       I    between atoms: N_2  and  C_3 
REMARK       I    between atoms: C_3  and  N_4 
REMARK    2  A    between atoms: N_4  and  C_5 
REMARK    3  A    between atoms: C_5  and  C_6 
REMARK    4  A    between atoms: C_6  and  C_7 
REMARK    5  A    between atoms: C_7  and  C_8 
REMARK    6  A    between atoms: C_8  and  C_9 
REMARK    7  A    between atoms: C_9  and  C_11 
REMARK    8  A    between atoms: C_11  and  O_12 
ROOT
HETATM    1  N   UNK N   1      36.493  13.535  15.036  0.00  0.00    -0.339 N 
HETATM    2  C   UNK N   1      36.023  13.610  13.766  0.00  0.00     0.316 C 
HETATM    3  N   UNK N   1      36.855  13.988  12.769  0.00  0.00    -0.343 N 
HETATM    4  O   UNK N   1      34.845  13.371  13.526  0.00  0.00    -0.247 OA
HETATM    5  H   UNK N   1      37.442  13.738  15.198  0.00  0.00     0.164 HD
HETATM    6  H   UNK N   1      37.817  14.098  12.954  0.00  0.00     0.164 HD
ENDROOT
BRANCH   3   7
HETATM    7  C   UNK N   1      36.354  14.231  11.442  0.00  0.00     0.124 C 
BRANCH   7   8
HETATM    8  C   UNK N   1      36.308  15.715  11.131  0.00  0.00     0.020 C 
BRANCH   8   9
HETATM    9  C   UNK N   1      34.886  16.139  10.778  0.00  0.00     0.002 C 
BRANCH   9  10
HETATM   10  C   UNK N   1      34.652  16.118   9.271  0.00  0.00     0.010 C 
BRANCH  10  11
HETATM   11  C   UNK N   1      33.755  17.269   8.840  0.00  0.00     0.110 C 
BRANCH  11  12
HETATM   12  C   UNK N   1      34.457  18.259   7.954  0.00  0.00     0.139 C 
HETATM   13  O   UNK N   1      35.097  19.187   8.426  0.00  0.00    -0.650 OA
BRANCH  12  14
HETATM   14  O   UNK N   1      34.371  18.123   6.619  0.00  0.00    -0.776 OA
HETATM   15  H   UNK N   1      33.547  18.195   6.178  0.00  0.00     0.167 HD
ENDBRANCH  12  14
ENDBRANCH  11  12
ENDBRANCH  10  11
ENDBRANCH   9  10
ENDBRANCH   8   9
ENDBRANCH   7   8
ENDBRANCH   3   7
BRANCH   1  16
HETATM   16  C   UNK N   1      35.663  13.172  16.164  0.00  0.00     0.086 C 
HETATM   17  C   UNK N   1      35.989  11.737  16.578  0.00  0.00     0.025 C 
HETATM   18  C   UNK N   1      35.157  11.323  17.791  0.00  0.00     0.002 C 
HETATM   19  C   UNK N   1      35.387  12.284  18.955  0.00  0.00     0.000 C 
HETATM   20  C   UNK N   1      35.044  13.708  18.533  0.00  0.00     0.002 C 
HETATM   21  C   UNK N   1      35.916  14.110  17.351  0.00  0.00     0.025 C 
ENDBRANCH   1  16
TORSDOF 8
ENDMDL
MODEL 2
REMARK VINA RESULT:      -6.0      1.098      1.826
REMARK  8 active torsions:
REMARK  status: ('A' for Active; 'I' for Inactive)
REMARK    1  A    between atoms: C_1  and  N_2 
REMARK       I    between atoms: N_2  and  C_3 
REMARK       I    between atoms: C_3  and  N_4 
REMARK    2  A    between atoms: N_4  and  C_5 
REMARK    3  A    between atoms: C_5  and  C_6 
REMARK    4  A    between atoms: C_6  and  C_7 
REMARK    5  A    between atoms: C_7  and  C_8 
REMARK    6  A    between atoms: C_8  and  C_9 
REMARK    7  A    between atoms: C_9  and  C_11 
REMARK    8  A    between atoms: C_11  and  O_12 
ROOT
HETATM    1  N   UNK N   1      35.336  12.867  14.383  0.00  0.00    -0.339 N 
HETATM    2  C   UNK N   1      35.840  13.957  13.753  0.00  0.00     0.316 C 
HETATM    3  N   UNK N   1      35.407  14.268  12.510  0.00  0.00    -0.343 N 
HETATM    4  O   UNK N   1      36.705  14.638  14.291  0.00  0.00    -0.247 OA
HETATM    5  H   UNK N   1      34.645  12.336  13.924  0.00  0.00     0.164 HD
HETATM    6  H   UNK N   1      34.655  13.767  12.118  0.00  0.00     0.164 HD
ENDROOT
BRANCH   3   7
HETATM    7  C   UNK N   1      36.033  15.320  11.753  0.00  0.00     0.124 C 
BRANCH   7   8
HETATM    8  C   UNK N   1      36.317  14.882  10.328  0.00  0.00     0.020 C 
BRANCH   8   9
HETATM    9  C   UNK N   1      35.226  15.390   9.390  0.00  0.00     0.002 C 
BRANCH   9  10
HETATM   10  C   UNK N   1      34.595  16.677   9.909  0.00  0.00     0.010 C 
BRANCH  10  11
HETATM   11  C   UNK N   1      33.735  17.334   8.840  0.00  0.00     0.110 C 
BRANCH  11  12
HETATM   12  C   UNK N   1      34.514  18.253   7.943  0.00  0.00     0.139 C 
HETATM   13  O   UNK N   1      34.489  18.121   6.728  0.00  0.00    -0.650 OA
BRANCH  12  14
HETATM   14  O   UNK N   1      35.258  19.232   8.489  0.00  0.00    -0.776 OA
HETATM   15  H   UNK N   1      35.991  19.032   9.036  0.00  0.00     0.167 HD
ENDBRANCH  12  14
ENDBRANCH  11  12
ENDBRANCH  10  11
ENDBRANCH   9  10
ENDBRANCH   8   9
ENDBRANCH   7   8
ENDBRANCH   3   7
BRANCH   1  16
HETATM   16  C   UNK N   1      35.767  12.445  15.698  0.00  0.00     0.086 C 
HETATM   17  C   UNK N   1      34.792  12.995  16.739  0.00  0.00     0.025 C 
HETATM   18  C   UNK N   1      35.191  12.544  18.144  0.00  0.00     0.002 C 
HETATM   19  C   UNK N   1      35.259  11.021  18.222  0.00  0.00     0.000 C 
HETATM   20  C   UNK N   1      36.246  10.489  17.189  0.00  0.00     0.002 C 
HETATM   21  C   UNK N   1      35.802  10.915  15.796  0.00  0.00     0.025 C 
ENDBRANCH   1  16
TORSDOF 8
ENDMDL
MODEL 3
REMARK VINA RESULT:      -6.0      1.074      1.424
REMARK  8 active torsions:
REMARK  status: ('A' for Active; 'I' for Inactive)
REMARK    1  A    between atoms: C_1  and  N_2 
REMARK       I    between atoms: N_2  and  C_3 
REMARK       I    between atoms: C_3  and  N_4 
REMARK    2  A    between atoms: N_4  and  C_5 
REMARK    3  A    between atoms: C_5  and  C_6 
REMARK    4  A    between atoms: C_6  and  C_7 
REMARK    5  A    between atoms: C_7  and  C_8 
REMARK    6  A    between atoms: C_8  and  C_9 
REMARK    7  A    between atoms: C_9  and  C_11 
REMARK    8  A    between atoms: C_11  and  O_12 
ROOT
HETATM    1  N   UNK N   1      36.634  13.199  13.554  0.00  0.00    -0.339 N 
HETATM    2  C   UNK N   1      36.133  13.980  12.564  0.00  0.00     0.316 C 
HETATM    3  N   UNK N   1      36.963  14.461  11.610  0.00  0.00    -0.343 N 
HETATM    4  O   UNK N   1      34.944  14.277  12.552  0.00  0.00    -0.247 OA
HETATM    5  H   UNK N   1      37.594  12.982  13.540  0.00  0.00     0.164 HD
HETATM    6  H   UNK N   1      37.898  14.153  11.579  0.00  0.00     0.164 HD
ENDROOT
BRANCH   3   7
HETATM    7  C   UNK N   1      36.496  15.418  10.642  0.00  0.00     0.124 C 
BRANCH   7   8
HETATM    8  C   UNK N   1      36.119  14.744   9.335  0.00  0.00     0.020 C 
BRANCH   8   9
HETATM    9  C   UNK N   1      34.711  15.152   8.916  0.00  0.00     0.002 C 
BRANCH   9  10
HETATM   10  C   UNK N   1      34.224  16.370   9.695  0.00  0.00     0.010 C 
BRANCH  10  11
HETATM   11  C   UNK N   1      33.524  17.362   8.779  0.00  0.00     0.110 C 
BRANCH  11  12
HETATM   12  C   UNK N   1      34.482  18.185   7.966  0.00  0.00     0.139 C 
HETATM   13  O   UNK N   1      35.194  19.030   8.491  0.00  0.00    -0.650 OA
BRANCH  12  14
HETATM   14  O   UNK N   1      34.552  17.993   6.637  0.00  0.00    -0.776 OA
HETATM   15  H   UNK N   1      34.498  18.715   6.041  0.00  0.00     0.167 HD
ENDBRANCH  12  14
ENDBRANCH  11  12
ENDBRANCH  10  11
ENDBRANCH   9  10
ENDBRANCH   8   9
ENDBRANCH   7   8
ENDBRANCH   3   7
BRANCH   1  16
HETATM   16  C   UNK N   1      35.823  12.671  14.630  0.00  0.00     0.086 C 
HETATM   17  C   UNK N   1      36.251  11.232  14.913  0.00  0.00     0.025 C 
HETATM   18  C   UNK N   1      35.441  10.645  16.068  0.00  0.00     0.002 C 
HETATM   19  C   UNK N   1      35.588  11.506  17.321  0.00  0.00     0.000 C 
HETATM   20  C   UNK N   1      35.144  12.935  17.027  0.00  0.00     0.002 C 
HETATM   21  C   UNK N   1      35.994  13.510  15.902  0.00  0.00     0.025 C 
ENDBRANCH   1  16
TORSDOF 8
ENDMDL
MODEL 4
REMARK VINA RESULT:      -5.7      7.752     12.498
REMARK  8 active torsions:
REMARK  status: ('A' for Active; 'I' for Inactive)
REMARK    1  A    between atoms: C_1  and  N_2 
REMARK       I    between atoms: N_2  and  C_3 
REMARK       I    between atoms: C_3  and  N_4 
REMARK    2  A    between atoms: N_4  and  C_5 
REMARK    3  A    between atoms: C_5  and  C_6 
REMARK    4  A    between atoms: C_6  and  C_7 
REMARK    5  A    between atoms: C_7  and  C_8 
REMARK    6  A    between atoms: C_8  and  C_9 
REMARK    7  A    between atoms: C_9  and  C_11 
REMARK    8  A    between atoms: C_11  and  O_12 
ROOT
HETATM    1  N   UNK N   1      27.065  18.578   5.929  0.00  0.00    -0.339 N 
HETATM    2  C   UNK N   1      27.793  18.996   6.995  0.00  0.00     0.316 C 
HETATM    3  N   UNK N   1      28.476  18.090   7.731  0.00  0.00    -0.343 N 
HETATM    4  O   UNK N   1      27.806  20.180   7.310  0.00  0.00    -0.247 OA
HETATM    5  H   UNK N   1      27.069  17.620   5.704  0.00  0.00     0.164 HD
HETATM    6  H   UNK N   1      28.528  17.155   7.425  0.00  0.00     0.164 HD
ENDROOT
BRANCH   3   7
HETATM    7  C   UNK N   1      29.126  18.475   8.956  0.00  0.00     0.124 C 
BRANCH   7   8
HETATM    8  C   UNK N   1      30.636  18.390   8.831  0.00  0.00     0.020 C 
BRANCH   8   9
HETATM    9  C   UNK N   1      31.023  17.364   7.770  0.00  0.00     0.002 C 
BRANCH   9  10
HETATM   10  C   UNK N   1      32.461  16.888   7.947  0.00  0.00     0.010 C 
BRANCH  10  11
HETATM   11  C   UNK N   1      33.450  17.971   7.544  0.00  0.00     0.110 C 
BRANCH  11  12
HETATM   12  C   UNK N   1      34.546  18.169   8.552  0.00  0.00     0.139 C 
HETATM   13  O   UNK N   1      34.750  17.347   9.434  0.00  0.00    -0.650 OA
BRANCH  12  14
HETATM   14  O   UNK N   1      35.309  19.274   8.486  0.00  0.00    -0.776 OA
HETATM   15  H   UNK N   1      35.872  19.429   7.753  0.00  0.00     0.167 HD
ENDBRANCH  12  14
ENDBRANCH  11  12
ENDBRANCH  10  11
ENDBRANCH   9  10
ENDBRANCH   8   9
ENDBRANCH   7   8
ENDBRANCH   3   7
BRANCH   1  16
HETATM   16  C   UNK N   1      26.280  19.476   5.110  0.00  0.00     0.086 C 
HETATM   17  C   UNK N   1      27.104  19.880   3.888  0.00  0.00     0.025 C 
HETATM   18  C   UNK N   1      26.298  20.803   2.974  0.00  0.00     0.002 C 
HETATM   19  C   UNK N   1      24.994  20.133   2.546  0.00  0.00     0.000 C 
HETATM   20  C   UNK N   1      24.177  19.749   3.774  0.00  0.00     0.002 C 
HETATM   21  C   UNK N   1      24.985  18.797   4.645  0.00  0.00     0.025 C 
ENDBRANCH   1  16
TORSDOF 8
ENDMDL
MODEL 5
REMARK VINA RESULT:      -5.6      3.353      4.886
REMARK  8 active torsions:
REMARK  status: ('A' for Active; 'I' for Inactive)
REMARK    1  A    between atoms: C_1  and  N_2 
REMARK       I    between atoms: N_2  and  C_3 
REMARK       I    between atoms: C_3  and  N_4 
REMARK    2  A    between atoms: N_4  and  C_5 
REMARK    3  A    between atoms: C_5  and  C_6 
REMARK    4  A    between atoms: C_6  and  C_7 
REMARK    5  A    between atoms: C_7  and  C_8 
REMARK    6  A    between atoms: C_8  and  C_9 
REMARK    7  A    between atoms: C_9  and  C_11 
REMARK    8  A    between atoms: C_11  and  O_12 
ROOT
HETATM    1  N   UNK N   1      35.165  14.645  11.676  0.00  0.00    -0.339 N 
HETATM    2  C   UNK N   1      35.373  15.735  10.896  0.00  0.00     0.316 C 
HETATM    3  N   UNK N   1      34.346  16.250  10.182  0.00  0.00    -0.343 N 
HETATM    4  O   UNK N   1      36.490  16.232  10.812  0.00  0.00    -0.247 OA
HETATM    5  H   UNK N   1      34.258  14.265  11.719  0.00  0.00     0.164 HD
HETATM    6  H   UNK N   1      33.436  15.898  10.318  0.00  0.00     0.164 HD
ENDROOT
BRANCH   3   7
HETATM    7  C   UNK N   1      34.567  17.304   9.227  0.00  0.00     0.124 C 
BRANCH   7   8
HETATM    8  C   UNK N   1      33.526  17.277   8.123  0.00  0.00     0.020 C 
BRANCH   8   9
HETATM    9  C   UNK N   1      32.394  18.249   8.439  0.00  0.00     0.002 C 
BRANCH   9  10
HETATM   10  C   UNK N   1      31.030  17.574   8.335  0.00  0.00     0.010 C 
BRANCH  10  11
HETATM   11  C   UNK N   1      29.979  18.340   9.124  0.00  0.00     0.110 C 
BRANCH  11  12
HETATM   12  C   UNK N   1      28.589  18.148   8.590  0.00  0.00     0.139 C 
HETATM   13  O   UNK N   1      28.390  17.969   7.397  0.00  0.00    -0.650 OA
BRANCH  12  14
HETATM   14  O   UNK N   1      27.546  18.179   9.438  0.00  0.00    -0.776 OA
HETATM   15  H   UNK N   1      27.314  17.427   9.947  0.00  0.00     0.167 HD
ENDBRANCH  12  14
ENDBRANCH  11  12
ENDBRANCH  10  11
ENDBRANCH   9  10
ENDBRANCH   8   9
ENDBRANCH   7   8
ENDBRANCH   3   7
BRANCH   1  16
HETATM   16  C   UNK N   1      36.215  14.012  12.445  0.00  0.00     0.086 C 
HETATM   17  C   UNK N   1      35.758  13.887  13.898  0.00  0.00     0.025 C 
HETATM   18  C   UNK N   1      36.825  13.191  14.742  0.00  0.00     0.002 C 
HETATM   19  C   UNK N   1      37.160  11.819  14.162  0.00  0.00     0.000 C 
HETATM   20  C   UNK N   1      37.628  11.961  12.718  0.00  0.00     0.002 C 
HETATM   21  C   UNK N   1      36.530  12.617  11.892  0.00  0.00     0.025 C 
ENDBRANCH   1  16
TORSDOF 8
ENDMDL
MODEL 6
REMARK VINA RESULT:      -5.5     14.440     16.060
REMARK  8 active torsions:
REMARK  status: ('A' for Active; 'I' for Inactive)
REMARK    1  A    between atoms: C_1  and  N_2 
REMARK       I    between atoms: N_2  and  C_3 
REMARK       I    between atoms: C_3  and  N_4 
REMARK    2  A    between atoms: N_4  and  C_5 
REMARK    3  A    between atoms: C_5  and  C_6 
REMARK    4  A    between atoms: C_6  and  C_7 
REMARK    5  A    between atoms: C_7  and  C_8 
REMARK    6  A    between atoms: C_8  and  C_9 
REMARK    7  A    between atoms: C_9  and  C_11 
REMARK    8  A    between atoms: C_11  and  O_12 
ROOT
HETATM    1  N   UNK N   1      21.647  14.202   7.468  0.00  0.00    -0.339 N 
HETATM    2  C   UNK N   1      20.775  14.302   6.433  0.00  0.00     0.316 C 
HETATM    3  N   UNK N   1      20.907  15.316   5.547  0.00  0.00    -0.343 N 
HETATM    4  O   UNK N   1      19.855  13.502   6.319  0.00  0.00    -0.247 OA
HETATM    5  H   UNK N   1      22.373  14.862   7.535  0.00  0.00     0.164 HD
HETATM    6  H   UNK N   1      21.695  15.905   5.596  0.00  0.00     0.164 HD
ENDROOT
BRANCH   3   7
HETATM    7  C   UNK N   1      19.910  15.544   4.534  0.00  0.00     0.124 C 
BRANCH   7   8
HETATM    8  C   UNK N   1      19.905  16.991   4.079  0.00  0.00     0.020 C 
BRANCH   8   9
HETATM    9  C   UNK N   1      21.285  17.612   4.270  0.00  0.00     0.002 C 
BRANCH   9  10
HETATM   10  C   UNK N   1      21.385  18.978   3.599  0.00  0.00     0.010 C 
BRANCH  10  11
HETATM   11  C   UNK N   1      20.454  19.067   2.399  0.00  0.00     0.110 C 
BRANCH  11  12
HETATM   12  C   UNK N   1      20.830  20.165   1.446  0.00  0.00     0.139 C 
HETATM   13  O   UNK N   1      21.260  21.235   1.852  0.00  0.00    -0.650 OA
BRANCH  12  14
HETATM   14  O   UNK N   1      20.684  19.969   0.123  0.00  0.00    -0.776 OA
HETATM   15  H   UNK N   1      21.028  20.581  -0.497  0.00  0.00     0.167 HD
ENDBRANCH  12  14
ENDBRANCH  11  12
ENDBRANCH  10  11
ENDBRANCH   9  10
ENDBRANCH   8   9
ENDBRANCH   7   8
ENDBRANCH   3   7
BRANCH   1  16
HETATM   16  C   UNK N   1      21.558  13.169   8.477  0.00  0.00     0.086 C 
HETATM   17  C   UNK N   1      22.966  12.677   8.809  0.00  0.00     0.025 C 
HETATM   18  C   UNK N   1      22.921  11.607   9.899  0.00  0.00     0.002 C 
HETATM   19  C   UNK N   1      22.229  12.142  11.151  0.00  0.00     0.000 C 
HETATM   20  C   UNK N   1      20.821  12.615  10.808  0.00  0.00     0.002 C 
HETATM   21  C   UNK N   1      20.897  13.709   9.752  0.00  0.00     0.025 C 
ENDBRANCH   1  16
TORSDOF 8
ENDMDL
MODEL 7
REMARK VINA RESULT:      -5.5     13.717     16.567
REMARK  8 active torsions:
REMARK  status: ('A' for Active; 'I' for Inactive)
REMARK    1  A    between atoms: C_1  and  N_2 
REMARK       I    between atoms: N_2  and  C_3 
REMARK       I    between atoms: C_3  and  N_4 
REMARK    2  A    between atoms: N_4  and  C_5 
REMARK    3  A    between atoms: C_5  and  C_6 
REMARK    4  A    between atoms: C_6  and  C_7 
REMARK    5  A    between atoms: C_7  and  C_8 
REMARK    6  A    between atoms: C_8  and  C_9 
REMARK    7  A    between atoms: C_9  and  C_11 
REMARK    8  A    between atoms: C_11  and  O_12 
ROOT
HETATM    1  N   UNK N   1      23.905  18.445   5.012  0.00  0.00    -0.339 N 
HETATM    2  C   UNK N   1      23.035  17.492   4.596  0.00  0.00     0.316 C 
HETATM    3  N   UNK N   1      21.869  17.318   5.259  0.00  0.00    -0.343 N 
HETATM    4  O   UNK N   1      23.316  16.770   3.646  0.00  0.00    -0.247 OA
HETATM    5  H   UNK N   1      23.654  19.007   5.781  0.00  0.00     0.164 HD
HETATM    6  H   UNK N   1      21.614  17.954   5.967  0.00  0.00     0.164 HD
ENDROOT
BRANCH   3   7
HETATM    7  C   UNK N   1      20.999  16.216   4.944  0.00  0.00     0.124 C 
BRANCH   7   8
HETATM    8  C   UNK N   1      19.712  16.694   4.298  0.00  0.00     0.020 C 
BRANCH   8   9
HETATM    9  C   UNK N   1      19.948  17.017   2.826  0.00  0.00     0.002 C 
BRANCH   9  10
HETATM   10  C   UNK N   1      19.451  18.415   2.472  0.00  0.00     0.010 C 
BRANCH  10  11
HETATM   11  C   UNK N   1      20.601  19.312   2.038  0.00  0.00     0.110 C 
BRANCH  11  12
HETATM   12  C   UNK N   1      20.988  20.316   3.086  0.00  0.00     0.139 C 
HETATM   13  O   UNK N   1      20.724  20.133   4.265  0.00  0.00    -0.650 OA
BRANCH  12  14
HETATM   14  O   UNK N   1      21.630  21.439   2.717  0.00  0.00    -0.776 OA
HETATM   15  H   UNK N   1      21.229  22.055   2.135  0.00  0.00     0.167 HD
ENDBRANCH  12  14
ENDBRANCH  11  12
ENDBRANCH  10  11
ENDBRANCH   9  10
ENDBRANCH   8   9
ENDBRANCH   7   8
ENDBRANCH   3   7
BRANCH   1  16
HETATM   16  C   UNK N   1      25.187  18.675   4.380  0.00  0.00     0.086 C 
HETATM   17  C   UNK N   1      25.336  20.168   4.089  0.00  0.00     0.025 C 
HETATM   18  C   UNK N   1      26.693  20.461   3.451  0.00  0.00     0.002 C 
HETATM   19  C   UNK N   1      27.827  19.971   4.349  0.00  0.00     0.000 C 
HETATM   20  C   UNK N   1      27.674  18.479   4.618  0.00  0.00     0.002 C 
HETATM   21  C   UNK N   1      26.333  18.220   5.292  0.00  0.00     0.025 C 
ENDBRANCH   1  16
TORSDOF 8
ENDMDL
MODEL 8
REMARK VINA RESULT:      -5.4      2.710      4.100
REMARK  8 active torsions:
REMARK  status: ('A' for Active; 'I' for Inactive)
REMARK    1  A    between atoms: C_1  and  N_2 
REMARK       I    between atoms: N_2  and  C_3 
REMARK       I    between atoms: C_3  and  N_4 
REMARK    2  A    between atoms: N_4  and  C_5 
REMARK    3  A    between atoms: C_5  and  C_6 
REMARK    4  A    between atoms: C_6  and  C_7 
REMARK    5  A    between atoms: C_7  and  C_8 
REMARK    6  A    between atoms: C_8  and  C_9 
REMARK    7  A    between atoms: C_9  and  C_11 
REMARK    8  A    between atoms: C_11  and  O_12 
ROOT
HETATM    1  N   UNK N   1      35.605  14.529  10.755  0.00  0.00    -0.339 N 
HETATM    2  C   UNK N   1      35.971  14.108   9.518  0.00  0.00     0.316 C 
HETATM    3  N   UNK N   1      35.538  14.784   8.429  0.00  0.00    -0.343 N 
HETATM    4  O   UNK N   1      36.661  13.105   9.385  0.00  0.00    -0.247 OA
HETATM    5  H   UNK N   1      35.047  15.336  10.830  0.00  0.00     0.164 HD
HETATM    6  H   UNK N   1      35.054  15.634   8.546  0.00  0.00     0.164 HD
ENDROOT
BRANCH   3   7
HETATM    7  C   UNK N   1      35.774  14.275   7.104  0.00  0.00     0.124 C 
BRANCH   7   8
HETATM    8  C   UNK N   1      35.268  15.236   6.044  0.00  0.00     0.020 C 
BRANCH   8   9
HETATM    9  C   UNK N   1      33.921  15.819   6.459  0.00  0.00     0.002 C 
BRANCH   9  10
HETATM   10  C   UNK N   1      33.897  17.337   6.312  0.00  0.00     0.010 C 
BRANCH  10  11
HETATM   11  C   UNK N   1      33.448  18.005   7.603  0.00  0.00     0.110 C 
BRANCH  11  12
HETATM   12  C   UNK N   1      34.581  18.262   8.555  0.00  0.00     0.139 C 
HETATM   13  O   UNK N   1      35.314  19.231   8.418  0.00  0.00    -0.650 OA
BRANCH  12  14
HETATM   14  O   UNK N   1      34.794  17.407   9.571  0.00  0.00    -0.776 OA
HETATM   15  H   UNK N   1      35.615  17.389  10.023  0.00  0.00     0.167 HD
ENDBRANCH  12  14
ENDBRANCH  11  12
ENDBRANCH  10  11
ENDBRANCH   9  10
ENDBRANCH   8   9
ENDBRANCH   7   8
ENDBRANCH   3   7
BRANCH   1  16
HETATM   16  C   UNK N   1      35.997  13.847  11.969  0.00  0.00     0.086 C 
HETATM   17  C   UNK N   1      36.178  14.878  13.081  0.00  0.00     0.025 C 
HETATM   18  C   UNK N   1      36.560  14.195  14.395  0.00  0.00     0.002 C 
HETATM   19  C   UNK N   1      35.510  13.159  14.787  0.00  0.00     0.000 C 
HETATM   20  C   UNK N   1      35.351  12.129  13.675  0.00  0.00     0.002 C 
HETATM   21  C   UNK N   1      34.930  12.830  12.391  0.00  0.00     0.025 C 
ENDBRANCH   1  16
TORSDOF 8
ENDMDL
MODEL 9
REMARK VINA RESULT:      -5.4      1.763      2.360
REMARK  8 active torsions:
REMARK  status: ('A' for Active; 'I' for Inactive)
REMARK    1  A    between atoms: C_1  and  N_2 
REMARK       I    between atoms: N_2  and  C_3 
REMARK       I    between atoms: C_3  and  N_4 
REMARK    2  A    between atoms: N_4  and  C_5 
REMARK    3  A    between atoms: C_5  and  C_6 
REMARK    4  A    between atoms: C_6  and  C_7 
REMARK    5  A    between atoms: C_7  and  C_8 
REMARK    6  A    between atoms: C_8  and  C_9 
REMARK    7  A    between atoms: C_9  and  C_11 
REMARK    8  A    between atoms: C_11  and  O_12 
ROOT
HETATM    1  N   UNK N   1      36.561  13.367  14.950  0.00  0.00    -0.339 N 
HETATM    2  C   UNK N   1      36.108  13.521  13.681  0.00  0.00     0.316 C 
HETATM    3  N   UNK N   1      36.966  13.905  12.709  0.00  0.00    -0.343 N 
HETATM    4  O   UNK N   1      34.923  13.345  13.422  0.00  0.00    -0.247 OA
HETATM    5  H   UNK N   1      37.517  13.520  15.129  0.00  0.00     0.164 HD
HETATM    6  H   UNK N   1      37.929  13.964  12.906  0.00  0.00     0.164 HD
ENDROOT
BRANCH   3   7
HETATM    7  C   UNK N   1      36.488  14.230  11.391  0.00  0.00     0.124 C 
BRANCH   7   8
HETATM    8  C   UNK N   1      36.801  13.123  10.401  0.00  0.00     0.020 C 
BRANCH   8   9
HETATM    9  C   UNK N   1      35.511  12.564   9.807  0.00  0.00     0.002 C 
BRANCH   9  10
HETATM   10  C   UNK N   1      34.953  13.475   8.719  0.00  0.00     0.010 C 
BRANCH  10  11
HETATM   11  C   UNK N   1      33.478  13.764   8.950  0.00  0.00     0.110 C 
BRANCH  11  12
HETATM   12  C   UNK N   1      33.240  15.056   9.677  0.00  0.00     0.139 C 
HETATM   13  O   UNK N   1      33.313  16.130   9.097  0.00  0.00    -0.650 OA
BRANCH  12  14
HETATM   14  O   UNK N   1      32.947  15.030  10.989  0.00  0.00    -0.776 OA
HETATM   15  H   UNK N   1      33.137  15.763  11.541  0.00  0.00     0.167 HD
ENDBRANCH  12  14
ENDBRANCH  11  12
ENDBRANCH  10  11
ENDBRANCH   9  10
ENDBRANCH   8   9
ENDBRANCH   7   8
ENDBRANCH   3   7
BRANCH   1  16
HETATM   16  C   UNK N   1      35.705  12.991  16.055  0.00  0.00     0.086 C 
HETATM   17  C   UNK N   1      36.010  11.546  16.448  0.00  0.00     0.025 C 
HETATM   18  C   UNK N   1      35.150  11.117  17.637  0.00  0.00     0.002 C 
HETATM   19  C   UNK N   1      35.365  12.055  18.823  0.00  0.00     0.000 C 
HETATM   20  C   UNK N   1      35.042  13.489  18.419  0.00  0.00     0.002 C 
HETATM   21  C   UNK N   1      35.942  13.905  17.263  0.00  0.00     0.025 C 
ENDBRANCH   1  16
TORSDOF 8
ENDMDL
