REMARK  9 active torsions:
REMARK  status: ('A' for Active; 'I' for Inactive)
REMARK    1  A    between atoms: C_1  and  N_2 
REMARK       I    between atoms: N_2  and  C_3 
REMARK       I    between atoms: C_3  and  N_4 
REMARK    2  A    between atoms: N_4  and  C_5 
REMARK    3  A    between atoms: C_5  and  C_6 
REMARK    4  A    between atoms: C_6  and  C_7 
REMARK    5  A    between atoms: C_7  and  C_8 
REMARK    6  A    between atoms: C_8  and  C_9 
REMARK    7  A    between atoms: C_9  and  C_11 
REMARK    8  A    between atoms: C_11  and  C_12 
REMARK    9  A    between atoms: C_12  and  O_13 
ROOT
HETATM    1  N   UNK N   1      -3.267  -0.741   0.136  0.00  0.00    -0.339 N 
HETATM    2  C   UNK N   1      -1.999  -0.314  -0.093  0.00  0.00     0.316 C 
HETATM    3  N   UNK N   1      -0.948  -1.096   0.255  0.00  0.00    -0.343 N 
HETATM    4  O   UNK N   1      -1.803   0.772  -0.624  0.00  0.00    -0.247 OA
HETATM    5  H   UNK N   1      -3.406  -1.612   0.573  0.00  0.00     0.164 HD
HETATM    6  H   UNK N   1      -1.104  -1.973   0.675  0.00  0.00     0.164 HD
ENDROOT
BRANCH   3   7
HETATM    7  C   UNK N   1       0.400  -0.644   0.012  0.00  0.00     0.124 C 
BRANCH   7   8
HETATM    8  C   UNK N   1       1.419  -1.737   0.248  0.00  0.00     0.020 C 
BRANCH   8   9
HETATM    9  C   UNK N   1       2.628  -1.389  -0.597  0.00  0.00     0.002 C 
BRANCH   9  10
HETATM   10  C   UNK N   1       3.927  -1.657   0.134  0.00  0.00     0.001 C 
BRANCH  10  11
HETATM   11  C   UNK N   1       4.764  -0.395   0.066  0.00  0.00     0.010 C 
BRANCH  11  12
HETATM   12  C   UNK N   1       6.249  -0.719   0.129  0.00  0.00     0.110 C 
BRANCH  12  13
HETATM   13  C   UNK N   1       7.100   0.517   0.036  0.00  0.00     0.139 C 
HETATM   14  O   UNK N   1       6.594   1.628  -0.030  0.00  0.00    -0.650 OA
BRANCH  13  15
HETATM   15  O   UNK N   1       8.440   0.398   0.025  0.00  0.00    -0.776 OA
HETATM   16  H   UNK N   1       8.835  -0.452   0.018  0.00  0.00     0.167 HD
ENDBRANCH  13  15
ENDBRANCH  12  13
ENDBRANCH  11  12
ENDBRANCH  10  11
ENDBRANCH   9  10
ENDBRANCH   8   9
ENDBRANCH   7   8
ENDBRANCH   3   7
BRANCH   1  17
HETATM   17  C   UNK N   1      -4.420   0.049  -0.244  0.00  0.00     0.086 C 
HETATM   18  C   UNK N   1      -5.706  -0.720   0.046  0.00  0.00     0.025 C 
HETATM   19  C   UNK N   1      -6.916   0.107  -0.388  0.00  0.00     0.002 C 
HETATM   20  C   UNK N   1      -6.929   1.457   0.328  0.00  0.00     0.000 C 
HETATM   21  C   UNK N   1      -5.634   2.216   0.053  0.00  0.00     0.002 C 
HETATM   22  C   UNK N   1      -4.440   1.384   0.506  0.00  0.00     0.025 C 
ENDBRANCH   1  17
TORSDOF 9
