MODEL 1
REMARK VINA RESULT:      -6.2      0.000      0.000
REMARK  9 active torsions:
REMARK  status: ('A' for Active; 'I' for Inactive)
REMARK    1  A    between atoms: C_1  and  N_2 
REMARK       I    between atoms: N_2  and  C_3 
REMARK       I    between atoms: C_3  and  N_4 
REMARK    2  A    between atoms: N_4  and  C_5 
REMARK    3  A    between atoms: C_5  and  C_6 
REMARK    4  A    between atoms: C_6  and  C_7 
REMARK    5  A    between atoms: C_7  and  C_8 
REMARK    6  A    between atoms: C_8  and  C_9 
REMARK    7  A    between atoms: C_9  and  C_11 
REMARK    8  A    between atoms: C_11  and  C_12 
REMARK    9  A    between atoms: C_12  and  O_13 
ROOT
HETATM    1  N   UNK N   1      36.722  13.035  14.286  0.00  0.00    -0.339 N 
HETATM    2  C   UNK N   1      36.186  13.577  13.163  0.00  0.00     0.316 C 
HETATM    3  N   UNK N   1      36.993  13.955  12.142  0.00  0.00    -0.343 N 
HETATM    4  O   UNK N   1      34.973  13.714  13.066  0.00  0.00    -0.247 OA
HETATM    5  H   UNK N   1      37.699  12.941  14.352  0.00  0.00     0.164 HD
HETATM    6  H   UNK N   1      37.969  13.838  12.216  0.00  0.00     0.164 HD
ENDROOT
BRANCH   3   7
HETATM    7  C   UNK N   1      36.426  14.531  10.948  0.00  0.00     0.124 C 
BRANCH   7   8
HETATM    8  C   UNK N   1      36.215  16.024  11.079  0.00  0.00     0.020 C 
BRANCH   8   9
HETATM    9  C   UNK N   1      34.866  16.325  10.458  0.00  0.00     0.002 C 
BRANCH   9  10
HETATM   10  C   UNK N   1      34.457  15.270   9.452  0.00  0.00     0.001 C 
BRANCH  10  11
HETATM   11  C   UNK N   1      33.570  15.936   8.419  0.00  0.00     0.010 C 
BRANCH  11  12
HETATM   12  C   UNK N   1      33.449  17.430   8.683  0.00  0.00     0.110 C 
BRANCH  12  13
HETATM   13  C   UNK N   1      34.404  18.230   7.841  0.00  0.00     0.139 C 
HETATM   14  O   UNK N   1      34.444  18.091   6.627  0.00  0.00    -0.650 OA
BRANCH  13  15
HETATM   15  O   UNK N   1      35.228  19.112   8.435  0.00  0.00    -0.776 OA
HETATM   16  H   UNK N   1      35.917  19.514   7.942  0.00  0.00     0.167 HD
ENDBRANCH  13  15
ENDBRANCH  12  13
ENDBRANCH  11  12
ENDBRANCH  10  11
ENDBRANCH   9  10
ENDBRANCH   8   9
ENDBRANCH   7   8
ENDBRANCH   3   7
BRANCH   1  17
HETATM   17  C   UNK N   1      35.895  12.591  15.390  0.00  0.00     0.086 C 
HETATM   18  C   UNK N   1      36.373  11.232  15.895  0.00  0.00     0.025 C 
HETATM   19  C   UNK N   1      35.476  10.757  17.037  0.00  0.00     0.002 C 
HETATM   20  C   UNK N   1      35.470  11.776  18.176  0.00  0.00     0.000 C 
HETATM   21  C   UNK N   1      35.011  13.139  17.665  0.00  0.00     0.002 C 
HETATM   22  C   UNK N   1      35.926  13.604  16.538  0.00  0.00     0.025 C 
ENDBRANCH   1  17
TORSDOF 9
ENDMDL
MODEL 2
REMARK VINA RESULT:      -5.7     13.059     14.863
REMARK  9 active torsions:
REMARK  status: ('A' for Active; 'I' for Inactive)
REMARK    1  A    between atoms: C_1  and  N_2 
REMARK       I    between atoms: N_2  and  C_3 
REMARK       I    between atoms: C_3  and  N_4 
REMARK    2  A    between atoms: N_4  and  C_5 
REMARK    3  A    between atoms: C_5  and  C_6 
REMARK    4  A    between atoms: C_6  and  C_7 
REMARK    5  A    between atoms: C_7  and  C_8 
REMARK    6  A    between atoms: C_8  and  C_9 
REMARK    7  A    between atoms: C_9  and  C_11 
REMARK    8  A    between atoms: C_11  and  C_12 
REMARK    9  A    between atoms: C_12  and  O_13 
ROOT
HETATM    1  N   UNK N   1      22.341  14.151   8.009  0.00  0.00    -0.339 N 
HETATM    2  C   UNK N   1      21.562  15.245   7.810  0.00  0.00     0.316 C 
HETATM    3  N   UNK N   1      21.322  15.685   6.550  0.00  0.00    -0.343 N 
HETATM    4  O   UNK N   1      21.065  15.828   8.765  0.00  0.00    -0.247 OA
HETATM    5  H   UNK N   1      22.740  13.701   7.230  0.00  0.00     0.164 HD
HETATM    6  H   UNK N   1      21.714  15.212   5.780  0.00  0.00     0.164 HD
ENDROOT
BRANCH   3   7
HETATM    7  C   UNK N   1      20.494  16.846   6.336  0.00  0.00     0.124 C 
BRANCH   7   8
HETATM    8  C   UNK N   1      21.311  18.113   6.205  0.00  0.00     0.020 C 
BRANCH   8   9
HETATM    9  C   UNK N   1      22.486  17.777   5.308  0.00  0.00     0.002 C 
BRANCH   9  10
HETATM   10  C   UNK N   1      22.583  18.719   4.126  0.00  0.00     0.001 C 
BRANCH  10  11
HETATM   11  C   UNK N   1      21.209  19.316   3.897  0.00  0.00     0.010 C 
BRANCH  11  12
HETATM   12  C   UNK N   1      20.850  19.311   2.418  0.00  0.00     0.110 C 
BRANCH  12  13
HETATM   13  C   UNK N   1      21.210  20.606   1.746  0.00  0.00     0.139 C 
HETATM   14  O   UNK N   1      21.223  20.703   0.527  0.00  0.00    -0.650 OA
BRANCH  13  15
HETATM   15  O   UNK N   1      21.522  21.677   2.498  0.00  0.00    -0.776 OA
HETATM   16  H   UNK N   1      21.232  21.726   3.388  0.00  0.00     0.167 HD
ENDBRANCH  13  15
ENDBRANCH  12  13
ENDBRANCH  11  12
ENDBRANCH  10  11
ENDBRANCH   9  10
ENDBRANCH   8   9
ENDBRANCH   7   8
ENDBRANCH   3   7
BRANCH   1  17
HETATM   17  C   UNK N   1      22.601  13.630   9.335  0.00  0.00     0.086 C 
HETATM   18  C   UNK N   1      21.474  12.696   9.767  0.00  0.00     0.025 C 
HETATM   19  C   UNK N   1      21.740  12.177  11.179  0.00  0.00     0.002 C 
HETATM   20  C   UNK N   1      23.084  11.453  11.241  0.00  0.00     0.000 C 
HETATM   21  C   UNK N   1      24.208  12.382  10.791  0.00  0.00     0.002 C 
HETATM   22  C   UNK N   1      23.934  12.878   9.376  0.00  0.00     0.025 C 
ENDBRANCH   1  17
TORSDOF 9
ENDMDL
MODEL 3
REMARK VINA RESULT:      -5.7      3.119      4.098
REMARK  9 active torsions:
REMARK  status: ('A' for Active; 'I' for Inactive)
REMARK    1  A    between atoms: C_1  and  N_2 
REMARK       I    between atoms: N_2  and  C_3 
REMARK       I    between atoms: C_3  and  N_4 
REMARK    2  A    between atoms: N_4  and  C_5 
REMARK    3  A    between atoms: C_5  and  C_6 
REMARK    4  A    between atoms: C_6  and  C_7 
REMARK    5  A    between atoms: C_7  and  C_8 
REMARK    6  A    between atoms: C_8  and  C_9 
REMARK    7  A    between atoms: C_9  and  C_11 
REMARK    8  A    between atoms: C_11  and  C_12 
REMARK    9  A    between atoms: C_12  and  O_13 
ROOT
HETATM    1  N   UNK N   1      36.148  15.096  11.940  0.00  0.00    -0.339 N 
HETATM    2  C   UNK N   1      35.065  15.413  11.184  0.00  0.00     0.316 C 
HETATM    3  N   UNK N   1      35.159  16.380  10.239  0.00  0.00    -0.343 N 
HETATM    4  O   UNK N   1      34.007  14.818  11.347  0.00  0.00    -0.247 OA
HETATM    5  H   UNK N   1      36.987  15.592  11.802  0.00  0.00     0.164 HD
HETATM    6  H   UNK N   1      36.011  16.854  10.102  0.00  0.00     0.164 HD
ENDROOT
BRANCH   3   7
HETATM    7  C   UNK N   1      34.010  16.718   9.435  0.00  0.00     0.124 C 
BRANCH   7   8
HETATM    8  C   UNK N   1      34.292  17.865   8.490  0.00  0.00     0.020 C 
BRANCH   8   9
HETATM    9  C   UNK N   1      33.125  17.926   7.526  0.00  0.00     0.002 C 
BRANCH   9  10
HETATM   10  C   UNK N   1      32.042  16.930   7.882  0.00  0.00     0.001 C 
BRANCH  10  11
HETATM   11  C   UNK N   1      30.714  17.515   7.444  0.00  0.00     0.010 C 
BRANCH  11  12
HETATM   12  C   UNK N   1      29.905  17.992   8.641  0.00  0.00     0.110 C 
BRANCH  12  13
HETATM   13  C   UNK N   1      28.445  17.663   8.502  0.00  0.00     0.139 C 
HETATM   14  O   UNK N   1      28.040  16.965   7.583  0.00  0.00    -0.650 OA
BRANCH  13  15
HETATM   15  O   UNK N   1      27.569  18.144   9.403  0.00  0.00    -0.776 OA
HETATM   16  H   UNK N   1      27.879  18.607  10.157  0.00  0.00     0.167 HD
ENDBRANCH  13  15
ENDBRANCH  12  13
ENDBRANCH  11  12
ENDBRANCH  10  11
ENDBRANCH   9  10
ENDBRANCH   8   9
ENDBRANCH   7   8
ENDBRANCH   3   7
BRANCH   1  17
HETATM   17  C   UNK N   1      36.101  14.052  12.942  0.00  0.00     0.086 C 
HETATM   18  C   UNK N   1      36.959  12.866  12.508  0.00  0.00     0.025 C 
HETATM   19  C   UNK N   1      36.878  11.755  13.555  0.00  0.00     0.002 C 
HETATM   20  C   UNK N   1      37.331  12.270  14.921  0.00  0.00     0.000 C 
HETATM   21  C   UNK N   1      36.486  13.468  15.344  0.00  0.00     0.002 C 
HETATM   22  C   UNK N   1      36.591  14.571  14.297  0.00  0.00     0.025 C 
ENDBRANCH   1  17
TORSDOF 9
ENDMDL
MODEL 4
REMARK VINA RESULT:      -5.6     18.892     21.901
REMARK  9 active torsions:
REMARK  status: ('A' for Active; 'I' for Inactive)
REMARK    1  A    between atoms: C_1  and  N_2 
REMARK       I    between atoms: N_2  and  C_3 
REMARK       I    between atoms: C_3  and  N_4 
REMARK    2  A    between atoms: N_4  and  C_5 
REMARK    3  A    between atoms: C_5  and  C_6 
REMARK    4  A    between atoms: C_6  and  C_7 
REMARK    5  A    between atoms: C_7  and  C_8 
REMARK    6  A    between atoms: C_8  and  C_9 
REMARK    7  A    between atoms: C_9  and  C_11 
REMARK    8  A    between atoms: C_11  and  C_12 
REMARK    9  A    between atoms: C_12  and  O_13 
ROOT
HETATM    1  N   UNK N   1      28.916  23.501  -5.895  0.00  0.00    -0.339 N 
HETATM    2  C   UNK N   1      27.637  23.936  -6.023  0.00  0.00     0.316 C 
HETATM    3  N   UNK N   1      27.230  24.514  -7.179  0.00  0.00    -0.343 N 
HETATM    4  O   UNK N   1      26.845  23.796  -5.098  0.00  0.00    -0.247 OA
HETATM    5  H   UNK N   1      29.541  23.631  -6.644  0.00  0.00     0.164 HD
HETATM    6  H   UNK N   1      27.863  24.620  -7.926  0.00  0.00     0.164 HD
ENDROOT
BRANCH   3   7
HETATM    7  C   UNK N   1      25.870  24.976  -7.316  0.00  0.00     0.124 C 
BRANCH   7   8
HETATM    8  C   UNK N   1      25.761  26.478  -7.171  0.00  0.00     0.020 C 
BRANCH   8   9
HETATM    9  C   UNK N   1      27.064  27.057  -7.684  0.00  0.00     0.002 C 
BRANCH   9  10
HETATM   10  C   UNK N   1      27.657  28.062  -6.718  0.00  0.00     0.001 C 
BRANCH  10  11
HETATM   11  C   UNK N   1      26.696  28.208  -5.555  0.00  0.00     0.010 C 
BRANCH  11  12
HETATM   12  C   UNK N   1      27.336  27.743  -4.255  0.00  0.00     0.110 C 
BRANCH  12  13
HETATM   13  C   UNK N   1      26.334  27.114  -3.328  0.00  0.00     0.139 C 
HETATM   14  O   UNK N   1      25.489  27.790  -2.759  0.00  0.00    -0.650 OA
BRANCH  13  15
HETATM   15  O   UNK N   1      26.369  25.785  -3.120  0.00  0.00    -0.776 OA
HETATM   16  H   UNK N   1      26.567  25.205  -3.829  0.00  0.00     0.167 HD
ENDBRANCH  13  15
ENDBRANCH  12  13
ENDBRANCH  11  12
ENDBRANCH  10  11
ENDBRANCH   9  10
ENDBRANCH   8   9
ENDBRANCH   7   8
ENDBRANCH   3   7
BRANCH   1  17
HETATM   17  C   UNK N   1      29.387  22.853  -4.688  0.00  0.00     0.086 C 
HETATM   18  C   UNK N   1      30.229  21.630  -5.040  0.00  0.00     0.025 C 
HETATM   19  C   UNK N   1      30.694  20.934  -3.761  0.00  0.00     0.002 C 
HETATM   20  C   UNK N   1      31.493  21.897  -2.885  0.00  0.00     0.000 C 
HETATM   21  C   UNK N   1      30.657  23.129  -2.551  0.00  0.00     0.002 C 
HETATM   22  C   UNK N   1      30.215  23.819  -3.836  0.00  0.00     0.025 C 
ENDBRANCH   1  17
TORSDOF 9
ENDMDL
MODEL 5
REMARK VINA RESULT:      -5.6      2.574      8.673
REMARK  9 active torsions:
REMARK  status: ('A' for Active; 'I' for Inactive)
REMARK    1  A    between atoms: C_1  and  N_2 
REMARK       I    between atoms: N_2  and  C_3 
REMARK       I    between atoms: C_3  and  N_4 
REMARK    2  A    between atoms: N_4  and  C_5 
REMARK    3  A    between atoms: C_5  and  C_6 
REMARK    4  A    between atoms: C_6  and  C_7 
REMARK    5  A    between atoms: C_7  and  C_8 
REMARK    6  A    between atoms: C_8  and  C_9 
REMARK    7  A    between atoms: C_9  and  C_11 
REMARK    8  A    between atoms: C_11  and  C_12 
REMARK    9  A    between atoms: C_12  and  O_13 
ROOT
HETATM    1  N   UNK N   1      33.649  14.864   9.815  0.00  0.00    -0.339 N 
HETATM    2  C   UNK N   1      34.416  14.863  10.935  0.00  0.00     0.316 C 
HETATM    3  N   UNK N   1      34.582  13.718  11.641  0.00  0.00    -0.343 N 
HETATM    4  O   UNK N   1      34.968  15.893  11.302  0.00  0.00    -0.247 OA
HETATM    5  H   UNK N   1      33.204  14.030   9.540  0.00  0.00     0.164 HD
HETATM    6  H   UNK N   1      34.145  12.888  11.343  0.00  0.00     0.164 HD
ENDROOT
BRANCH   3   7
HETATM    7  C   UNK N   1      35.397  13.715  12.831  0.00  0.00     0.124 C 
BRANCH   7   8
HETATM    8  C   UNK N   1      36.561  12.755  12.722  0.00  0.00     0.020 C 
BRANCH   8   9
HETATM    9  C   UNK N   1      36.951  12.388  14.140  0.00  0.00     0.002 C 
BRANCH   9  10
HETATM   10  C   UNK N   1      36.371  13.351  15.155  0.00  0.00     0.001 C 
BRANCH  10  11
HETATM   11  C   UNK N   1      35.838  12.533  16.315  0.00  0.00     0.010 C 
BRANCH  11  12
HETATM   12  C   UNK N   1      34.749  13.287  17.062  0.00  0.00     0.110 C 
BRANCH  12  13
HETATM   13  C   UNK N   1      35.265  13.920  18.325  0.00  0.00     0.139 C 
HETATM   14  O   UNK N   1      35.022  13.432  19.419  0.00  0.00    -0.650 OA
BRANCH  13  15
HETATM   15  O   UNK N   1      36.006  15.040  18.248  0.00  0.00    -0.776 OA
HETATM   16  H   UNK N   1      36.935  14.981  18.137  0.00  0.00     0.167 HD
ENDBRANCH  13  15
ENDBRANCH  12  13
ENDBRANCH  11  12
ENDBRANCH  10  11
ENDBRANCH   9  10
ENDBRANCH   8   9
ENDBRANCH   7   8
ENDBRANCH   3   7
BRANCH   1  17
HETATM   17  C   UNK N   1      33.466  16.057   9.015  0.00  0.00     0.086 C 
HETATM   18  C   UNK N   1      34.336  15.992   7.763  0.00  0.00     0.025 C 
HETATM   19  C   UNK N   1      34.162  17.269   6.941  0.00  0.00     0.002 C 
HETATM   20  C   UNK N   1      32.696  17.468   6.561  0.00  0.00     0.000 C 
HETATM   21  C   UNK N   1      31.825  17.513   7.813  0.00  0.00     0.002 C 
HETATM   22  C   UNK N   1      31.999  16.227   8.612  0.00  0.00     0.025 C 
ENDBRANCH   1  17
TORSDOF 9
ENDMDL
MODEL 6
REMARK VINA RESULT:      -5.5     18.944     22.021
REMARK  9 active torsions:
REMARK  status: ('A' for Active; 'I' for Inactive)
REMARK    1  A    between atoms: C_1  and  N_2 
REMARK       I    between atoms: N_2  and  C_3 
REMARK       I    between atoms: C_3  and  N_4 
REMARK    2  A    between atoms: N_4  and  C_5 
REMARK    3  A    between atoms: C_5  and  C_6 
REMARK    4  A    between atoms: C_6  and  C_7 
REMARK    5  A    between atoms: C_7  and  C_8 
REMARK    6  A    between atoms: C_8  and  C_9 
REMARK    7  A    between atoms: C_9  and  C_11 
REMARK    8  A    between atoms: C_11  and  C_12 
REMARK    9  A    between atoms: C_12  and  O_13 
ROOT
HETATM    1  N   UNK N   1      28.942  24.843  -4.033  0.00  0.00    -0.339 N 
HETATM    2  C   UNK N   1      27.721  25.279  -3.631  0.00  0.00     0.316 C 
HETATM    3  N   UNK N   1      27.435  26.604  -3.650  0.00  0.00    -0.343 N 
HETATM    4  O   UNK N   1      26.873  24.476  -3.262  0.00  0.00    -0.247 OA
HETATM    5  H   UNK N   1      29.615  25.503  -4.317  0.00  0.00     0.164 HD
HETATM    6  H   UNK N   1      28.113  27.250  -3.954  0.00  0.00     0.164 HD
ENDROOT
BRANCH   3   7
HETATM    7  C   UNK N   1      26.138  27.069  -3.223  0.00  0.00     0.124 C 
BRANCH   7   8
HETATM    8  C   UNK N   1      25.655  28.244  -4.044  0.00  0.00     0.020 C 
BRANCH   8   9
HETATM    9  C   UNK N   1      25.962  27.914  -5.491  0.00  0.00     0.002 C 
BRANCH   9  10
HETATM   10  C   UNK N   1      25.051  26.831  -6.031  0.00  0.00     0.001 C 
BRANCH  10  11
HETATM   11  C   UNK N   1      25.828  26.052  -7.073  0.00  0.00     0.010 C 
BRANCH  11  12
HETATM   12  C   UNK N   1      25.773  24.557  -6.792  0.00  0.00     0.110 C 
BRANCH  12  13
HETATM   13  C   UNK N   1      25.706  23.748  -8.058  0.00  0.00     0.139 C 
HETATM   14  O   UNK N   1      24.641  23.549  -8.624  0.00  0.00    -0.650 OA
BRANCH  13  15
HETATM   15  O   UNK N   1      26.837  23.235  -8.576  0.00  0.00    -0.776 OA
HETATM   16  H   UNK N   1      26.878  23.016  -9.486  0.00  0.00     0.167 HD
ENDBRANCH  13  15
ENDBRANCH  12  13
ENDBRANCH  11  12
ENDBRANCH  10  11
ENDBRANCH   9  10
ENDBRANCH   8   9
ENDBRANCH   7   8
ENDBRANCH   3   7
BRANCH   1  17
HETATM   17  C   UNK N   1      29.282  23.436  -4.056  0.00  0.00     0.086 C 
HETATM   18  C   UNK N   1      29.456  22.957  -5.494  0.00  0.00     0.025 C 
HETATM   19  C   UNK N   1      29.782  21.464  -5.510  0.00  0.00     0.002 C 
HETATM   20  C   UNK N   1      31.045  21.181  -4.698  0.00  0.00     0.000 C 
HETATM   21  C   UNK N   1      30.876  21.678  -3.265  0.00  0.00     0.002 C 
HETATM   22  C   UNK N   1      30.568  23.170  -3.267  0.00  0.00     0.025 C 
ENDBRANCH   1  17
TORSDOF 9
ENDMDL
MODEL 7
REMARK VINA RESULT:      -5.4     13.771     15.517
REMARK  9 active torsions:
REMARK  status: ('A' for Active; 'I' for Inactive)
REMARK    1  A    between atoms: C_1  and  N_2 
REMARK       I    between atoms: N_2  and  C_3 
REMARK       I    between atoms: C_3  and  N_4 
REMARK    2  A    between atoms: N_4  and  C_5 
REMARK    3  A    between atoms: C_5  and  C_6 
REMARK    4  A    between atoms: C_6  and  C_7 
REMARK    5  A    between atoms: C_7  and  C_8 
REMARK    6  A    between atoms: C_8  and  C_9 
REMARK    7  A    between atoms: C_9  and  C_11 
REMARK    8  A    between atoms: C_11  and  C_12 
REMARK    9  A    between atoms: C_12  and  O_13 
ROOT
HETATM    1  N   UNK N   1      21.776  14.351   8.300  0.00  0.00    -0.339 N 
HETATM    2  C   UNK N   1      21.353  14.182   7.021  0.00  0.00     0.316 C 
HETATM    3  N   UNK N   1      21.148  15.261   6.228  0.00  0.00    -0.343 N 
HETATM    4  O   UNK N   1      21.167  13.055   6.580  0.00  0.00    -0.247 OA
HETATM    5  H   UNK N   1      21.911  15.264   8.642  0.00  0.00     0.164 HD
HETATM    6  H   UNK N   1      21.305  16.168   6.579  0.00  0.00     0.164 HD
ENDROOT
BRANCH   3   7
HETATM    7  C   UNK N   1      20.699  15.084   4.869  0.00  0.00     0.124 C 
BRANCH   7   8
HETATM    8  C   UNK N   1      20.095  16.348   4.298  0.00  0.00     0.020 C 
BRANCH   8   9
HETATM    9  C   UNK N   1      20.877  16.670   3.041  0.00  0.00     0.002 C 
BRANCH   9  10
HETATM   10  C   UNK N   1      19.967  16.943   1.861  0.00  0.00     0.001 C 
BRANCH  10  11
HETATM   11  C   UNK N   1      20.420  18.239   1.219  0.00  0.00     0.010 C 
BRANCH  11  12
HETATM   12  C   UNK N   1      20.425  19.377   2.228  0.00  0.00     0.110 C 
BRANCH  12  13
HETATM   13  C   UNK N   1      21.084  20.613   1.680  0.00  0.00     0.139 C 
HETATM   14  O   UNK N   1      21.299  20.736   0.483  0.00  0.00    -0.650 OA
BRANCH  13  15
HETATM   15  O   UNK N   1      21.443  21.599   2.522  0.00  0.00    -0.776 OA
HETATM   16  H   UNK N   1      21.715  22.429   2.182  0.00  0.00     0.167 HD
ENDBRANCH  13  15
ENDBRANCH  12  13
ENDBRANCH  11  12
ENDBRANCH  10  11
ENDBRANCH   9  10
ENDBRANCH   8   9
ENDBRANCH   7   8
ENDBRANCH   3   7
BRANCH   1  17
HETATM   17  C   UNK N   1      22.034  13.225   9.175  0.00  0.00     0.086 C 
HETATM   18  C   UNK N   1      23.490  13.234   9.632  0.00  0.00     0.025 C 
HETATM   19  C   UNK N   1      23.762  12.026  10.528  0.00  0.00     0.002 C 
HETATM   20  C   UNK N   1      22.825  12.030  11.734  0.00  0.00     0.000 C 
HETATM   21  C   UNK N   1      21.369  12.041  11.276  0.00  0.00     0.002 C 
HETATM   22  C   UNK N   1      21.113  13.260  10.397  0.00  0.00     0.025 C 
ENDBRANCH   1  17
TORSDOF 9
ENDMDL
MODEL 8
REMARK VINA RESULT:      -5.4     18.626     21.984
REMARK  9 active torsions:
REMARK  status: ('A' for Active; 'I' for Inactive)
REMARK    1  A    between atoms: C_1  and  N_2 
REMARK       I    between atoms: N_2  and  C_3 
REMARK       I    between atoms: C_3  and  N_4 
REMARK    2  A    between atoms: N_4  and  C_5 
REMARK    3  A    between atoms: C_5  and  C_6 
REMARK    4  A    between atoms: C_6  and  C_7 
REMARK    5  A    between atoms: C_7  and  C_8 
REMARK    6  A    between atoms: C_8  and  C_9 
REMARK    7  A    between atoms: C_9  and  C_11 
REMARK    8  A    between atoms: C_11  and  C_12 
REMARK    9  A    between atoms: C_12  and  O_13 
ROOT
HETATM    1  N   UNK N   1      28.051  24.256  -5.866  0.00  0.00    -0.339 N 
HETATM    2  C   UNK N   1      28.116  23.206  -6.724  0.00  0.00     0.316 C 
HETATM    3  N   UNK N   1      28.915  22.148  -6.440  0.00  0.00    -0.343 N 
HETATM    4  O   UNK N   1      27.445  23.207  -7.748  0.00  0.00    -0.247 OA
HETATM    5  H   UNK N   1      28.605  24.243  -5.053  0.00  0.00     0.164 HD
HETATM    6  H   UNK N   1      29.449  22.142  -5.612  0.00  0.00     0.164 HD
ENDROOT
BRANCH   3   7
HETATM    7  C   UNK N   1      28.985  21.031  -7.349  0.00  0.00     0.124 C 
BRANCH   7   8
HETATM    8  C   UNK N   1      30.045  20.031  -6.943  0.00  0.00     0.020 C 
BRANCH   8   9
HETATM    9  C   UNK N   1      31.117  20.812  -6.210  0.00  0.00     0.002 C 
BRANCH   9  10
HETATM   10  C   UNK N   1      31.557  20.115  -4.940  0.00  0.00     0.001 C 
BRANCH  10  11
HETATM   11  C   UNK N   1      31.665  21.164  -3.851  0.00  0.00     0.010 C 
BRANCH  11  12
HETATM   12  C   UNK N   1      30.301  21.470  -3.250  0.00  0.00     0.110 C 
BRANCH  12  13
HETATM   13  C   UNK N   1      30.247  22.847  -2.649  0.00  0.00     0.139 C 
HETATM   14  O   UNK N   1      30.519  23.033  -1.472  0.00  0.00    -0.650 OA
BRANCH  13  15
HETATM   15  O   UNK N   1      29.892  23.892  -3.419  0.00  0.00    -0.776 OA
HETATM   16  H   UNK N   1      29.128  24.392  -3.207  0.00  0.00     0.167 HD
ENDBRANCH  13  15
ENDBRANCH  12  13
ENDBRANCH  11  12
ENDBRANCH  10  11
ENDBRANCH   9  10
ENDBRANCH   8   9
ENDBRANCH   7   8
ENDBRANCH   3   7
BRANCH   1  17
HETATM   17  C   UNK N   1      27.191  25.394  -6.116  0.00  0.00     0.086 C 
HETATM   18  C   UNK N   1      25.888  25.253  -5.334  0.00  0.00     0.025 C 
HETATM   19  C   UNK N   1      24.973  26.442  -5.628  0.00  0.00     0.002 C 
HETATM   20  C   UNK N   1      25.668  27.756  -5.273  0.00  0.00     0.000 C 
HETATM   21  C   UNK N   1      26.980  27.886  -6.042  0.00  0.00     0.002 C 
HETATM   22  C   UNK N   1      27.886  26.702  -5.724  0.00  0.00     0.025 C 
ENDBRANCH   1  17
TORSDOF 9
ENDMDL
MODEL 9
REMARK VINA RESULT:      -5.4      2.640      3.876
REMARK  9 active torsions:
REMARK  status: ('A' for Active; 'I' for Inactive)
REMARK    1  A    between atoms: C_1  and  N_2 
REMARK       I    between atoms: N_2  and  C_3 
REMARK       I    between atoms: C_3  and  N_4 
REMARK    2  A    between atoms: N_4  and  C_5 
REMARK    3  A    between atoms: C_5  and  C_6 
REMARK    4  A    between atoms: C_6  and  C_7 
REMARK    5  A    between atoms: C_7  and  C_8 
REMARK    6  A    between atoms: C_8  and  C_9 
REMARK    7  A    between atoms: C_9  and  C_11 
REMARK    8  A    between atoms: C_11  and  C_12 
REMARK    9  A    between atoms: C_12  and  O_13 
ROOT
HETATM    1  N   UNK N   1      36.264  14.960  11.580  0.00  0.00    -0.339 N 
HETATM    2  C   UNK N   1      35.181  15.462  10.933  0.00  0.00     0.316 C 
HETATM    3  N   UNK N   1      35.345  16.387   9.956  0.00  0.00    -0.343 N 
HETATM    4  O   UNK N   1      34.057  15.071  11.223  0.00  0.00    -0.247 OA
HETATM    5  H   UNK N   1      37.159  15.293  11.342  0.00  0.00     0.164 HD
HETATM    6  H   UNK N   1      36.248  16.696   9.717  0.00  0.00     0.164 HD
ENDROOT
BRANCH   3   7
HETATM    7  C   UNK N   1      34.195  16.921   9.267  0.00  0.00     0.124 C 
BRANCH   7   8
HETATM    8  C   UNK N   1      34.548  18.117   8.411  0.00  0.00     0.020 C 
BRANCH   8   9
HETATM    9  C   UNK N   1      33.930  17.871   7.050  0.00  0.00     0.002 C 
BRANCH   9  10
HETATM   10  C   UNK N   1      34.100  16.434   6.601  0.00  0.00     0.001 C 
BRANCH  10  11
HETATM   11  C   UNK N   1      32.975  16.115   5.636  0.00  0.00     0.010 C 
BRANCH  11  12
HETATM   12  C   UNK N   1      32.701  17.289   4.708  0.00  0.00     0.110 C 
BRANCH  12  13
HETATM   13  C   UNK N   1      32.684  16.873   3.263  0.00  0.00     0.139 C 
HETATM   14  O   UNK N   1      33.502  16.076   2.826  0.00  0.00    -0.650 OA
BRANCH  13  15
HETATM   15  O   UNK N   1      31.752  17.385   2.439  0.00  0.00    -0.776 OA
HETATM   16  H   UNK N   1      32.006  17.741   1.609  0.00  0.00     0.167 HD
ENDBRANCH  13  15
ENDBRANCH  12  13
ENDBRANCH  11  12
ENDBRANCH  10  11
ENDBRANCH   9  10
ENDBRANCH   8   9
ENDBRANCH   7   8
ENDBRANCH   3   7
BRANCH   1  17
HETATM   17  C   UNK N   1      36.138  13.951  12.611  0.00  0.00     0.086 C 
HETATM   18  C   UNK N   1      37.084  12.787  12.328  0.00  0.00     0.025 C 
HETATM   19  C   UNK N   1      36.922  11.712  13.403  0.00  0.00     0.002 C 
HETATM   20  C   UNK N   1      37.192  12.293  14.790  0.00  0.00     0.000 C 
HETATM   21  C   UNK N   1      36.259  13.469  15.063  0.00  0.00     0.002 C 
HETATM   22  C   UNK N   1      36.445  14.538  13.992  0.00  0.00     0.025 C 
ENDBRANCH   1  17
TORSDOF 9
ENDMDL
