REMARK  12 active torsions:
REMARK  status: ('A' for Active; 'I' for Inactive)
REMARK    1  A    between atoms: C_2  and  N_3 
REMARK    2  A    between atoms: C_2  and  N_14 
REMARK    3  A    between atoms: C_5  and  O_6 
REMARK    4  A    between atoms: C_7  and  O_8 
REMARK    5  A    between atoms: C_9  and  O_10 
REMARK    6  A    between atoms: N_14  and  C_15 
REMARK    7  A    between atoms: C_15  and  C_16 
REMARK    8  A    between atoms: C_16  and  C_17 
REMARK    9  A    between atoms: C_17  and  C_18 
REMARK   10  A    between atoms: C_18  and  C_19 
REMARK   11  A    between atoms: C_19  and  C_20 
REMARK   12  A    between atoms: C_20  and  C_21 
ROOT
HETATM    1  N   UNK N   1       0.934  -0.590  -0.306  0.00  0.00    -0.320 N 
HETATM    2  C   UNK N   1       1.654  -1.123  -1.399  0.00  0.00     0.144 C 
HETATM    3  C   UNK N   1       3.085  -1.443  -0.893  0.00  0.00     0.174 C 
HETATM    4  C   UNK N   1       3.056  -2.426   0.311  0.00  0.00     0.182 C 
HETATM    5  C   UNK N   1       1.952  -2.007   1.320  0.00  0.00     0.198 C 
HETATM    6  C   UNK N   1       0.806  -2.383  -1.585  0.00  0.00     0.198 C 
HETATM    7  O   UNK N   1       0.274  -2.737  -0.296  0.00  0.00    -0.362 OA
HETATM    8  C   UNK N   1       0.627  -1.672   0.574  0.00  0.00     0.257 C 
ENDROOT
BRANCH   1   9
HETATM    9  C   UNK N   1       0.368   0.730  -0.256  0.00  0.00     0.172 C 
HETATM   10  S   UNK N   1       1.034   1.829  -0.907  0.00  0.00    -0.041 SA
BRANCH   9  11
HETATM   11  N   UNK N   1      -0.839   0.995   0.437  0.00  0.00    -0.367 N 
HETATM   12  H   UNK N   1      -0.898   1.792   1.011  0.00  0.00     0.161 HD
BRANCH  11  13
HETATM   13  C   UNK N   1      -1.986   0.124   0.323  0.00  0.00     0.122 C 
BRANCH  13  14
HETATM   14  C   UNK N   1      -2.517   0.135  -1.114  0.00  0.00     0.020 C 
BRANCH  14  15
HETATM   15  C   UNK N   1      -2.778   1.548  -1.641  0.00  0.00     0.002 C 
BRANCH  15  16
HETATM   16  C   UNK N   1      -4.024   2.155  -1.018  0.00  0.00     0.000 C 
BRANCH  16  17
HETATM   17  C   UNK N   1      -3.706   2.734   0.349  0.00  0.00     0.000 C 
BRANCH  17  18
HETATM   18  C   UNK N   1      -4.926   2.655   1.251  0.00  0.00    -0.000 C 
BRANCH  18  19
HETATM   19  C   UNK N   1      -5.787   3.901   1.130  0.00  0.00    -0.005 C 
HETATM   20  C   UNK N   1      -6.643   3.846  -0.120  0.00  0.00     0.005 C 
ENDBRANCH  18  19
ENDBRANCH  17  18
ENDBRANCH  16  17
ENDBRANCH  15  16
ENDBRANCH  14  15
ENDBRANCH  13  14
ENDBRANCH  11  13
ENDBRANCH   9  11
ENDBRANCH   1   9
BRANCH   3  21
HETATM   21  O   UNK N   1       3.867  -1.965  -1.926  0.00  0.00    -0.391 OA
HETATM   22  H   UNK N   1       3.825  -2.617  -2.643  0.00  0.00     0.210 HD
ENDBRANCH   3  21
BRANCH   5  23
HETATM   23  O   UNK N   1       1.753  -3.020   2.262  0.00  0.00    -0.388 OA
HETATM   24  H   UNK N   1       1.075  -3.251   2.917  0.00  0.00     0.210 HD
ENDBRANCH   5  23
BRANCH   4  25
HETATM   25  O   UNK N   1       2.798  -3.723  -0.150  0.00  0.00    -0.390 OA
HETATM   26  H   UNK N   1       1.931  -4.018  -0.469  0.00  0.00     0.210 HD
ENDBRANCH   4  25
TORSDOF 12
