MODEL 1
REMARK VINA RESULT:      -5.7      0.000      0.000
REMARK  12 active torsions:
REMARK  status: ('A' for Active; 'I' for Inactive)
REMARK    1  A    between atoms: C_2  and  N_3 
REMARK    2  A    between atoms: C_2  and  N_14 
REMARK    3  A    between atoms: C_5  and  O_6 
REMARK    4  A    between atoms: C_7  and  O_8 
REMARK    5  A    between atoms: C_9  and  O_10 
REMARK    6  A    between atoms: N_14  and  C_15 
REMARK    7  A    between atoms: C_15  and  C_16 
REMARK    8  A    between atoms: C_16  and  C_17 
REMARK    9  A    between atoms: C_17  and  C_18 
REMARK   10  A    between atoms: C_18  and  C_19 
REMARK   11  A    between atoms: C_19  and  C_20 
REMARK   12  A    between atoms: C_20  and  C_21 
ROOT
HETATM    1  N   UNK N   1      35.343  14.818   9.723  0.00  0.00    -0.320 N 
HETATM    2  C   UNK N   1      34.692  14.799  10.978  0.00  0.00     0.144 C 
HETATM    3  C   UNK N   1      35.015  13.435  11.642  0.00  0.00     0.174 C 
HETATM    4  C   UNK N   1      36.548  13.222  11.786  0.00  0.00     0.182 C 
HETATM    5  C   UNK N   1      37.274  13.638  10.478  0.00  0.00     0.198 C 
HETATM    6  C   UNK N   1      35.471  15.955  11.610  0.00  0.00     0.198 C 
HETATM    7  O   UNK N   1      36.779  15.969  11.010  0.00  0.00    -0.362 OA
HETATM    8  C   UNK N   1      36.737  15.008   9.967  0.00  0.00     0.257 C 
ENDROOT
BRANCH   1   9
HETATM    9  C   UNK N   1      34.681  14.927   8.452  0.00  0.00     0.172 C 
HETATM   10  S   UNK N   1      33.998  13.790   7.891  0.00  0.00    -0.041 SA
BRANCH   9  11
HETATM   11  N   UNK N   1      34.691  16.134   7.711  0.00  0.00    -0.367 N 
HETATM   12  H   UNK N   1      34.834  16.099   6.738  0.00  0.00     0.161 HD
BRANCH  11  13
HETATM   13  C   UNK N   1      34.496  17.417   8.348  0.00  0.00     0.122 C 
BRANCH  13  14
HETATM   14  C   UNK N   1      33.226  18.084   7.813  0.00  0.00     0.020 C 
BRANCH  14  15
HETATM   15  C   UNK N   1      31.945  17.469   8.383  0.00  0.00     0.002 C 
BRANCH  15  16
HETATM   16  C   UNK N   1      30.896  17.264   7.303  0.00  0.00     0.000 C 
BRANCH  16  17
HETATM   17  C   UNK N   1      31.491  16.523   6.119  0.00  0.00     0.000 C 
BRANCH  17  18
HETATM   18  C   UNK N   1      31.227  17.289   4.833  0.00  0.00    -0.000 C 
BRANCH  18  19
HETATM   19  C   UNK N   1      32.522  17.645   4.123  0.00  0.00    -0.005 C 
HETATM   20  C   UNK N   1      32.868  16.603   3.077  0.00  0.00     0.005 C 
ENDBRANCH  18  19
ENDBRANCH  17  18
ENDBRANCH  16  17
ENDBRANCH  15  16
ENDBRANCH  14  15
ENDBRANCH  13  14
ENDBRANCH  11  13
ENDBRANCH   9  11
ENDBRANCH   1   9
BRANCH   3  21
HETATM   21  O   UNK N   1      34.392  13.335  12.888  0.00  0.00    -0.391 OA
HETATM   22  H   UNK N   1      33.648  13.708  13.388  0.00  0.00     0.210 HD
ENDBRANCH   3  21
BRANCH   5  23
HETATM   23  O   UNK N   1      38.654  13.690  10.691  0.00  0.00    -0.388 OA
HETATM   24  H   UNK N   1      39.280  14.298  11.116  0.00  0.00     0.210 HD
ENDBRANCH   5  23
BRANCH   4  25
HETATM   25  O   UNK N   1      37.029  13.992  12.852  0.00  0.00    -0.390 OA
HETATM   26  H   UNK N   1      37.858  13.805  13.320  0.00  0.00     0.210 HD
ENDBRANCH   4  25
TORSDOF 12
ENDMDL
MODEL 2
REMARK VINA RESULT:      -5.6      3.708      7.795
REMARK  12 active torsions:
REMARK  status: ('A' for Active; 'I' for Inactive)
REMARK    1  A    between atoms: C_2  and  N_3 
REMARK    2  A    between atoms: C_2  and  N_14 
REMARK    3  A    between atoms: C_5  and  O_6 
REMARK    4  A    between atoms: C_7  and  O_8 
REMARK    5  A    between atoms: C_9  and  O_10 
REMARK    6  A    between atoms: N_14  and  C_15 
REMARK    7  A    between atoms: C_15  and  C_16 
REMARK    8  A    between atoms: C_16  and  C_17 
REMARK    9  A    between atoms: C_17  and  C_18 
REMARK   10  A    between atoms: C_18  and  C_19 
REMARK   11  A    between atoms: C_19  and  C_20 
REMARK   12  A    between atoms: C_20  and  C_21 
ROOT
HETATM    1  N   UNK N   1      35.210  12.840  10.859  0.00  0.00    -0.320 N 
HETATM    2  C   UNK N   1      36.580  13.025  11.151  0.00  0.00     0.144 C 
HETATM    3  C   UNK N   1      37.150  13.992  10.080  0.00  0.00     0.174 C 
HETATM    4  C   UNK N   1      36.378  15.341  10.063  0.00  0.00     0.182 C 
HETATM    5  C   UNK N   1      34.848  15.086  10.141  0.00  0.00     0.198 C 
HETATM    6  C   UNK N   1      36.391  13.705  12.509  0.00  0.00     0.198 C 
HETATM    7  O   UNK N   1      35.135  14.405  12.468  0.00  0.00    -0.362 OA
HETATM    8  C   UNK N   1      34.524  14.033  11.242  0.00  0.00     0.257 C 
ENDROOT
BRANCH   1   9
HETATM    9  C   UNK N   1      34.600  11.582  10.525  0.00  0.00     0.172 C 
HETATM   10  S   UNK N   1      34.773  11.019   9.211  0.00  0.00    -0.041 SA
BRANCH   9  11
HETATM   11  N   UNK N   1      33.808  10.870  11.459  0.00  0.00    -0.367 N 
HETATM   12  H   UNK N   1      32.937  11.240  11.731  0.00  0.00     0.161 HD
BRANCH  11  13
HETATM   13  C   UNK N   1      34.246   9.615  12.024  0.00  0.00     0.122 C 
BRANCH  13  14
HETATM   14  C   UNK N   1      34.584   9.792  13.508  0.00  0.00     0.020 C 
BRANCH  14  15
HETATM   15  C   UNK N   1      33.605  10.718  14.234  0.00  0.00     0.002 C 
BRANCH  15  16
HETATM   16  C   UNK N   1      34.327  11.658  15.185  0.00  0.00     0.000 C 
BRANCH  16  17
HETATM   17  C   UNK N   1      34.969  10.877  16.318  0.00  0.00     0.000 C 
BRANCH  17  18
HETATM   18  C   UNK N   1      35.370  11.816  17.444  0.00  0.00    -0.000 C 
BRANCH  18  19
HETATM   19  C   UNK N   1      35.258  13.271  17.019  0.00  0.00    -0.005 C 
HETATM   20  C   UNK N   1      35.278  14.188  18.226  0.00  0.00     0.005 C 
ENDBRANCH  18  19
ENDBRANCH  17  18
ENDBRANCH  16  17
ENDBRANCH  15  16
ENDBRANCH  14  15
ENDBRANCH  13  14
ENDBRANCH  11  13
ENDBRANCH   9  11
ENDBRANCH   1   9
BRANCH   3  21
HETATM   21  O   UNK N   1      38.512  14.216  10.295  0.00  0.00    -0.391 OA
HETATM   22  H   UNK N   1      39.283  13.804  10.716  0.00  0.00     0.210 HD
ENDBRANCH   3  21
BRANCH   5  23
HETATM   23  O   UNK N   1      34.173  16.285  10.382  0.00  0.00    -0.388 OA
HETATM   24  H   UNK N   1      34.409  17.185  10.660  0.00  0.00     0.210 HD
ENDBRANCH   5  23
BRANCH   4  25
HETATM   25  O   UNK N   1      36.776  16.122  11.155  0.00  0.00    -0.390 OA
HETATM   26  H   UNK N   1      37.484  15.869  11.768  0.00  0.00     0.210 HD
ENDBRANCH   4  25
TORSDOF 12
ENDMDL
MODEL 3
REMARK VINA RESULT:      -5.6      1.116      2.405
REMARK  12 active torsions:
REMARK  status: ('A' for Active; 'I' for Inactive)
REMARK    1  A    between atoms: C_2  and  N_3 
REMARK    2  A    between atoms: C_2  and  N_14 
REMARK    3  A    between atoms: C_5  and  O_6 
REMARK    4  A    between atoms: C_7  and  O_8 
REMARK    5  A    between atoms: C_9  and  O_10 
REMARK    6  A    between atoms: N_14  and  C_15 
REMARK    7  A    between atoms: C_15  and  C_16 
REMARK    8  A    between atoms: C_16  and  C_17 
REMARK    9  A    between atoms: C_17  and  C_18 
REMARK   10  A    between atoms: C_18  and  C_19 
REMARK   11  A    between atoms: C_19  and  C_20 
REMARK   12  A    between atoms: C_20  and  C_21 
ROOT
HETATM    1  N   UNK N   1      35.324  14.729   9.591  0.00  0.00    -0.320 N 
HETATM    2  C   UNK N   1      34.678  14.775  10.847  0.00  0.00     0.144 C 
HETATM    3  C   UNK N   1      35.023  13.456  11.587  0.00  0.00     0.174 C 
HETATM    4  C   UNK N   1      36.560  13.273  11.736  0.00  0.00     0.182 C 
HETATM    5  C   UNK N   1      37.274  13.623  10.403  0.00  0.00     0.198 C 
HETATM    6  C   UNK N   1      35.443  15.975  11.407  0.00  0.00     0.198 C 
HETATM    7  O   UNK N   1      36.748  15.974  10.802  0.00  0.00    -0.362 OA
HETATM    8  C   UNK N   1      36.716  14.953   9.816  0.00  0.00     0.257 C 
ENDROOT
BRANCH   1   9
HETATM    9  C   UNK N   1      34.656  14.756   8.318  0.00  0.00     0.172 C 
HETATM   10  S   UNK N   1      33.750  13.696   7.954  0.00  0.00    -0.041 SA
BRANCH   9  11
HETATM   11  N   UNK N   1      34.872  15.801   7.387  0.00  0.00    -0.367 N 
HETATM   12  H   UNK N   1      35.269  15.590   6.512  0.00  0.00     0.161 HD
BRANCH  11  13
HETATM   13  C   UNK N   1      34.525  17.171   7.690  0.00  0.00     0.122 C 
BRANCH  13  14
HETATM   14  C   UNK N   1      33.004  17.351   7.654  0.00  0.00     0.020 C 
BRANCH  14  15
HETATM   15  C   UNK N   1      32.418  17.176   6.251  0.00  0.00     0.002 C 
BRANCH  15  16
HETATM   16  C   UNK N   1      30.904  17.048   6.291  0.00  0.00     0.000 C 
BRANCH  16  17
HETATM   17  C   UNK N   1      30.383  17.339   7.686  0.00  0.00     0.000 C 
BRANCH  17  18
HETATM   18  C   UNK N   1      28.875  17.526   7.657  0.00  0.00    -0.000 C 
BRANCH  18  19
HETATM   19  C   UNK N   1      28.366  18.133   8.954  0.00  0.00    -0.005 C 
HETATM   20  C   UNK N   1      29.520  18.522   9.857  0.00  0.00     0.005 C 
ENDBRANCH  18  19
ENDBRANCH  17  18
ENDBRANCH  16  17
ENDBRANCH  15  16
ENDBRANCH  14  15
ENDBRANCH  13  14
ENDBRANCH  11  13
ENDBRANCH   9  11
ENDBRANCH   1   9
BRANCH   3  21
HETATM   21  O   UNK N   1      34.407  13.419  12.840  0.00  0.00    -0.391 OA
HETATM   22  H   UNK N   1      33.676  13.829  13.330  0.00  0.00     0.210 HD
ENDBRANCH   3  21
BRANCH   5  23
HETATM   23  O   UNK N   1      38.655  13.707  10.605  0.00  0.00    -0.388 OA
HETATM   24  H   UNK N   1      39.373  14.302  10.335  0.00  0.00     0.210 HD
ENDBRANCH   5  23
BRANCH   4  25
HETATM   25  O   UNK N   1      37.034  14.110  12.754  0.00  0.00    -0.390 OA
HETATM   26  H   UNK N   1      37.865  13.960  13.231  0.00  0.00     0.210 HD
ENDBRANCH   4  25
TORSDOF 12
ENDMDL
MODEL 4
REMARK VINA RESULT:      -5.5      3.729      7.726
REMARK  12 active torsions:
REMARK  status: ('A' for Active; 'I' for Inactive)
REMARK    1  A    between atoms: C_2  and  N_3 
REMARK    2  A    between atoms: C_2  and  N_14 
REMARK    3  A    between atoms: C_5  and  O_6 
REMARK    4  A    between atoms: C_7  and  O_8 
REMARK    5  A    between atoms: C_9  and  O_10 
REMARK    6  A    between atoms: N_14  and  C_15 
REMARK    7  A    between atoms: C_15  and  C_16 
REMARK    8  A    between atoms: C_16  and  C_17 
REMARK    9  A    between atoms: C_17  and  C_18 
REMARK   10  A    between atoms: C_18  and  C_19 
REMARK   11  A    between atoms: C_19  and  C_20 
REMARK   12  A    between atoms: C_20  and  C_21 
ROOT
HETATM    1  N   UNK N   1      36.059  13.698  10.979  0.00  0.00    -0.320 N 
HETATM    2  C   UNK N   1      35.122  13.212  10.039  0.00  0.00     0.144 C 
HETATM    3  C   UNK N   1      33.826  14.047  10.210  0.00  0.00     0.174 C 
HETATM    4  C   UNK N   1      34.098  15.566  10.019  0.00  0.00     0.182 C 
HETATM    5  C   UNK N   1      35.392  15.979  10.772  0.00  0.00     0.198 C 
HETATM    6  C   UNK N   1      35.902  13.598   8.780  0.00  0.00     0.198 C 
HETATM    7  O   UNK N   1      36.689  14.759   9.102  0.00  0.00    -0.362 OA
HETATM    8  C   UNK N   1      36.534  14.957  10.499  0.00  0.00     0.257 C 
ENDROOT
BRANCH   1   9
HETATM    9  C   UNK N   1      36.634  12.926  12.046  0.00  0.00     0.172 C 
HETATM   10  S   UNK N   1      36.800  11.502  11.901  0.00  0.00    -0.041 SA
BRANCH   9  11
HETATM   11  N   UNK N   1      37.038  13.527  13.264  0.00  0.00    -0.367 N 
HETATM   12  H   UNK N   1      37.995  13.687  13.425  0.00  0.00     0.161 HD
BRANCH  11  13
HETATM   13  C   UNK N   1      36.080  13.909  14.275  0.00  0.00     0.122 C 
BRANCH  13  14
HETATM   14  C   UNK N   1      36.463  13.294  15.625  0.00  0.00     0.020 C 
BRANCH  14  15
HETATM   15  C   UNK N   1      35.337  13.378  16.658  0.00  0.00     0.002 C 
BRANCH  15  16
HETATM   16  C   UNK N   1      35.296  12.142  17.542  0.00  0.00     0.000 C 
BRANCH  16  17
HETATM   17  C   UNK N   1      35.966  10.970  16.847  0.00  0.00     0.000 C 
BRANCH  17  18
HETATM   18  C   UNK N   1      34.924   9.965  16.389  0.00  0.00    -0.000 C 
BRANCH  18  19
HETATM   19  C   UNK N   1      34.795   9.950  14.875  0.00  0.00    -0.005 C 
HETATM   20  C   UNK N   1      33.632  10.810  14.424  0.00  0.00     0.005 C 
ENDBRANCH  18  19
ENDBRANCH  17  18
ENDBRANCH  16  17
ENDBRANCH  15  16
ENDBRANCH  14  15
ENDBRANCH  13  14
ENDBRANCH  11  13
ENDBRANCH   9  11
ENDBRANCH   1   9
BRANCH   3  21
HETATM   21  O   UNK N   1      32.841  13.615   9.319  0.00  0.00    -0.391 OA
HETATM   22  H   UNK N   1      31.964  13.867   8.990  0.00  0.00     0.210 HD
ENDBRANCH   3  21
BRANCH   5  23
HETATM   23  O   UNK N   1      35.775  17.269  10.396  0.00  0.00    -0.388 OA
HETATM   24  H   UNK N   1      35.557  17.890   9.683  0.00  0.00     0.210 HD
ENDBRANCH   5  23
BRANCH   4  25
HETATM   25  O   UNK N   1      34.243  15.847   8.654  0.00  0.00    -0.390 OA
HETATM   26  H   UNK N   1      33.516  16.143   8.086  0.00  0.00     0.210 HD
ENDBRANCH   4  25
TORSDOF 12
ENDMDL
MODEL 5
REMARK VINA RESULT:      -5.4      2.461      4.223
REMARK  12 active torsions:
REMARK  status: ('A' for Active; 'I' for Inactive)
REMARK    1  A    between atoms: C_2  and  N_3 
REMARK    2  A    between atoms: C_2  and  N_14 
REMARK    3  A    between atoms: C_5  and  O_6 
REMARK    4  A    between atoms: C_7  and  O_8 
REMARK    5  A    between atoms: C_9  and  O_10 
REMARK    6  A    between atoms: N_14  and  C_15 
REMARK    7  A    between atoms: C_15  and  C_16 
REMARK    8  A    between atoms: C_16  and  C_17 
REMARK    9  A    between atoms: C_17  and  C_18 
REMARK   10  A    between atoms: C_18  and  C_19 
REMARK   11  A    between atoms: C_19  and  C_20 
REMARK   12  A    between atoms: C_20  and  C_21 
ROOT
HETATM    1  N   UNK N   1      33.622  15.864   7.459  0.00  0.00    -0.320 N 
HETATM    2  C   UNK N   1      32.658  14.916   7.870  0.00  0.00     0.144 C 
HETATM    3  C   UNK N   1      33.349  13.974   8.891  0.00  0.00     0.174 C 
HETATM    4  C   UNK N   1      33.925  14.767  10.097  0.00  0.00     0.182 C 
HETATM    5  C   UNK N   1      34.659  16.043   9.599  0.00  0.00     0.198 C 
HETATM    6  C   UNK N   1      31.700  15.901   8.541  0.00  0.00     0.198 C 
HETATM    7  O   UNK N   1      32.487  17.002   9.029  0.00  0.00    -0.362 OA
HETATM    8  C   UNK N   1      33.801  16.787   8.534  0.00  0.00     0.257 C 
ENDROOT
BRANCH   1   9
HETATM    9  C   UNK N   1      34.093  16.031   6.112  0.00  0.00     0.172 C 
HETATM   10  S   UNK N   1      35.078  15.128   5.572  0.00  0.00    -0.041 SA
BRANCH   9  11
HETATM   11  N   UNK N   1      33.623  17.081   5.285  0.00  0.00    -0.367 N 
HETATM   12  H   UNK N   1      34.115  17.933   5.266  0.00  0.00     0.161 HD
BRANCH  11  13
HETATM   13  C   UNK N   1      32.441  16.933   4.469  0.00  0.00     0.122 C 
BRANCH  13  14
HETATM   14  C   UNK N   1      31.185  17.202   5.304  0.00  0.00     0.020 C 
BRANCH  14  15
HETATM   15  C   UNK N   1      29.956  17.513   4.447  0.00  0.00     0.002 C 
BRANCH  15  16
HETATM   16  C   UNK N   1      28.841  18.133   5.274  0.00  0.00     0.000 C 
BRANCH  16  17
HETATM   17  C   UNK N   1      28.788  17.500   6.653  0.00  0.00     0.000 C 
BRANCH  17  18
HETATM   18  C   UNK N   1      28.346  18.523   7.685  0.00  0.00    -0.000 C 
BRANCH  18  19
HETATM   19  C   UNK N   1      28.541  18.004   9.099  0.00  0.00    -0.005 C 
HETATM   20  C   UNK N   1      29.664  18.747   9.797  0.00  0.00     0.005 C 
ENDBRANCH  18  19
ENDBRANCH  17  18
ENDBRANCH  16  17
ENDBRANCH  15  16
ENDBRANCH  14  15
ENDBRANCH  13  14
ENDBRANCH  11  13
ENDBRANCH   9  11
ENDBRANCH   1   9
BRANCH   3  21
HETATM   21  O   UNK N   1      32.458  12.994   9.337  0.00  0.00    -0.391 OA
HETATM   22  H   UNK N   1      31.768  12.400   9.003  0.00  0.00     0.210 HD
ENDBRANCH   3  21
BRANCH   5  23
HETATM   23  O   UNK N   1      34.951  16.880  10.679  0.00  0.00    -0.388 OA
HETATM   24  H   UNK N   1      35.559  17.616  10.857  0.00  0.00     0.210 HD
ENDBRANCH   5  23
BRANCH   4  25
HETATM   25  O   UNK N   1      32.883  15.135  10.957  0.00  0.00    -0.390 OA
HETATM   26  H   UNK N   1      32.978  15.203  11.920  0.00  0.00     0.210 HD
ENDBRANCH   4  25
TORSDOF 12
ENDMDL
MODEL 6
REMARK VINA RESULT:      -5.3     11.575     14.638
REMARK  12 active torsions:
REMARK  status: ('A' for Active; 'I' for Inactive)
REMARK    1  A    between atoms: C_2  and  N_3 
REMARK    2  A    between atoms: C_2  and  N_14 
REMARK    3  A    between atoms: C_5  and  O_6 
REMARK    4  A    between atoms: C_7  and  O_8 
REMARK    5  A    between atoms: C_9  and  O_10 
REMARK    6  A    between atoms: N_14  and  C_15 
REMARK    7  A    between atoms: C_15  and  C_16 
REMARK    8  A    between atoms: C_16  and  C_17 
REMARK    9  A    between atoms: C_17  and  C_18 
REMARK   10  A    between atoms: C_18  and  C_19 
REMARK   11  A    between atoms: C_19  and  C_20 
REMARK   12  A    between atoms: C_20  and  C_21 
ROOT
HETATM    1  N   UNK N   1      21.630  16.562   3.165  0.00  0.00    -0.320 N 
HETATM    2  C   UNK N   1      21.237  17.562   4.083  0.00  0.00     0.144 C 
HETATM    3  C   UNK N   1      21.027  18.869   3.274  0.00  0.00     0.174 C 
HETATM    4  C   UNK N   1      19.974  18.677   2.146  0.00  0.00     0.182 C 
HETATM    5  C   UNK N   1      20.222  17.336   1.403  0.00  0.00     0.198 C 
HETATM    6  C   UNK N   1      19.914  16.919   4.505  0.00  0.00     0.198 C 
HETATM    7  O   UNK N   1      19.432  16.153   3.387  0.00  0.00    -0.362 OA
HETATM    8  C   UNK N   1      20.471  16.184   2.420  0.00  0.00     0.257 C 
ENDROOT
BRANCH   1   9
HETATM    9  C   UNK N   1      22.883  15.859   3.197  0.00  0.00     0.172 C 
HETATM   10  S   UNK N   1      23.096  14.718   2.344  0.00  0.00    -0.041 SA
BRANCH   9  11
HETATM   11  N   UNK N   1      23.931  16.250   4.067  0.00  0.00    -0.367 N 
HETATM   12  H   UNK N   1      23.964  15.877   4.977  0.00  0.00     0.161 HD
BRANCH  11  13
HETATM   13  C   UNK N   1      24.954  17.182   3.651  0.00  0.00     0.122 C 
BRANCH  13  14
HETATM   14  C   UNK N   1      24.930  18.426   4.544  0.00  0.00     0.020 C 
BRANCH  14  15
HETATM   15  C   UNK N   1      24.747  19.723   3.753  0.00  0.00     0.002 C 
BRANCH  15  16
HETATM   16  C   UNK N   1      26.078  20.279   3.277  0.00  0.00     0.000 C 
BRANCH  16  17
HETATM   17  C   UNK N   1      27.140  20.107   4.348  0.00  0.00     0.000 C 
BRANCH  17  18
HETATM   18  C   UNK N   1      26.993  21.182   5.412  0.00  0.00    -0.000 C 
BRANCH  18  19
HETATM   19  C   UNK N   1      27.311  20.640   6.795  0.00  0.00    -0.005 C 
HETATM   20  C   UNK N   1      27.843  19.223   6.711  0.00  0.00     0.005 C 
ENDBRANCH  18  19
ENDBRANCH  17  18
ENDBRANCH  16  17
ENDBRANCH  15  16
ENDBRANCH  14  15
ENDBRANCH  13  14
ENDBRANCH  11  13
ENDBRANCH   9  11
ENDBRANCH   1   9
BRANCH   3  21
HETATM   21  O   UNK N   1      20.647  19.915   4.119  0.00  0.00    -0.391 OA
HETATM   22  H   UNK N   1      20.493  20.103   5.058  0.00  0.00     0.210 HD
ENDBRANCH   3  21
BRANCH   5  23
HETATM   23  O   UNK N   1      19.139  17.042   0.570  0.00  0.00    -0.388 OA
HETATM   24  H   UNK N   1      18.746  17.415  -0.235  0.00  0.00     0.210 HD
ENDBRANCH   5  23
BRANCH   4  25
HETATM   25  O   UNK N   1      18.689  18.671   2.702  0.00  0.00    -0.390 OA
HETATM   26  H   UNK N   1      18.227  19.471   2.998  0.00  0.00     0.210 HD
ENDBRANCH   4  25
TORSDOF 12
ENDMDL
MODEL 7
REMARK VINA RESULT:      -5.3      1.815      3.543
REMARK  12 active torsions:
REMARK  status: ('A' for Active; 'I' for Inactive)
REMARK    1  A    between atoms: C_2  and  N_3 
REMARK    2  A    between atoms: C_2  and  N_14 
REMARK    3  A    between atoms: C_5  and  O_6 
REMARK    4  A    between atoms: C_7  and  O_8 
REMARK    5  A    between atoms: C_9  and  O_10 
REMARK    6  A    between atoms: N_14  and  C_15 
REMARK    7  A    between atoms: C_15  and  C_16 
REMARK    8  A    between atoms: C_16  and  C_17 
REMARK    9  A    between atoms: C_17  and  C_18 
REMARK   10  A    between atoms: C_18  and  C_19 
REMARK   11  A    between atoms: C_19  and  C_20 
REMARK   12  A    between atoms: C_20  and  C_21 
ROOT
HETATM    1  N   UNK N   1      34.821  14.652   8.255  0.00  0.00    -0.320 N 
HETATM    2  C   UNK N   1      35.975  14.595   9.069  0.00  0.00     0.144 C 
HETATM    3  C   UNK N   1      35.892  15.780  10.067  0.00  0.00     0.174 C 
HETATM    4  C   UNK N   1      34.588  15.720  10.912  0.00  0.00     0.182 C 
HETATM    5  C   UNK N   1      33.374  15.384  10.004  0.00  0.00     0.198 C 
HETATM    6  C   UNK N   1      35.669  13.251   9.732  0.00  0.00     0.198 C 
HETATM    7  O   UNK N   1      34.238  13.112   9.782  0.00  0.00    -0.362 OA
HETATM    8  C   UNK N   1      33.717  14.207   9.044  0.00  0.00     0.257 C 
ENDROOT
BRANCH   1   9
HETATM    9  C   UNK N   1      34.825  14.835   6.829  0.00  0.00     0.172 C 
HETATM   10  S   UNK N   1      35.148  13.733   5.959  0.00  0.00    -0.041 SA
BRANCH   9  11
HETATM   11  N   UNK N   1      34.531  16.089   6.240  0.00  0.00    -0.367 N 
HETATM   12  H   UNK N   1      34.459  16.154   5.261  0.00  0.00     0.161 HD
BRANCH  11  13
HETATM   13  C   UNK N   1      34.334  17.275   7.040  0.00  0.00     0.122 C 
BRANCH  13  14
HETATM   14  C   UNK N   1      32.841  17.607   7.135  0.00  0.00     0.020 C 
BRANCH  14  15
HETATM   15  C   UNK N   1      32.066  17.228   5.871  0.00  0.00     0.002 C 
BRANCH  15  16
HETATM   16  C   UNK N   1      30.772  16.505   6.206  0.00  0.00     0.000 C 
BRANCH  16  17
HETATM   17  C   UNK N   1      30.290  16.893   7.592  0.00  0.00     0.000 C 
BRANCH  17  18
HETATM   18  C   UNK N   1      28.910  17.526   7.511  0.00  0.00    -0.000 C 
BRANCH  18  19
HETATM   19  C   UNK N   1      28.715  18.570   8.598  0.00  0.00    -0.005 C 
HETATM   20  C   UNK N   1      29.948  18.677   9.472  0.00  0.00     0.005 C 
ENDBRANCH  18  19
ENDBRANCH  17  18
ENDBRANCH  16  17
ENDBRANCH  15  16
ENDBRANCH  14  15
ENDBRANCH  13  14
ENDBRANCH  11  13
ENDBRANCH   9  11
ENDBRANCH   1   9
BRANCH   3  21
HETATM   21  O   UNK N   1      37.011  15.799  10.902  0.00  0.00    -0.391 OA
HETATM   22  H   UNK N   1      37.288  16.111  11.778  0.00  0.00     0.210 HD
ENDBRANCH   3  21
BRANCH   5  23
HETATM   23  O   UNK N   1      32.258  15.080  10.788  0.00  0.00    -0.388 OA
HETATM   24  H   UNK N   1      31.774  14.279  11.047  0.00  0.00     0.210 HD
ENDBRANCH   5  23
BRANCH   4  25
HETATM   25  O   UNK N   1      34.716  14.738  11.901  0.00  0.00    -0.390 OA
HETATM   26  H   UNK N   1      35.007  13.830  11.723  0.00  0.00     0.210 HD
ENDBRANCH   4  25
TORSDOF 12
ENDMDL
MODEL 8
REMARK VINA RESULT:      -5.2      3.345      7.008
REMARK  12 active torsions:
REMARK  status: ('A' for Active; 'I' for Inactive)
REMARK    1  A    between atoms: C_2  and  N_3 
REMARK    2  A    between atoms: C_2  and  N_14 
REMARK    3  A    between atoms: C_5  and  O_6 
REMARK    4  A    between atoms: C_7  and  O_8 
REMARK    5  A    between atoms: C_9  and  O_10 
REMARK    6  A    between atoms: N_14  and  C_15 
REMARK    7  A    between atoms: C_15  and  C_16 
REMARK    8  A    between atoms: C_16  and  C_17 
REMARK    9  A    between atoms: C_17  and  C_18 
REMARK   10  A    between atoms: C_18  and  C_19 
REMARK   11  A    between atoms: C_19  and  C_20 
REMARK   12  A    between atoms: C_20  and  C_21 
ROOT
HETATM    1  N   UNK N   1      34.853  13.401   9.567  0.00  0.00    -0.320 N 
HETATM    2  C   UNK N   1      34.709  14.774   9.266  0.00  0.00     0.144 C 
HETATM    3  C   UNK N   1      34.649  15.535  10.617  0.00  0.00     0.174 C 
HETATM    4  C   UNK N   1      35.913  15.264  11.479  0.00  0.00     0.182 C 
HETATM    5  C   UNK N   1      36.265  13.752  11.456  0.00  0.00     0.198 C 
HETATM    6  C   UNK N   1      36.053  14.952   8.557  0.00  0.00     0.198 C 
HETATM    7  O   UNK N   1      36.972  14.007   9.133  0.00  0.00    -0.362 OA
HETATM    8  C   UNK N   1      36.197  13.195  10.004  0.00  0.00     0.257 C 
ENDROOT
BRANCH   1   9
HETATM    9  C   UNK N   1      33.912  12.375   9.209  0.00  0.00     0.172 C 
HETATM   10  S   UNK N   1      33.499  12.217   7.838  0.00  0.00    -0.041 SA
BRANCH   9  11
HETATM   11  N   UNK N   1      33.354  11.507  10.180  0.00  0.00    -0.367 N 
HETATM   12  H   UNK N   1      32.510  11.757  10.620  0.00  0.00     0.161 HD
BRANCH  11  13
HETATM   13  C   UNK N   1      33.994  10.263  10.541  0.00  0.00     0.122 C 
BRANCH  13  14
HETATM   14  C   UNK N   1      33.670   9.905  11.995  0.00  0.00     0.020 C 
BRANCH  14  15
HETATM   15  C   UNK N   1      34.439  10.762  13.004  0.00  0.00     0.002 C 
BRANCH  15  16
HETATM   16  C   UNK N   1      33.877  10.611  14.407  0.00  0.00     0.000 C 
BRANCH  16  17
HETATM   17  C   UNK N   1      33.955  11.931  15.155  0.00  0.00     0.000 C 
BRANCH  17  18
HETATM   18  C   UNK N   1      35.318  12.570  14.954  0.00  0.00    -0.000 C 
BRANCH  18  19
HETATM   19  C   UNK N   1      35.798  13.262  16.219  0.00  0.00    -0.005 C 
HETATM   20  C   UNK N   1      35.263  12.562  17.453  0.00  0.00     0.005 C 
ENDBRANCH  18  19
ENDBRANCH  17  18
ENDBRANCH  16  17
ENDBRANCH  15  16
ENDBRANCH  14  15
ENDBRANCH  13  14
ENDBRANCH  11  13
ENDBRANCH   9  11
ENDBRANCH   1   9
BRANCH   3  21
HETATM   21  O   UNK N   1      34.493  16.907  10.402  0.00  0.00    -0.391 OA
HETATM   22  H   UNK N   1      33.932  17.650  10.674  0.00  0.00     0.210 HD
ENDBRANCH   3  21
BRANCH   5  23
HETATM   23  O   UNK N   1      37.531  13.545  12.012  0.00  0.00    -0.388 OA
HETATM   24  H   UNK N   1      38.366  14.035  12.066  0.00  0.00     0.210 HD
ENDBRANCH   5  23
BRANCH   4  25
HETATM   25  O   UNK N   1      36.991  16.001  10.973  0.00  0.00    -0.390 OA
HETATM   26  H   UNK N   1      37.624  16.480  11.531  0.00  0.00     0.210 HD
ENDBRANCH   4  25
TORSDOF 12
ENDMDL
MODEL 9
REMARK VINA RESULT:      -5.2      1.860      3.445
REMARK  12 active torsions:
REMARK  status: ('A' for Active; 'I' for Inactive)
REMARK    1  A    between atoms: C_2  and  N_3 
REMARK    2  A    between atoms: C_2  and  N_14 
REMARK    3  A    between atoms: C_5  and  O_6 
REMARK    4  A    between atoms: C_7  and  O_8 
REMARK    5  A    between atoms: C_9  and  O_10 
REMARK    6  A    between atoms: N_14  and  C_15 
REMARK    7  A    between atoms: C_15  and  C_16 
REMARK    8  A    between atoms: C_16  and  C_17 
REMARK    9  A    between atoms: C_17  and  C_18 
REMARK   10  A    between atoms: C_18  and  C_19 
REMARK   11  A    between atoms: C_19  and  C_20 
REMARK   12  A    between atoms: C_20  and  C_21 
ROOT
HETATM    1  N   UNK N   1      34.589  13.734   9.776  0.00  0.00    -0.320 N 
HETATM    2  C   UNK N   1      35.601  13.151  10.572  0.00  0.00     0.144 C 
HETATM    3  C   UNK N   1      36.879  14.011  10.393  0.00  0.00     0.174 C 
HETATM    4  C   UNK N   1      36.626  15.494  10.782  0.00  0.00     0.182 C 
HETATM    5  C   UNK N   1      35.274  15.981  10.192  0.00  0.00     0.198 C 
HETATM    6  C   UNK N   1      34.929  13.381  11.927  0.00  0.00     0.198 C 
HETATM    7  O   UNK N   1      34.119  14.564  11.810  0.00  0.00    -0.362 OA
HETATM    8  C   UNK N   1      34.157  14.924  10.437  0.00  0.00     0.257 C 
ENDROOT
BRANCH   1   9
HETATM    9  C   UNK N   1      33.927  13.087   8.678  0.00  0.00     0.172 C 
HETATM   10  S   UNK N   1      34.539  11.956   8.027  0.00  0.00    -0.041 SA
BRANCH   9  11
HETATM   11  N   UNK N   1      32.674  13.539   8.195  0.00  0.00    -0.367 N 
HETATM   12  H   UNK N   1      31.871  13.407   8.747  0.00  0.00     0.161 HD
BRANCH  11  13
HETATM   13  C   UNK N   1      32.546  14.188   6.910  0.00  0.00     0.122 C 
BRANCH  13  14
HETATM   14  C   UNK N   1      33.085  15.620   6.986  0.00  0.00     0.020 C 
BRANCH  14  15
HETATM   15  C   UNK N   1      31.980  16.676   6.905  0.00  0.00     0.002 C 
BRANCH  15  16
HETATM   16  C   UNK N   1      31.926  17.525   8.164  0.00  0.00     0.000 C 
BRANCH  16  17
HETATM   17  C   UNK N   1      30.650  17.245   8.938  0.00  0.00     0.000 C 
BRANCH  17  18
HETATM   18  C   UNK N   1      29.963  18.548   9.310  0.00  0.00    -0.000 C 
BRANCH  18  19
HETATM   19  C   UNK N   1      28.482  18.511   8.969  0.00  0.00    -0.005 C 
HETATM   20  C   UNK N   1      28.253  18.883   7.518  0.00  0.00     0.005 C 
ENDBRANCH  18  19
ENDBRANCH  17  18
ENDBRANCH  16  17
ENDBRANCH  15  16
ENDBRANCH  14  15
ENDBRANCH  13  14
ENDBRANCH  11  13
ENDBRANCH   9  11
ENDBRANCH   1   9
BRANCH   3  21
HETATM   21  O   UNK N   1      37.934  13.486  11.143  0.00  0.00    -0.391 OA
HETATM   22  H   UNK N   1      38.283  12.637  11.455  0.00  0.00     0.210 HD
ENDBRANCH   3  21
BRANCH   5  23
HETATM   23  O   UNK N   1      34.925  17.215  10.746  0.00  0.00    -0.388 OA
HETATM   24  H   UNK N   1      34.857  17.595  11.637  0.00  0.00     0.210 HD
ENDBRANCH   5  23
BRANCH   4  25
HETATM   25  O   UNK N   1      36.595  15.613  12.177  0.00  0.00    -0.390 OA
HETATM   26  H   UNK N   1      36.352  14.888  12.774  0.00  0.00     0.210 HD
ENDBRANCH   4  25
TORSDOF 12
ENDMDL
