REMARK  7 active torsions:
REMARK  status: ('A' for Active; 'I' for Inactive)
REMARK    1  A    between atoms: C_6  and  O_18 
REMARK    2  A    between atoms: C_7  and  C_8 
REMARK    3  A    between atoms: C_8  and  O_10 
REMARK    4  A    between atoms: C_11  and  O_10 
REMARK    5  A    between atoms: C_12  and  O_17 
REMARK    6  A    between atoms: C_15  and  O_16 
REMARK    7  A    between atoms: C_21  and  O_22 
ROOT
HETATM    1  C   UNK N   1      -1.776   1.138   0.200  0.00  0.00     0.050 A 
HETATM    2  C   UNK N   1      -0.512   1.740   0.098  0.00  0.00    -0.004 A 
HETATM    3  C   UNK N   1      -0.442   3.155   0.045  0.00  0.00    -0.019 A 
HETATM    4  C   UNK N   1       0.804   3.778  -0.085  0.00  0.00     0.015 A 
HETATM    5  C   UNK N   1       1.967   3.019  -0.173  0.00  0.00     0.038 A 
HETATM    6  C   UNK N   1       1.919   1.625  -0.110  0.00  0.00     0.082 A 
HETATM    7  C   UNK N   1       0.678   0.955   0.042  0.00  0.00     0.083 A 
HETATM    8  C   UNK N   1      -1.624   3.923   0.128  0.00  0.00    -0.048 A 
HETATM    9  C   UNK N   1      -2.865   3.287   0.230  0.00  0.00     0.044 A 
HETATM   10  C   UNK N   1      -2.949   1.895   0.254  0.00  0.00     0.069 A 
HETATM   11  C   UNK N   1      -1.590   5.415   0.107  0.00  0.00     0.049 C 
ENDROOT
BRANCH   7  12
HETATM   12  C   UNK N   1       0.633  -0.545   0.172  0.00  0.00     0.297 C 
HETATM   13  O   UNK N   1      -0.428  -1.095   0.430  0.00  0.00    -0.259 OA
BRANCH  12  14
HETATM   14  O   UNK N   1       1.757  -1.297   0.030  0.00  0.00    -0.306 OA
BRANCH  14  15
HETATM   15  C   UNK N   1       1.876  -2.635   0.398  0.00  0.00     0.197 C 
HETATM   16  C   UNK N   1       3.195  -3.255  -0.080  0.00  0.00     0.173 C 
HETATM   17  C   UNK N   1       2.838  -4.699  -0.162  0.00  0.00     0.006 C 
HETATM   18  C   UNK N   1       1.525  -4.879  -0.208  0.00  0.00     0.006 C 
HETATM   19  C   UNK N   1       0.790  -3.587  -0.142  0.00  0.00     0.173 C 
BRANCH  16  20
HETATM   20  O   UNK N   1       3.535  -2.807  -1.359  0.00  0.00    -0.389 OA
HETATM   21  H   UNK N   1       3.922  -2.856  -2.247  0.00  0.00     0.210 HD
ENDBRANCH  16  20
BRANCH  19  22
HETATM   22  O   UNK N   1      -0.279  -3.691   0.754  0.00  0.00    -0.389 OA
HETATM   23  H   UNK N   1      -0.712  -3.084   1.375  0.00  0.00     0.210 HD
ENDBRANCH  19  22
ENDBRANCH  14  15
ENDBRANCH  12  14
ENDBRANCH   7  12
BRANCH   6  24
HETATM   24  O   UNK N   1       3.073   0.940  -0.183  0.00  0.00    -0.360 OA
HETATM   25  H   UNK N   1       3.063   0.005  -0.233  0.00  0.00     0.217 HD
ENDBRANCH   6  24
BRANCH  10  26
HETATM   26  O   UNK N   1      -4.167   1.305   0.319  0.00  0.00    -0.356 OA
HETATM   27  C   UNK N   1      -4.342  -0.061   0.281  0.00  0.00     0.210 C 
ENDBRANCH  10  26
TORSDOF 7
