MODEL 1
REMARK VINA RESULT:      -7.3      0.000      0.000
REMARK  7 active torsions:
REMARK  status: ('A' for Active; 'I' for Inactive)
REMARK    1  A    between atoms: C_6  and  O_18 
REMARK    2  A    between atoms: C_7  and  C_8 
REMARK    3  A    between atoms: C_8  and  O_10 
REMARK    4  A    between atoms: C_11  and  O_10 
REMARK    5  A    between atoms: C_12  and  O_17 
REMARK    6  A    between atoms: C_15  and  O_16 
REMARK    7  A    between atoms: C_21  and  O_22 
ROOT
HETATM    1  C   UNK N   1      31.356  17.572   7.937  0.00  0.00     0.050 A 
HETATM    2  C   UNK N   1      32.113  16.859   6.994  0.00  0.00    -0.004 A 
HETATM    3  C   UNK N   1      31.431  16.218   5.929  0.00  0.00    -0.019 A 
HETATM    4  C   UNK N   1      32.160  15.476   4.993  0.00  0.00     0.015 A 
HETATM    5  C   UNK N   1      33.542  15.357   5.108  0.00  0.00     0.038 A 
HETATM    6  C   UNK N   1      34.232  15.992   6.143  0.00  0.00     0.082 A 
HETATM    7  C   UNK N   1      33.533  16.769   7.101  0.00  0.00     0.083 A 
HETATM    8  C   UNK N   1      30.028  16.334   5.818  0.00  0.00    -0.048 A 
HETATM    9  C   UNK N   1      29.309  17.055   6.776  0.00  0.00     0.044 A 
HETATM   10  C   UNK N   1      29.965  17.666   7.845  0.00  0.00     0.069 A 
HETATM   11  C   UNK N   1      29.278  15.701   4.694  0.00  0.00     0.049 C 
ENDROOT
BRANCH   7  12
HETATM   12  C   UNK N   1      34.284  17.504   8.181  0.00  0.00     0.297 C 
HETATM   13  O   UNK N   1      34.868  18.542   7.907  0.00  0.00    -0.259 OA
BRANCH  12  14
HETATM   14  O   UNK N   1      34.343  17.020   9.450  0.00  0.00    -0.306 OA
BRANCH  14  15
HETATM   15  C   UNK N   1      34.943  15.819   9.821  0.00  0.00     0.197 C 
HETATM   16  C   UNK N   1      33.917  14.708  10.072  0.00  0.00     0.173 C 
HETATM   17  C   UNK N   1      34.656  13.820  11.012  0.00  0.00     0.006 C 
HETATM   18  C   UNK N   1      35.672  14.449  11.587  0.00  0.00     0.006 C 
HETATM   19  C   UNK N   1      35.790  15.854  11.109  0.00  0.00     0.173 C 
BRANCH  16  20
HETATM   20  O   UNK N   1      32.782  15.199  10.723  0.00  0.00    -0.389 OA
HETATM   21  H   UNK N   1      31.929  15.653  10.807  0.00  0.00     0.210 HD
ENDBRANCH  16  20
BRANCH  19  22
HETATM   22  O   UNK N   1      37.127  16.150  10.825  0.00  0.00    -0.389 OA
HETATM   23  H   UNK N   1      37.942  16.201  11.349  0.00  0.00     0.210 HD
ENDBRANCH  19  22
ENDBRANCH  14  15
ENDBRANCH  12  14
ENDBRANCH   7  12
BRANCH   6  24
HETATM   24  O   UNK N   1      35.568  15.858   6.198  0.00  0.00    -0.360 OA
HETATM   25  H   UNK N   1      36.123  16.525   5.846  0.00  0.00     0.217 HD
ENDBRANCH   6  24
BRANCH  10  26
HETATM   26  O   UNK N   1      29.239  18.329   8.777  0.00  0.00    -0.356 OA
HETATM   27  C   UNK N   1      28.093  17.814   9.341  0.00  0.00     0.210 C 
ENDBRANCH  10  26
TORSDOF 7
ENDMDL
MODEL 2
REMARK VINA RESULT:      -7.2      3.601      7.776
REMARK  7 active torsions:
REMARK  status: ('A' for Active; 'I' for Inactive)
REMARK    1  A    between atoms: C_6  and  O_18 
REMARK    2  A    between atoms: C_7  and  C_8 
REMARK    3  A    between atoms: C_8  and  O_10 
REMARK    4  A    between atoms: C_11  and  O_10 
REMARK    5  A    between atoms: C_12  and  O_17 
REMARK    6  A    between atoms: C_15  and  O_16 
REMARK    7  A    between atoms: C_21  and  O_22 
ROOT
HETATM    1  C   UNK N   1      30.491  16.791   5.826  0.00  0.00     0.050 A 
HETATM    2  C   UNK N   1      30.251  17.330   7.100  0.00  0.00    -0.004 A 
HETATM    3  C   UNK N   1      31.362  17.748   7.875  0.00  0.00    -0.019 A 
HETATM    4  C   UNK N   1      31.150  18.263   9.159  0.00  0.00     0.015 A 
HETATM    5  C   UNK N   1      29.863  18.356   9.679  0.00  0.00     0.038 A 
HETATM    6  C   UNK N   1      28.756  17.961   8.926  0.00  0.00     0.082 A 
HETATM    7  C   UNK N   1      28.925  17.453   7.612  0.00  0.00     0.083 A 
HETATM    8  C   UNK N   1      32.668  17.647   7.348  0.00  0.00    -0.048 A 
HETATM    9  C   UNK N   1      32.867  17.105   6.075  0.00  0.00     0.044 A 
HETATM   10  C   UNK N   1      31.785  16.664   5.314  0.00  0.00     0.069 A 
HETATM   11  C   UNK N   1      33.860  18.104   8.120  0.00  0.00     0.049 C 
ENDROOT
BRANCH   7  12
HETATM   12  C   UNK N   1      27.726  17.086   6.777  0.00  0.00     0.297 C 
HETATM   13  O   UNK N   1      27.013  16.156   7.125  0.00  0.00    -0.259 OA
BRANCH  12  14
HETATM   14  O   UNK N   1      27.437  17.755   5.630  0.00  0.00    -0.306 OA
BRANCH  14  15
HETATM   15  C   UNK N   1      26.688  18.927   5.555  0.00  0.00     0.197 C 
HETATM   16  C   UNK N   1      26.575  19.455   4.119  0.00  0.00     0.173 C 
HETATM   17  C   UNK N   1      26.344  20.909   4.349  0.00  0.00     0.006 C 
HETATM   18  C   UNK N   1      26.709  21.278   5.570  0.00  0.00     0.006 C 
HETATM   19  C   UNK N   1      27.222  20.128   6.362  0.00  0.00     0.173 C 
BRANCH  16  20
HETATM   20  O   UNK N   1      27.776  19.300   3.423  0.00  0.00    -0.389 OA
HETATM   21  H   UNK N   1      28.571  19.581   2.943  0.00  0.00     0.210 HD
ENDBRANCH  16  20
BRANCH  19  22
HETATM   22  O   UNK N   1      26.677  20.152   7.649  0.00  0.00    -0.389 OA
HETATM   23  H   UNK N   1      25.777  20.199   8.009  0.00  0.00     0.210 HD
ENDBRANCH  19  22
ENDBRANCH  14  15
ENDBRANCH  12  14
ENDBRANCH   7  12
BRANCH   6  24
HETATM   24  O   UNK N   1      27.533  18.087   9.469  0.00  0.00    -0.360 OA
HETATM   25  H   UNK N   1      27.088  18.910   9.440  0.00  0.00     0.217 HD
ENDBRANCH   6  24
BRANCH  10  26
HETATM   26  O   UNK N   1      32.010  16.112   4.097  0.00  0.00    -0.356 OA
HETATM   27  C   UNK N   1      32.252  16.861   2.966  0.00  0.00     0.210 C 
ENDBRANCH  10  26
TORSDOF 7
ENDMDL
MODEL 3
REMARK VINA RESULT:      -6.9     13.422     16.507
REMARK  7 active torsions:
REMARK  status: ('A' for Active; 'I' for Inactive)
REMARK    1  A    between atoms: C_6  and  O_18 
REMARK    2  A    between atoms: C_7  and  C_8 
REMARK    3  A    between atoms: C_8  and  O_10 
REMARK    4  A    between atoms: C_11  and  O_10 
REMARK    5  A    between atoms: C_12  and  O_17 
REMARK    6  A    between atoms: C_15  and  O_16 
REMARK    7  A    between atoms: C_21  and  O_22 
ROOT
HETATM    1  C   UNK N   1      28.289  22.757  -5.866  0.00  0.00     0.050 A 
HETATM    2  C   UNK N   1      29.270  22.510  -4.893  0.00  0.00    -0.004 A 
HETATM    3  C   UNK N   1      30.374  21.692  -5.242  0.00  0.00    -0.019 A 
HETATM    4  C   UNK N   1      31.351  21.408  -4.282  0.00  0.00     0.015 A 
HETATM    5  C   UNK N   1      31.239  21.912  -2.990  0.00  0.00     0.038 A 
HETATM    6  C   UNK N   1      30.165  22.730  -2.631  0.00  0.00     0.082 A 
HETATM    7  C   UNK N   1      29.164  23.059  -3.581  0.00  0.00     0.083 A 
HETATM    8  C   UNK N   1      30.483  21.176  -6.552  0.00  0.00    -0.048 A 
HETATM    9  C   UNK N   1      29.486  21.445  -7.494  0.00  0.00     0.044 A 
HETATM   10  C   UNK N   1      28.380  22.225  -7.155  0.00  0.00     0.069 A 
HETATM   11  C   UNK N   1      31.645  20.336  -6.968  0.00  0.00     0.049 C 
ENDROOT
BRANCH   7  12
HETATM   12  C   UNK N   1      28.040  23.991  -3.211  0.00  0.00     0.297 C 
HETATM   13  O   UNK N   1      27.300  23.702  -2.281  0.00  0.00    -0.259 OA
BRANCH  12  14
HETATM   14  O   UNK N   1      27.820  25.138  -3.907  0.00  0.00    -0.306 OA
BRANCH  14  15
HETATM   15  C   UNK N   1      26.574  25.731  -4.098  0.00  0.00     0.197 C 
HETATM   16  C   UNK N   1      26.126  25.683  -5.564  0.00  0.00     0.173 C 
HETATM   17  C   UNK N   1      25.197  26.846  -5.634  0.00  0.00     0.006 C 
HETATM   18  C   UNK N   1      25.391  27.691  -4.631  0.00  0.00     0.006 C 
HETATM   19  C   UNK N   1      26.465  27.220  -3.715  0.00  0.00     0.173 C 
BRANCH  16  20
HETATM   20  O   UNK N   1      27.196  25.915  -6.432  0.00  0.00    -0.389 OA
HETATM   21  H   UNK N   1      28.068  25.769  -6.831  0.00  0.00     0.210 HD
ENDBRANCH  16  20
BRANCH  19  22
HETATM   22  O   UNK N   1      26.057  27.369  -2.385  0.00  0.00    -0.389 OA
HETATM   23  H   UNK N   1      26.502  27.320  -1.524  0.00  0.00     0.210 HD
ENDBRANCH  19  22
ENDBRANCH  14  15
ENDBRANCH  12  14
ENDBRANCH   7  12
BRANCH   6  24
HETATM   24  O   UNK N   1      30.113  23.205  -1.375  0.00  0.00    -0.360 OA
HETATM   25  H   UNK N   1      29.663  24.005  -1.193  0.00  0.00     0.217 HD
ENDBRANCH   6  24
BRANCH  10  26
HETATM   26  O   UNK N   1      27.412  22.441  -8.078  0.00  0.00    -0.356 OA
HETATM   27  C   UNK N   1      26.080  22.572  -7.751  0.00  0.00     0.210 C 
ENDBRANCH  10  26
TORSDOF 7
ENDMDL
MODEL 4
REMARK VINA RESULT:      -6.8      6.184     10.570
REMARK  7 active torsions:
REMARK  status: ('A' for Active; 'I' for Inactive)
REMARK    1  A    between atoms: C_6  and  O_18 
REMARK    2  A    between atoms: C_7  and  C_8 
REMARK    3  A    between atoms: C_8  and  O_10 
REMARK    4  A    between atoms: C_11  and  O_10 
REMARK    5  A    between atoms: C_12  and  O_17 
REMARK    6  A    between atoms: C_15  and  O_16 
REMARK    7  A    between atoms: C_21  and  O_22 
ROOT
HETATM    1  C   UNK N   1      35.030  13.078  17.262  0.00  0.00     0.050 A 
HETATM    2  C   UNK N   1      35.165  11.706  16.999  0.00  0.00    -0.004 A 
HETATM    3  C   UNK N   1      35.462  10.838  18.079  0.00  0.00    -0.019 A 
HETATM    4  C   UNK N   1      35.629   9.470  17.838  0.00  0.00     0.015 A 
HETATM    5  C   UNK N   1      35.516   8.962  16.547  0.00  0.00     0.038 A 
HETATM    6  C   UNK N   1      35.211   9.799  15.472  0.00  0.00     0.082 A 
HETATM    7  C   UNK N   1      35.014  11.189  15.677  0.00  0.00     0.083 A 
HETATM    8  C   UNK N   1      35.583  11.356  19.387  0.00  0.00    -0.048 A 
HETATM    9  C   UNK N   1      35.441  12.729  19.611  0.00  0.00     0.044 A 
HETATM   10  C   UNK N   1      35.177  13.597  18.551  0.00  0.00     0.069 A 
HETATM   11  C   UNK N   1      35.865  10.472  20.556  0.00  0.00     0.049 C 
ENDROOT
BRANCH   7  12
HETATM   12  C   UNK N   1      34.624  12.081  14.528  0.00  0.00     0.297 C 
HETATM   13  O   UNK N   1      33.829  11.674  13.693  0.00  0.00    -0.259 OA
BRANCH  12  14
HETATM   14  O   UNK N   1      35.159  13.323  14.389  0.00  0.00    -0.306 OA
BRANCH  14  15
HETATM   15  C   UNK N   1      36.137  13.674  13.462  0.00  0.00     0.197 C 
HETATM   16  C   UNK N   1      35.571  14.511  12.308  0.00  0.00     0.173 C 
HETATM   17  C   UNK N   1      36.543  14.219  11.217  0.00  0.00     0.006 C 
HETATM   18  C   UNK N   1      37.240  13.117  11.462  0.00  0.00     0.006 C 
HETATM   19  C   UNK N   1      36.863  12.506  12.765  0.00  0.00     0.173 C 
BRANCH  16  20
HETATM   20  O   UNK N   1      34.311  14.052  11.916  0.00  0.00    -0.389 OA
HETATM   21  H   UNK N   1      33.672  13.508  11.429  0.00  0.00     0.210 HD
ENDBRANCH  16  20
BRANCH  19  22
HETATM   22  O   UNK N   1      38.013  12.136  13.469  0.00  0.00    -0.389 OA
HETATM   23  H   UNK N   1      38.621  12.592  14.073  0.00  0.00     0.210 HD
ENDBRANCH  19  22
ENDBRANCH  14  15
ENDBRANCH  12  14
ENDBRANCH   7  12
BRANCH   6  24
HETATM   24  O   UNK N   1      35.096   9.255  14.249  0.00  0.00    -0.360 OA
HETATM   25  H   UNK N   1      35.826   9.260  13.661  0.00  0.00     0.217 HD
ENDBRANCH   6  24
BRANCH  10  26
HETATM   26  O   UNK N   1      35.079  14.927  18.791  0.00  0.00    -0.356 OA
HETATM   27  C   UNK N   1      35.931  15.855  18.235  0.00  0.00     0.210 C 
ENDBRANCH  10  26
TORSDOF 7
ENDMDL
MODEL 5
REMARK VINA RESULT:      -6.6      8.044     12.420
REMARK  7 active torsions:
REMARK  status: ('A' for Active; 'I' for Inactive)
REMARK    1  A    between atoms: C_6  and  O_18 
REMARK    2  A    between atoms: C_7  and  C_8 
REMARK    3  A    between atoms: C_8  and  O_10 
REMARK    4  A    between atoms: C_11  and  O_10 
REMARK    5  A    between atoms: C_12  and  O_17 
REMARK    6  A    between atoms: C_15  and  O_16 
REMARK    7  A    between atoms: C_21  and  O_22 
ROOT
HETATM    1  C   UNK N   1      23.726  17.246   5.076  0.00  0.00     0.050 A 
HETATM    2  C   UNK N   1      24.008  18.360   4.269  0.00  0.00    -0.004 A 
HETATM    3  C   UNK N   1      25.359  18.623   3.933  0.00  0.00    -0.019 A 
HETATM    4  C   UNK N   1      25.669  19.744   3.154  0.00  0.00     0.015 A 
HETATM    5  C   UNK N   1      24.663  20.601   2.720  0.00  0.00     0.038 A 
HETATM    6  C   UNK N   1      23.325  20.351   3.031  0.00  0.00     0.082 A 
HETATM    7  C   UNK N   1      22.966  19.215   3.801  0.00  0.00     0.083 A 
HETATM    8  C   UNK N   1      26.380  17.755   4.380  0.00  0.00    -0.048 A 
HETATM    9  C   UNK N   1      26.059  16.655   5.181  0.00  0.00     0.044 A 
HETATM   10  C   UNK N   1      24.736  16.401   5.542  0.00  0.00     0.069 A 
HETATM   11  C   UNK N   1      27.811  17.981   4.022  0.00  0.00     0.049 C 
ENDROOT
BRANCH   7  12
HETATM   12  C   UNK N   1      21.518  18.912   4.083  0.00  0.00     0.297 C 
HETATM   13  O   UNK N   1      20.840  19.727   4.692  0.00  0.00    -0.259 OA
BRANCH  12  14
HETATM   14  O   UNK N   1      20.957  17.737   3.692  0.00  0.00    -0.306 OA
BRANCH  14  15
HETATM   15  C   UNK N   1      21.038  17.198   2.411  0.00  0.00     0.197 C 
HETATM   16  C   UNK N   1      20.056  17.861   1.437  0.00  0.00     0.173 C 
HETATM   17  C   UNK N   1      19.859  16.785   0.426  0.00  0.00     0.006 C 
HETATM   18  C   UNK N   1      20.220  15.598   0.895  0.00  0.00     0.006 C 
HETATM   19  C   UNK N   1      20.738  15.691   2.287  0.00  0.00     0.173 C 
BRANCH  16  20
HETATM   20  O   UNK N   1      18.829  18.125   2.052  0.00  0.00    -0.389 OA
HETATM   21  H   UNK N   1      18.132  18.666   2.454  0.00  0.00     0.210 HD
ENDBRANCH  16  20
BRANCH  19  22
HETATM   22  O   UNK N   1      21.906  14.933   2.413  0.00  0.00    -0.389 OA
HETATM   23  H   UNK N   1      22.452  14.637   3.159  0.00  0.00     0.210 HD
ENDBRANCH  19  22
ENDBRANCH  14  15
ENDBRANCH  12  14
ENDBRANCH   7  12
BRANCH   6  24
HETATM   24  O   UNK N   1      22.390  21.202   2.572  0.00  0.00    -0.360 OA
HETATM   25  H   UNK N   1      21.514  21.158   2.899  0.00  0.00     0.217 HD
ENDBRANCH   6  24
BRANCH  10  26
HETATM   26  O   UNK N   1      24.459  15.347   6.347  0.00  0.00    -0.356 OA
HETATM   27  C   UNK N   1      25.416  14.447   6.761  0.00  0.00     0.210 C 
ENDBRANCH  10  26
TORSDOF 7
ENDMDL
MODEL 6
REMARK VINA RESULT:      -6.6      9.816     13.034
REMARK  7 active torsions:
REMARK  status: ('A' for Active; 'I' for Inactive)
REMARK    1  A    between atoms: C_6  and  O_18 
REMARK    2  A    between atoms: C_7  and  C_8 
REMARK    3  A    between atoms: C_8  and  O_10 
REMARK    4  A    between atoms: C_11  and  O_10 
REMARK    5  A    between atoms: C_12  and  O_17 
REMARK    6  A    between atoms: C_15  and  O_16 
REMARK    7  A    between atoms: C_21  and  O_22 
ROOT
HETATM    1  C   UNK N   1      20.247  16.142   7.957  0.00  0.00     0.050 A 
HETATM    2  C   UNK N   1      21.480  15.694   7.457  0.00  0.00    -0.004 A 
HETATM    3  C   UNK N   1      22.066  14.543   8.040  0.00  0.00    -0.019 A 
HETATM    4  C   UNK N   1      23.307  14.093   7.577  0.00  0.00     0.015 A 
HETATM    5  C   UNK N   1      23.970  14.774   6.561  0.00  0.00     0.038 A 
HETATM    6  C   UNK N   1      23.403  15.902   5.966  0.00  0.00     0.082 A 
HETATM    7  C   UNK N   1      22.137  16.379   6.391  0.00  0.00     0.083 A 
HETATM    8  C   UNK N   1      21.394  13.857   9.075  0.00  0.00    -0.048 A 
HETATM    9  C   UNK N   1      20.167  14.333   9.547  0.00  0.00     0.044 A 
HETATM   10  C   UNK N   1      19.594  15.482   9.001  0.00  0.00     0.069 A 
HETATM   11  C   UNK N   1      21.963  12.624   9.694  0.00  0.00     0.049 C 
ENDROOT
BRANCH   7  12
HETATM   12  C   UNK N   1      21.498  17.559   5.707  0.00  0.00     0.297 C 
HETATM   13  O   UNK N   1      21.761  18.690   6.089  0.00  0.00    -0.259 OA
BRANCH  12  14
HETATM   14  O   UNK N   1      20.615  17.387   4.687  0.00  0.00    -0.306 OA
BRANCH  14  15
HETATM   15  C   UNK N   1      20.961  17.260   3.344  0.00  0.00     0.197 C 
HETATM   16  C   UNK N   1      20.048  18.085   2.428  0.00  0.00     0.173 C 
HETATM   17  C   UNK N   1      20.157  17.340   1.142  0.00  0.00     0.006 C 
HETATM   18  C   UNK N   1      20.610  16.107   1.325  0.00  0.00     0.006 C 
HETATM   19  C   UNK N   1      20.899  15.834   2.759  0.00  0.00     0.173 C 
BRANCH  16  20
HETATM   20  O   UNK N   1      18.719  18.040   2.857  0.00  0.00    -0.389 OA
HETATM   21  H   UNK N   1      17.875  18.391   3.182  0.00  0.00     0.210 HD
ENDBRANCH  16  20
BRANCH  19  22
HETATM   22  O   UNK N   1      22.132  15.186   2.883  0.00  0.00    -0.389 OA
HETATM   23  H   UNK N   1      22.900  15.060   2.303  0.00  0.00     0.210 HD
ENDBRANCH  19  22
ENDBRANCH  14  15
ENDBRANCH  12  14
ENDBRANCH   7  12
BRANCH   6  24
HETATM   24  O   UNK N   1      24.078  16.513   4.977  0.00  0.00    -0.360 OA
HETATM   25  H   UNK N   1      24.769  17.111   5.178  0.00  0.00     0.217 HD
ENDBRANCH   6  24
BRANCH  10  26
HETATM   26  O   UNK N   1      18.420  15.939   9.501  0.00  0.00    -0.356 OA
HETATM   27  C   UNK N   1      17.930  17.198   9.231  0.00  0.00     0.210 C 
ENDBRANCH  10  26
TORSDOF 7
ENDMDL
MODEL 7
REMARK VINA RESULT:      -6.5      1.615      3.703
REMARK  7 active torsions:
REMARK  status: ('A' for Active; 'I' for Inactive)
REMARK    1  A    between atoms: C_6  and  O_18 
REMARK    2  A    between atoms: C_7  and  C_8 
REMARK    3  A    between atoms: C_8  and  O_10 
REMARK    4  A    between atoms: C_11  and  O_10 
REMARK    5  A    between atoms: C_12  and  O_17 
REMARK    6  A    between atoms: C_15  and  O_16 
REMARK    7  A    between atoms: C_21  and  O_22 
ROOT
HETATM    1  C   UNK N   1      32.079  16.974   5.347  0.00  0.00     0.050 A 
HETATM    2  C   UNK N   1      31.038  17.202   6.260  0.00  0.00    -0.004 A 
HETATM    3  C   UNK N   1      29.706  17.217   5.774  0.00  0.00    -0.019 A 
HETATM    4  C   UNK N   1      28.653  17.471   6.660  0.00  0.00     0.015 A 
HETATM    5  C   UNK N   1      28.906  17.718   8.005  0.00  0.00     0.038 A 
HETATM    6  C   UNK N   1      30.210  17.694   8.505  0.00  0.00     0.082 A 
HETATM    7  C   UNK N   1      31.304  17.421   7.644  0.00  0.00     0.083 A 
HETATM    8  C   UNK N   1      29.452  16.973   4.407  0.00  0.00    -0.048 A 
HETATM    9  C   UNK N   1      30.515  16.748   3.527  0.00  0.00     0.044 A 
HETATM   10  C   UNK N   1      31.832  16.760   3.988  0.00  0.00     0.069 A 
HETATM   11  C   UNK N   1      28.062  16.949   3.862  0.00  0.00     0.049 C 
ENDROOT
BRANCH   7  12
HETATM   12  C   UNK N   1      32.703  17.335   8.195  0.00  0.00     0.297 C 
HETATM   13  O   UNK N   1      33.446  18.303   8.106  0.00  0.00    -0.259 OA
BRANCH  12  14
HETATM   14  O   UNK N   1      33.164  16.192   8.770  0.00  0.00    -0.306 OA
BRANCH  14  15
HETATM   15  C   UNK N   1      34.496  15.936   9.086  0.00  0.00     0.197 C 
HETATM   16  C   UNK N   1      34.766  14.441   9.301  0.00  0.00     0.173 C 
HETATM   17  C   UNK N   1      35.956  14.475  10.196  0.00  0.00     0.006 C 
HETATM   18  C   UNK N   1      36.094  15.654  10.786  0.00  0.00     0.006 C 
HETATM   19  C   UNK N   1      35.032  16.608  10.365  0.00  0.00     0.173 C 
BRANCH  16  20
HETATM   20  O   UNK N   1      33.713  13.826   9.983  0.00  0.00    -0.389 OA
HETATM   21  H   UNK N   1      32.798  13.693  10.276  0.00  0.00     0.210 HD
ENDBRANCH  16  20
BRANCH  19  22
HETATM   22  O   UNK N   1      35.597  17.855  10.080  0.00  0.00    -0.389 OA
HETATM   23  H   UNK N   1      36.384  18.335  10.384  0.00  0.00     0.210 HD
ENDBRANCH  19  22
ENDBRANCH  14  15
ENDBRANCH  12  14
ENDBRANCH   7  12
BRANCH   6  24
HETATM   24  O   UNK N   1      30.398  17.923   9.816  0.00  0.00    -0.360 OA
HETATM   25  H   UNK N   1      30.433  18.801  10.140  0.00  0.00     0.217 HD
ENDBRANCH   6  24
BRANCH  10  26
HETATM   26  O   UNK N   1      32.844  16.573   3.108  0.00  0.00    -0.356 OA
HETATM   27  C   UNK N   1      33.561  15.399   3.027  0.00  0.00     0.210 C 
ENDBRANCH  10  26
TORSDOF 7
ENDMDL
MODEL 8
REMARK VINA RESULT:      -6.5     14.048     17.157
REMARK  7 active torsions:
REMARK  status: ('A' for Active; 'I' for Inactive)
REMARK    1  A    between atoms: C_6  and  O_18 
REMARK    2  A    between atoms: C_7  and  C_8 
REMARK    3  A    between atoms: C_8  and  O_10 
REMARK    4  A    between atoms: C_11  and  O_10 
REMARK    5  A    between atoms: C_12  and  O_17 
REMARK    6  A    between atoms: C_15  and  O_16 
REMARK    7  A    between atoms: C_21  and  O_22 
ROOT
HETATM    1  C   UNK N   1      29.171  23.292  -3.958  0.00  0.00     0.050 A 
HETATM    2  C   UNK N   1      28.250  23.323  -5.017  0.00  0.00    -0.004 A 
HETATM    3  C   UNK N   1      28.509  22.523  -6.159  0.00  0.00    -0.019 A 
HETATM    4  C   UNK N   1      27.620  22.558  -7.239  0.00  0.00     0.015 A 
HETATM    5  C   UNK N   1      26.496  23.377  -7.203  0.00  0.00     0.038 A 
HETATM    6  C   UNK N   1      26.218  24.161  -6.082  0.00  0.00     0.082 A 
HETATM    7  C   UNK N   1      27.082  24.140  -4.957  0.00  0.00     0.083 A 
HETATM    8  C   UNK N   1      29.654  21.698  -6.197  0.00  0.00    -0.048 A 
HETATM    9  C   UNK N   1      30.548  21.693  -5.122  0.00  0.00     0.044 A 
HETATM   10  C   UNK N   1      30.319  22.497  -4.005  0.00  0.00     0.069 A 
HETATM   11  C   UNK N   1      29.946  20.819  -7.367  0.00  0.00     0.049 C 
ENDROOT
BRANCH   7  12
HETATM   12  C   UNK N   1      26.748  24.939  -3.725  0.00  0.00     0.297 C 
HETATM   13  O   UNK N   1      26.675  24.374  -2.643  0.00  0.00    -0.259 OA
BRANCH  12  14
HETATM   14  O   UNK N   1      26.505  26.275  -3.797  0.00  0.00    -0.306 OA
BRANCH  14  15
HETATM   15  C   UNK N   1      27.327  27.205  -4.429  0.00  0.00     0.197 C 
HETATM   16  C   UNK N   1      27.900  28.235  -3.448  0.00  0.00     0.173 C 
HETATM   17  C   UNK N   1      28.160  29.395  -4.346  0.00  0.00     0.006 C 
HETATM   18  C   UNK N   1      27.477  29.302  -5.479  0.00  0.00     0.006 C 
HETATM   19  C   UNK N   1      26.667  28.055  -5.533  0.00  0.00     0.173 C 
BRANCH  16  20
HETATM   20  O   UNK N   1      26.951  28.614  -2.495  0.00  0.00    -0.389 OA
HETATM   21  H   UNK N   1      26.580  29.133  -1.764  0.00  0.00     0.210 HD
ENDBRANCH  16  20
BRANCH  19  22
HETATM   22  O   UNK N   1      26.806  27.449  -6.786  0.00  0.00    -0.389 OA
HETATM   23  H   UNK N   1      26.201  27.009  -7.403  0.00  0.00     0.210 HD
ENDBRANCH  19  22
ENDBRANCH  14  15
ENDBRANCH  12  14
ENDBRANCH   7  12
BRANCH   6  24
HETATM   24  O   UNK N   1      25.110  24.922  -6.091  0.00  0.00    -0.360 OA
HETATM   25  H   UNK N   1      25.108  25.756  -5.665  0.00  0.00     0.217 HD
ENDBRANCH   6  24
BRANCH  10  26
HETATM   26  O   UNK N   1      31.220  22.499  -2.993  0.00  0.00    -0.356 OA
HETATM   27  C   UNK N   1      32.292  21.635  -2.942  0.00  0.00     0.210 C 
ENDBRANCH  10  26
TORSDOF 7
ENDMDL
MODEL 9
REMARK VINA RESULT:      -6.3      5.211      8.005
REMARK  7 active torsions:
REMARK  status: ('A' for Active; 'I' for Inactive)
REMARK    1  A    between atoms: C_6  and  O_18 
REMARK    2  A    between atoms: C_7  and  C_8 
REMARK    3  A    between atoms: C_8  and  O_10 
REMARK    4  A    between atoms: C_11  and  O_10 
REMARK    5  A    between atoms: C_12  and  O_17 
REMARK    6  A    between atoms: C_15  and  O_16 
REMARK    7  A    between atoms: C_21  and  O_22 
ROOT
HETATM    1  C   UNK N   1      24.132  17.138   4.576  0.00  0.00     0.050 A 
HETATM    2  C   UNK N   1      24.899  18.249   4.190  0.00  0.00    -0.004 A 
HETATM    3  C   UNK N   1      24.232  19.362   3.620  0.00  0.00    -0.019 A 
HETATM    4  C   UNK N   1      24.977  20.470   3.202  0.00  0.00     0.015 A 
HETATM    5  C   UNK N   1      26.363  20.479   3.332  0.00  0.00     0.038 A 
HETATM    6  C   UNK N   1      27.035  19.396   3.903  0.00  0.00     0.082 A 
HETATM    7  C   UNK N   1      26.315  18.263   4.358  0.00  0.00     0.083 A 
HETATM    8  C   UNK N   1      22.827  19.349   3.483  0.00  0.00    -0.048 A 
HETATM    9  C   UNK N   1      22.097  18.224   3.880  0.00  0.00     0.044 A 
HETATM   10  C   UNK N   1      22.744  17.111   4.416  0.00  0.00     0.069 A 
HETATM   11  C   UNK N   1      22.085  20.513   2.916  0.00  0.00     0.049 C 
ENDROOT
BRANCH   7  12
HETATM   12  C   UNK N   1      27.035  17.122   5.030  0.00  0.00     0.297 C 
HETATM   13  O   UNK N   1      27.491  16.215   4.350  0.00  0.00    -0.259 OA
BRANCH  12  14
HETATM   14  O   UNK N   1      27.166  17.073   6.383  0.00  0.00    -0.306 OA
BRANCH  14  15
HETATM   15  C   UNK N   1      28.159  17.721   7.114  0.00  0.00     0.197 C 
HETATM   16  C   UNK N   1      29.569  17.347   6.639  0.00  0.00     0.173 C 
HETATM   17  C   UNK N   1      30.376  17.595   7.867  0.00  0.00     0.006 C 
HETATM   18  C   UNK N   1      29.619  17.632   8.954  0.00  0.00     0.006 C 
HETATM   19  C   UNK N   1      28.180  17.438   8.629  0.00  0.00     0.173 C 
BRANCH  16  20
HETATM   20  O   UNK N   1      29.655  15.991   6.315  0.00  0.00    -0.389 OA
HETATM   21  H   UNK N   1      29.431  15.169   5.852  0.00  0.00     0.210 HD
ENDBRANCH  16  20
BRANCH  19  22
HETATM   22  O   UNK N   1      27.403  18.369   9.326  0.00  0.00    -0.389 OA
HETATM   23  H   UNK N   1      27.552  19.266   9.667  0.00  0.00     0.210 HD
ENDBRANCH  19  22
ENDBRANCH  14  15
ENDBRANCH  12  14
ENDBRANCH   7  12
BRANCH   6  24
HETATM   24  O   UNK N   1      28.373  19.463   4.020  0.00  0.00    -0.360 OA
HETATM   25  H   UNK N   1      28.840  18.785   4.467  0.00  0.00     0.217 HD
ENDBRANCH   6  24
BRANCH  10  26
HETATM   26  O   UNK N   1      22.015  16.022   4.760  0.00  0.00    -0.356 OA
HETATM   27  C   UNK N   1      22.583  14.853   5.218  0.00  0.00     0.210 C 
ENDBRANCH  10  26
TORSDOF 7
ENDMDL
