MODEL 1
REMARK VINA RESULT:      -6.3      0.000      0.000
REMARK  4 active torsions:
REMARK  status: ('A' for Active; 'I' for Inactive)
REMARK    1  A    between atoms: C_2  and  C_11 
REMARK    2  A    between atoms: C_7  and  C_14 
REMARK    3  A    between atoms: C_11  and  O_13 
REMARK    4  A    between atoms: C_14  and  O_16 
ROOT
HETATM    1  C   UNK N   1      33.758  17.739   6.406  0.00  0.00     0.030 A 
HETATM    2  C   UNK N   1      33.601  17.874   7.794  0.00  0.00     0.038 A 
HETATM    3  C   UNK N   1      32.344  17.659   8.376  0.00  0.00     0.019 A 
HETATM    4  C   UNK N   1      31.248  17.312   7.582  0.00  0.00     0.013 A 
HETATM    5  C   UNK N   1      31.405  17.177   6.202  0.00  0.00    -0.025 A 
HETATM    6  C   UNK N   1      30.317  16.831   5.405  0.00  0.00     0.030 A 
HETATM    7  C   UNK N   1      30.472  16.696   4.018  0.00  0.00     0.038 A 
HETATM    8  C   UNK N   1      31.729  16.911   3.435  0.00  0.00     0.019 A 
HETATM    9  C   UNK N   1      32.826  17.258   4.229  0.00  0.00     0.013 A 
HETATM   10  C   UNK N   1      32.668  17.392   5.610  0.00  0.00    -0.025 A 
ENDROOT
BRANCH   2  11
HETATM   11  C   UNK N   1      34.757  18.240   8.630  0.00  0.00     0.176 C 
HETATM   12  O   UNK N   1      35.353  19.286   8.431  0.00  0.00    -0.646 OA
BRANCH  11  13
HETATM   13  O   UNK N   1      35.161  17.422   9.622  0.00  0.00    -0.773 OA
HETATM   14  H   UNK N   1      35.273  16.506   9.457  0.00  0.00     0.167 HD
ENDBRANCH  11  13
ENDBRANCH   2  11
BRANCH   7  15
HETATM   15  C   UNK N   1      29.318  16.330   3.181  0.00  0.00     0.176 C 
HETATM   16  O   UNK N   1      28.271  16.953   3.270  0.00  0.00    -0.646 OA
BRANCH  15  17
HETATM   17  O   UNK N   1      29.408  15.304   2.312  0.00  0.00    -0.773 OA
HETATM   18  H   UNK N   1      28.720  15.152   1.695  0.00  0.00     0.167 HD
ENDBRANCH  15  17
ENDBRANCH   7  15
TORSDOF 4
ENDMDL
MODEL 2
REMARK VINA RESULT:      -6.3      0.055      6.289
REMARK  4 active torsions:
REMARK  status: ('A' for Active; 'I' for Inactive)
REMARK    1  A    between atoms: C_2  and  C_11 
REMARK    2  A    between atoms: C_7  and  C_14 
REMARK    3  A    between atoms: C_11  and  O_13 
REMARK    4  A    between atoms: C_14  and  O_16 
ROOT
HETATM    1  C   UNK N   1      30.306  16.839   5.410  0.00  0.00     0.030 A 
HETATM    2  C   UNK N   1      30.459  16.746   4.019  0.00  0.00     0.038 A 
HETATM    3  C   UNK N   1      31.711  16.995   3.439  0.00  0.00     0.019 A 
HETATM    4  C   UNK N   1      32.805  17.336   4.240  0.00  0.00     0.013 A 
HETATM    5  C   UNK N   1      32.651  17.428   5.624  0.00  0.00    -0.025 A 
HETATM    6  C   UNK N   1      33.737  17.767   6.427  0.00  0.00     0.030 A 
HETATM    7  C   UNK N   1      33.584  17.860   7.818  0.00  0.00     0.038 A 
HETATM    8  C   UNK N   1      32.332  17.611   8.398  0.00  0.00     0.019 A 
HETATM    9  C   UNK N   1      31.238  17.270   7.598  0.00  0.00     0.013 A 
HETATM   10  C   UNK N   1      31.393  17.178   6.213  0.00  0.00    -0.025 A 
ENDROOT
BRANCH   2  11
HETATM   11  C   UNK N   1      29.306  16.387   3.176  0.00  0.00     0.176 C 
HETATM   12  O   UNK N   1      28.250  16.987   3.291  0.00  0.00    -0.646 OA
BRANCH  11  13
HETATM   13  O   UNK N   1      29.412  15.394   2.271  0.00  0.00    -0.773 OA
HETATM   14  H   UNK N   1      29.989  14.673   2.433  0.00  0.00     0.167 HD
ENDBRANCH  11  13
ENDBRANCH   2  11
BRANCH   7  15
HETATM   15  C   UNK N   1      34.736  18.219   8.661  0.00  0.00     0.176 C 
HETATM   16  O   UNK N   1      35.337  19.265   8.470  0.00  0.00    -0.646 OA
BRANCH  15  17
HETATM   17  O   UNK N   1      35.135  17.395   9.650  0.00  0.00    -0.773 OA
HETATM   18  H   UNK N   1      35.993  17.020   9.628  0.00  0.00     0.167 HD
ENDBRANCH  15  17
ENDBRANCH   7  15
TORSDOF 4
ENDMDL
MODEL 3
REMARK VINA RESULT:      -6.1      1.517      2.826
REMARK  4 active torsions:
REMARK  status: ('A' for Active; 'I' for Inactive)
REMARK    1  A    between atoms: C_2  and  C_11 
REMARK    2  A    between atoms: C_7  and  C_14 
REMARK    3  A    between atoms: C_11  and  O_13 
REMARK    4  A    between atoms: C_14  and  O_16 
ROOT
HETATM    1  C   UNK N   1      32.245  17.896   8.530  0.00  0.00     0.030 A 
HETATM    2  C   UNK N   1      33.487  17.884   7.878  0.00  0.00     0.038 A 
HETATM    3  C   UNK N   1      33.556  17.548   6.518  0.00  0.00     0.019 A 
HETATM    4  C   UNK N   1      32.395  17.225   5.811  0.00  0.00     0.013 A 
HETATM    5  C   UNK N   1      31.160  17.238   6.460  0.00  0.00    -0.025 A 
HETATM    6  C   UNK N   1      29.999  16.918   5.761  0.00  0.00     0.030 A 
HETATM    7  C   UNK N   1      28.757  16.929   6.411  0.00  0.00     0.038 A 
HETATM    8  C   UNK N   1      28.688  17.266   7.771  0.00  0.00     0.019 A 
HETATM    9  C   UNK N   1      29.849  17.588   8.479  0.00  0.00     0.013 A 
HETATM   10  C   UNK N   1      31.084  17.575   7.829  0.00  0.00    -0.025 A 
ENDROOT
BRANCH   2  11
HETATM   11  C   UNK N   1      34.711  18.223   8.624  0.00  0.00     0.176 C 
HETATM   12  O   UNK N   1      35.318  19.252   8.374  0.00  0.00    -0.646 OA
BRANCH  11  13
HETATM   13  O   UNK N   1      35.167  17.399   9.587  0.00  0.00    -0.773 OA
HETATM   14  H   UNK N   1      34.781  16.553   9.701  0.00  0.00     0.167 HD
ENDBRANCH  11  13
ENDBRANCH   2  11
BRANCH   7  15
HETATM   15  C   UNK N   1      27.534  16.590   5.667  0.00  0.00     0.176 C 
HETATM   16  O   UNK N   1      27.585  15.828   4.714  0.00  0.00    -0.646 OA
BRANCH  15  17
HETATM   17  O   UNK N   1      26.349  17.118   6.032  0.00  0.00    -0.773 OA
HETATM   18  H   UNK N   1      26.012  16.960   6.892  0.00  0.00     0.167 HD
ENDBRANCH  15  17
ENDBRANCH   7  15
TORSDOF 4
ENDMDL
MODEL 4
REMARK VINA RESULT:      -6.1     10.818     13.354
REMARK  4 active torsions:
REMARK  status: ('A' for Active; 'I' for Inactive)
REMARK    1  A    between atoms: C_2  and  C_11 
REMARK    2  A    between atoms: C_7  and  C_14 
REMARK    3  A    between atoms: C_11  and  O_13 
REMARK    4  A    between atoms: C_14  and  O_16 
ROOT
HETATM    1  C   UNK N   1      35.300  10.510  18.326  0.00  0.00     0.030 A 
HETATM    2  C   UNK N   1      35.178  11.107  19.589  0.00  0.00     0.038 A 
HETATM    3  C   UNK N   1      35.150  12.505  19.698  0.00  0.00     0.019 A 
HETATM    4  C   UNK N   1      35.242  13.304  18.555  0.00  0.00     0.013 A 
HETATM    5  C   UNK N   1      35.364  12.709  17.299  0.00  0.00    -0.025 A 
HETATM    6  C   UNK N   1      35.456  13.499  16.156  0.00  0.00     0.030 A 
HETATM    7  C   UNK N   1      35.578  12.903  14.893  0.00  0.00     0.038 A 
HETATM    8  C   UNK N   1      35.606  11.505  14.784  0.00  0.00     0.019 A 
HETATM    9  C   UNK N   1      35.514  10.705  15.927  0.00  0.00     0.013 A 
HETATM   10  C   UNK N   1      35.393  11.302  17.183  0.00  0.00    -0.025 A 
ENDROOT
BRANCH   2  11
HETATM   11  C   UNK N   1      35.081  10.265  20.793  0.00  0.00     0.176 C 
HETATM   12  O   UNK N   1      34.120   9.529  20.953  0.00  0.00    -0.646 OA
BRANCH  11  13
HETATM   13  O   UNK N   1      36.052  10.303  21.726  0.00  0.00    -0.773 OA
HETATM   14  H   UNK N   1      35.929   9.869  22.548  0.00  0.00     0.167 HD
ENDBRANCH  11  13
ENDBRANCH   2  11
BRANCH   7  15
HETATM   15  C   UNK N   1      35.676  13.744  13.689  0.00  0.00     0.176 C 
HETATM   16  O   UNK N   1      34.766  13.759  12.874  0.00  0.00    -0.646 OA
BRANCH  15  17
HETATM   17  O   UNK N   1      36.769  14.503  13.479  0.00  0.00    -0.773 OA
HETATM   18  H   UNK N   1      37.585  14.097  13.262  0.00  0.00     0.167 HD
ENDBRANCH  15  17
ENDBRANCH   7  15
TORSDOF 4
ENDMDL
MODEL 5
REMARK VINA RESULT:      -6.1     11.449     14.600
REMARK  4 active torsions:
REMARK  status: ('A' for Active; 'I' for Inactive)
REMARK    1  A    between atoms: C_2  and  C_11 
REMARK    2  A    between atoms: C_7  and  C_14 
REMARK    3  A    between atoms: C_11  and  O_13 
REMARK    4  A    between atoms: C_14  and  O_16 
ROOT
HETATM    1  C   UNK N   1      27.453  23.203  -7.005  0.00  0.00     0.030 A 
HETATM    2  C   UNK N   1      26.336  24.050  -6.989  0.00  0.00     0.038 A 
HETATM    3  C   UNK N   1      26.019  24.763  -5.824  0.00  0.00     0.019 A 
HETATM    4  C   UNK N   1      26.810  24.632  -4.680  0.00  0.00     0.013 A 
HETATM    5  C   UNK N   1      27.922  23.788  -4.696  0.00  0.00    -0.025 A 
HETATM    6  C   UNK N   1      28.714  23.653  -3.559  0.00  0.00     0.030 A 
HETATM    7  C   UNK N   1      29.831  22.806  -3.573  0.00  0.00     0.038 A 
HETATM    8  C   UNK N   1      30.148  22.094  -4.739  0.00  0.00     0.019 A 
HETATM    9  C   UNK N   1      29.357  22.224  -5.884  0.00  0.00     0.013 A 
HETATM   10  C   UNK N   1      28.246  23.068  -5.867  0.00  0.00    -0.025 A 
ENDROOT
BRANCH   2  11
HETATM   11  C   UNK N   1      25.502  24.188  -8.195  0.00  0.00     0.176 C 
HETATM   12  O   UNK N   1      25.644  25.148  -8.935  0.00  0.00    -0.646 OA
BRANCH  11  13
HETATM   13  O   UNK N   1      24.577  23.253  -8.489  0.00  0.00    -0.773 OA
HETATM   14  H   UNK N   1      24.800  22.532  -9.045  0.00  0.00     0.167 HD
ENDBRANCH  11  13
ENDBRANCH   2  11
BRANCH   7  15
HETATM   15  C   UNK N   1      30.665  22.668  -2.368  0.00  0.00     0.176 C 
HETATM   16  O   UNK N   1      30.286  23.127  -1.302  0.00  0.00    -0.646 OA
BRANCH  15  17
HETATM   17  O   UNK N   1      31.852  22.034  -2.433  0.00  0.00    -0.773 OA
HETATM   18  H   UNK N   1      32.228  21.663  -1.659  0.00  0.00     0.167 HD
ENDBRANCH  15  17
ENDBRANCH   7  15
TORSDOF 4
ENDMDL
MODEL 6
REMARK VINA RESULT:      -6.1      5.938      8.173
REMARK  4 active torsions:
REMARK  status: ('A' for Active; 'I' for Inactive)
REMARK    1  A    between atoms: C_2  and  C_11 
REMARK    2  A    between atoms: C_7  and  C_14 
REMARK    3  A    between atoms: C_11  and  O_13 
REMARK    4  A    between atoms: C_14  and  O_16 
ROOT
HETATM    1  C   UNK N   1      26.054  18.127   4.694  0.00  0.00     0.030 A 
HETATM    2  C   UNK N   1      27.325  18.691   4.516  0.00  0.00     0.038 A 
HETATM    3  C   UNK N   1      27.461  19.887   3.796  0.00  0.00     0.019 A 
HETATM    4  C   UNK N   1      26.337  20.518   3.257  0.00  0.00     0.013 A 
HETATM    5  C   UNK N   1      25.072  19.956   3.435  0.00  0.00    -0.025 A 
HETATM    6  C   UNK N   1      23.948  20.580   2.901  0.00  0.00     0.030 A 
HETATM    7  C   UNK N   1      22.676  20.016   3.079  0.00  0.00     0.038 A 
HETATM    8  C   UNK N   1      22.541  18.820   3.798  0.00  0.00     0.019 A 
HETATM    9  C   UNK N   1      23.665  18.189   4.338  0.00  0.00     0.013 A 
HETATM   10  C   UNK N   1      24.929  18.752   4.159  0.00  0.00    -0.025 A 
ENDROOT
BRANCH   2  11
HETATM   11  C   UNK N   1      28.510  18.026   5.084  0.00  0.00     0.176 C 
HETATM   12  O   UNK N   1      28.414  17.367   6.107  0.00  0.00    -0.646 OA
BRANCH  11  13
HETATM   13  O   UNK N   1      29.708  18.142   4.477  0.00  0.00    -0.773 OA
HETATM   14  H   UNK N   1      30.490  17.913   4.938  0.00  0.00     0.167 HD
ENDBRANCH  11  13
ENDBRANCH   2  11
BRANCH   7  15
HETATM   15  C   UNK N   1      21.492  20.681   2.511  0.00  0.00     0.176 C 
HETATM   16  O   UNK N   1      21.351  20.758   1.300  0.00  0.00    -0.646 OA
BRANCH  15  17
HETATM   17  O   UNK N   1      20.555  21.207   3.323  0.00  0.00    -0.773 OA
HETATM   18  H   UNK N   1      20.728  22.006   3.781  0.00  0.00     0.167 HD
ENDBRANCH  15  17
ENDBRANCH   7  15
TORSDOF 4
ENDMDL
MODEL 7
REMARK VINA RESULT:      -6.0     10.751     13.988
REMARK  4 active torsions:
REMARK  status: ('A' for Active; 'I' for Inactive)
REMARK    1  A    between atoms: C_2  and  C_11 
REMARK    2  A    between atoms: C_7  and  C_14 
REMARK    3  A    between atoms: C_11  and  O_13 
REMARK    4  A    between atoms: C_14  and  O_16 
ROOT
HETATM    1  C   UNK N   1      35.429  13.537  16.087  0.00  0.00     0.030 A 
HETATM    2  C   UNK N   1      35.566  12.926  14.832  0.00  0.00     0.038 A 
HETATM    3  C   UNK N   1      35.623  11.527  14.743  0.00  0.00     0.019 A 
HETATM    4  C   UNK N   1      35.543  10.742  15.896  0.00  0.00     0.013 A 
HETATM    5  C   UNK N   1      35.407  11.352  17.144  0.00  0.00    -0.025 A 
HETATM    6  C   UNK N   1      35.327  10.575  18.297  0.00  0.00     0.030 A 
HETATM    7  C   UNK N   1      35.191  11.186  19.552  0.00  0.00     0.038 A 
HETATM    8  C   UNK N   1      35.134  12.584  19.641  0.00  0.00     0.019 A 
HETATM    9  C   UNK N   1      35.213  13.370  18.488  0.00  0.00     0.013 A 
HETATM   10  C   UNK N   1      35.350  12.760  17.240  0.00  0.00    -0.025 A 
ENDROOT
BRANCH   2  11
HETATM   11  C   UNK N   1      35.650  13.753  13.617  0.00  0.00     0.176 C 
HETATM   12  O   UNK N   1      34.744  13.738  12.799  0.00  0.00    -0.646 OA
BRANCH  11  13
HETATM   13  O   UNK N   1      36.728  14.533  13.402  0.00  0.00    -0.773 OA
HETATM   14  H   UNK N   1      37.160  14.515  12.571  0.00  0.00     0.167 HD
ENDBRANCH  11  13
ENDBRANCH   2  11
BRANCH   7  15
HETATM   15  C   UNK N   1      35.107  10.359  20.767  0.00  0.00     0.176 C 
HETATM   16  O   UNK N   1      34.130   9.655  20.965  0.00  0.00    -0.646 OA
BRANCH  15  17
HETATM   17  O   UNK N   1      36.108  10.375  21.668  0.00  0.00    -0.773 OA
HETATM   18  H   UNK N   1      36.829  10.963  21.555  0.00  0.00     0.167 HD
ENDBRANCH  15  17
ENDBRANCH   7  15
TORSDOF 4
ENDMDL
MODEL 8
REMARK VINA RESULT:      -6.0     14.701     16.084
REMARK  4 active torsions:
REMARK  status: ('A' for Active; 'I' for Inactive)
REMARK    1  A    between atoms: C_2  and  C_11 
REMARK    2  A    between atoms: C_7  and  C_14 
REMARK    3  A    between atoms: C_11  and  O_13 
REMARK    4  A    between atoms: C_14  and  O_16 
ROOT
HETATM    1  C   UNK N   1      25.872  25.436  -4.557  0.00  0.00     0.030 A 
HETATM    2  C   UNK N   1      25.830  26.837  -4.599  0.00  0.00     0.038 A 
HETATM    3  C   UNK N   1      25.723  27.494  -5.833  0.00  0.00     0.019 A 
HETATM    4  C   UNK N   1      25.658  26.759  -7.020  0.00  0.00     0.013 A 
HETATM    5  C   UNK N   1      25.699  25.365  -6.978  0.00  0.00    -0.025 A 
HETATM    6  C   UNK N   1      25.634  24.627  -8.157  0.00  0.00     0.030 A 
HETATM    7  C   UNK N   1      25.676  23.226  -8.116  0.00  0.00     0.038 A 
HETATM    8  C   UNK N   1      25.783  22.570  -6.882  0.00  0.00     0.019 A 
HETATM    9  C   UNK N   1      25.848  23.304  -5.694  0.00  0.00     0.013 A 
HETATM   10  C   UNK N   1      25.807  24.698  -5.738  0.00  0.00    -0.025 A 
ENDROOT
BRANCH   2  11
HETATM   11  C   UNK N   1      25.899  27.611  -3.348  0.00  0.00     0.176 C 
HETATM   12  O   UNK N   1      26.022  27.039  -2.277  0.00  0.00    -0.646 OA
BRANCH  11  13
HETATM   13  O   UNK N   1      25.827  28.957  -3.379  0.00  0.00    -0.773 OA
HETATM   14  H   UNK N   1      26.534  29.455  -3.740  0.00  0.00     0.167 HD
ENDBRANCH  11  13
ENDBRANCH   2  11
BRANCH   7  15
HETATM   15  C   UNK N   1      25.607  22.452  -9.366  0.00  0.00     0.176 C 
HETATM   16  O   UNK N   1      25.980  22.948 -10.418  0.00  0.00    -0.646 OA
BRANCH  15  17
HETATM   17  O   UNK N   1      25.131  21.191  -9.358  0.00  0.00    -0.773 OA
HETATM   18  H   UNK N   1      24.736  20.846  -8.582  0.00  0.00     0.167 HD
ENDBRANCH  15  17
ENDBRANCH   7  15
TORSDOF 4
ENDMDL
MODEL 9
REMARK VINA RESULT:      -5.9      1.159      6.021
REMARK  4 active torsions:
REMARK  status: ('A' for Active; 'I' for Inactive)
REMARK    1  A    between atoms: C_2  and  C_11 
REMARK    2  A    between atoms: C_7  and  C_14 
REMARK    3  A    between atoms: C_11  and  O_13 
REMARK    4  A    between atoms: C_14  and  O_16 
ROOT
HETATM    1  C   UNK N   1      30.460  16.795   5.223  0.00  0.00     0.030 A 
HETATM    2  C   UNK N   1      29.152  16.749   5.727  0.00  0.00     0.038 A 
HETATM    3  C   UNK N   1      28.913  17.062   7.073  0.00  0.00     0.019 A 
HETATM    4  C   UNK N   1      29.971  17.420   7.912  0.00  0.00     0.013 A 
HETATM    5  C   UNK N   1      31.272  17.466   7.410  0.00  0.00    -0.025 A 
HETATM    6  C   UNK N   1      32.331  17.822   8.242  0.00  0.00     0.030 A 
HETATM    7  C   UNK N   1      33.639  17.868   7.739  0.00  0.00     0.038 A 
HETATM    8  C   UNK N   1      33.878  17.555   6.393  0.00  0.00     0.019 A 
HETATM    9  C   UNK N   1      32.820  17.197   5.552  0.00  0.00     0.013 A 
HETATM   10  C   UNK N   1      31.519  17.151   6.056  0.00  0.00    -0.025 A 
ENDROOT
BRANCH   2  11
HETATM   11  C   UNK N   1      28.037  16.372   4.841  0.00  0.00     0.176 C 
HETATM   12  O   UNK N   1      27.771  17.052   3.863  0.00  0.00    -0.646 OA
BRANCH  11  13
HETATM   13  O   UNK N   1      27.304  15.273   5.107  0.00  0.00    -0.773 OA
HETATM   14  H   UNK N   1      26.403  15.359   5.351  0.00  0.00     0.167 HD
ENDBRANCH  11  13
ENDBRANCH   2  11
BRANCH   7  15
HETATM   15  C   UNK N   1      34.754  18.245   8.623  0.00  0.00     0.176 C 
HETATM   16  O   UNK N   1      35.334  19.308   8.463  0.00  0.00    -0.646 OA
BRANCH  15  17
HETATM   17  O   UNK N   1      35.141  17.420   9.616  0.00  0.00    -0.773 OA
HETATM   18  H   UNK N   1      34.620  16.672   9.832  0.00  0.00     0.167 HD
ENDBRANCH  15  17
ENDBRANCH   7  15
TORSDOF 4
ENDMDL
