MODEL 1
REMARK VINA RESULT:      -6.3      0.000      0.000
REMARK  7 active torsions:
REMARK  status: ('A' for Active; 'I' for Inactive)
REMARK    1  A    between atoms: C_6  and  C_7 
REMARK    2  A    between atoms: C_7  and  C_8 
REMARK    3  A    between atoms: C_8  and  C_9 
REMARK    4  A    between atoms: C_8  and  N_12 
REMARK    5  A    between atoms: C_9  and  O_11 
REMARK       I    between atoms: N_12  and  C_13 
REMARK    6  A    between atoms: C_13  and  C_15 
REMARK    7  A    between atoms: C_15  and  O_16 
ROOT
HETATM    1  C   UNK N   1      33.177  17.419   8.406  0.00  0.00     0.187 C 
ENDROOT
BRANCH   1   2
HETATM    2  C   UNK N   1      32.033  18.373   8.773  0.00  0.00     0.074 C 
BRANCH   2   3
HETATM    3  C   UNK N   1      30.624  17.934   8.507  0.00  0.00    -0.056 A 
HETATM    4  C   UNK N   1      29.632  18.264   9.438  0.00  0.00     0.007 A 
HETATM    5  C   UNK N   1      28.294  17.942   9.187  0.00  0.00     0.001 A 
HETATM    6  C   UNK N   1      27.942  17.293   8.001  0.00  0.00     0.000 A 
HETATM    7  C   UNK N   1      28.928  16.965   7.067  0.00  0.00     0.001 A 
HETATM    8  C   UNK N   1      30.264  17.294   7.315  0.00  0.00     0.007 A 
ENDBRANCH   2   3
ENDBRANCH   1   2
BRANCH   1   9
HETATM    9  C   UNK N   1      34.279  18.165   7.674  0.00  0.00     0.163 C 
HETATM   10  O   UNK N   1      34.498  17.935   6.497  0.00  0.00    -0.648 OA
BRANCH   9  11
HETATM   11  O   UNK N   1      35.035  19.079   8.315  0.00  0.00    -0.775 OA
HETATM   12  H   UNK N   1      35.277  19.092   9.219  0.00  0.00     0.167 HD
ENDBRANCH   9  11
ENDBRANCH   1   9
BRANCH   1  13
HETATM   13  N   UNK N   1      33.651  16.866   9.663  0.00  0.00    -0.337 N 
HETATM   14  C   UNK N   1      34.328  15.696   9.800  0.00  0.00     0.315 C 
HETATM   15  O   UNK N   1      34.630  15.029   8.820  0.00  0.00    -0.261 OA
HETATM   16  H   UNK N   1      33.466  17.381  10.481  0.00  0.00     0.164 HD
BRANCH  14  17
HETATM   17  C   UNK N   1      34.708  15.230  11.147  0.00  0.00     0.236 C 
HETATM   18  O   UNK N   1      35.644  15.752  11.734  0.00  0.00    -0.643 OA
BRANCH  17  19
HETATM   19  O   UNK N   1      34.025  14.233  11.739  0.00  0.00    -0.769 OA
HETATM   20  H   UNK N   1      33.915  14.158  12.667  0.00  0.00     0.168 HD
ENDBRANCH  17  19
ENDBRANCH  14  17
ENDBRANCH   1  13
TORSDOF 7
ENDMDL
MODEL 2
REMARK VINA RESULT:      -6.1     10.886     12.843
REMARK  7 active torsions:
REMARK  status: ('A' for Active; 'I' for Inactive)
REMARK    1  A    between atoms: C_6  and  C_7 
REMARK    2  A    between atoms: C_7  and  C_8 
REMARK    3  A    between atoms: C_8  and  C_9 
REMARK    4  A    between atoms: C_8  and  N_12 
REMARK    5  A    between atoms: C_9  and  O_11 
REMARK       I    between atoms: N_12  and  C_13 
REMARK    6  A    between atoms: C_13  and  C_15 
REMARK    7  A    between atoms: C_15  and  O_16 
ROOT
HETATM    1  C   UNK N   1      20.971  14.518   8.574  0.00  0.00     0.187 C 
ENDROOT
BRANCH   1   2
HETATM    2  C   UNK N   1      20.925  13.488   9.711  0.00  0.00     0.074 C 
BRANCH   2   3
HETATM    3  C   UNK N   1      22.219  12.928  10.220  0.00  0.00    -0.056 A 
HETATM    4  C   UNK N   1      23.393  13.193   9.505  0.00  0.00     0.007 A 
HETATM    5  C   UNK N   1      24.629  12.757   9.990  0.00  0.00     0.001 A 
HETATM    6  C   UNK N   1      24.697  12.056  11.197  0.00  0.00     0.000 A 
HETATM    7  C   UNK N   1      23.530  11.792  11.918  0.00  0.00     0.001 A 
HETATM    8  C   UNK N   1      22.295  12.235  11.435  0.00  0.00     0.007 A 
ENDBRANCH   2   3
ENDBRANCH   1   2
BRANCH   1   9
HETATM    9  C   UNK N   1      20.491  13.898   7.273  0.00  0.00     0.163 C 
HETATM   10  O   UNK N   1      20.698  12.718   7.044  0.00  0.00    -0.648 OA
BRANCH   9  11
HETATM   11  O   UNK N   1      19.842  14.640   6.355  0.00  0.00    -0.775 OA
HETATM   12  H   UNK N   1      20.194  15.034   5.582  0.00  0.00     0.167 HD
ENDBRANCH   9  11
ENDBRANCH   1   9
BRANCH   1  13
HETATM   13  N   UNK N   1      20.110  15.610   8.994  0.00  0.00    -0.337 N 
HETATM   14  C   UNK N   1      20.193  16.890   8.547  0.00  0.00     0.315 C 
HETATM   15  O   UNK N   1      21.011  17.203   7.692  0.00  0.00    -0.261 OA
HETATM   16  H   UNK N   1      19.411  15.406   9.655  0.00  0.00     0.164 HD
BRANCH  14  17
HETATM   17  C   UNK N   1      19.283  17.912   9.096  0.00  0.00     0.236 C 
HETATM   18  O   UNK N   1      18.095  17.660   9.244  0.00  0.00    -0.643 OA
BRANCH  17  19
HETATM   19  O   UNK N   1      19.751  19.125   9.443  0.00  0.00    -0.769 OA
HETATM   20  H   UNK N   1      20.434  19.258  10.071  0.00  0.00     0.168 HD
ENDBRANCH  17  19
ENDBRANCH  14  17
ENDBRANCH   1  13
TORSDOF 7
ENDMDL
MODEL 3
REMARK VINA RESULT:      -6.1     16.492     18.596
REMARK  7 active torsions:
REMARK  status: ('A' for Active; 'I' for Inactive)
REMARK    1  A    between atoms: C_6  and  C_7 
REMARK    2  A    between atoms: C_7  and  C_8 
REMARK    3  A    between atoms: C_8  and  C_9 
REMARK    4  A    between atoms: C_8  and  N_12 
REMARK    5  A    between atoms: C_9  and  O_11 
REMARK       I    between atoms: N_12  and  C_13 
REMARK    6  A    between atoms: C_13  and  C_15 
REMARK    7  A    between atoms: C_15  and  O_16 
ROOT
HETATM    1  C   UNK N   1      26.228  24.700  -5.810  0.00  0.00     0.187 C 
ENDROOT
BRANCH   1   2
HETATM    2  C   UNK N   1      25.296  25.902  -5.609  0.00  0.00     0.074 C 
BRANCH   2   3
HETATM    3  C   UNK N   1      25.909  27.251  -5.378  0.00  0.00    -0.056 A 
HETATM    4  C   UNK N   1      25.558  27.958  -4.222  0.00  0.00     0.007 A 
HETATM    5  C   UNK N   1      26.169  29.182  -3.931  0.00  0.00     0.001 A 
HETATM    6  C   UNK N   1      27.137  29.702  -4.794  0.00  0.00     0.000 A 
HETATM    7  C   UNK N   1      27.494  28.999  -5.947  0.00  0.00     0.001 A 
HETATM    8  C   UNK N   1      26.889  27.771  -6.233  0.00  0.00     0.007 A 
ENDBRANCH   2   3
ENDBRANCH   1   2
BRANCH   1   9
HETATM    9  C   UNK N   1      26.862  24.291  -4.492  0.00  0.00     0.163 C 
HETATM   10  O   UNK N   1      28.021  23.914  -4.460  0.00  0.00    -0.648 OA
BRANCH   9  11
HETATM   11  O   UNK N   1      26.153  24.328  -3.346  0.00  0.00    -0.775 OA
HETATM   12  H   UNK N   1      26.359  24.791  -2.558  0.00  0.00     0.167 HD
ENDBRANCH   9  11
ENDBRANCH   1   9
BRANCH   1  13
HETATM   13  N   UNK N   1      25.397  23.641  -6.354  0.00  0.00    -0.337 N 
HETATM   14  C   UNK N   1      25.810  22.693  -7.235  0.00  0.00     0.315 C 
HETATM   15  O   UNK N   1      26.975  22.650  -7.608  0.00  0.00    -0.261 OA
HETATM   16  H   UNK N   1      24.458  23.606  -6.059  0.00  0.00     0.164 HD
BRANCH  14  17
HETATM   17  C   UNK N   1      24.843  21.702  -7.744  0.00  0.00     0.236 C 
HETATM   18  O   UNK N   1      25.174  20.532  -7.868  0.00  0.00    -0.643 OA
BRANCH  17  19
HETATM   19  O   UNK N   1      23.592  22.077  -8.069  0.00  0.00    -0.769 OA
HETATM   20  H   UNK N   1      22.848  21.937  -7.516  0.00  0.00     0.168 HD
ENDBRANCH  17  19
ENDBRANCH  14  17
ENDBRANCH   1  13
TORSDOF 7
ENDMDL
MODEL 4
REMARK VINA RESULT:      -6.0     11.248     13.105
REMARK  7 active torsions:
REMARK  status: ('A' for Active; 'I' for Inactive)
REMARK    1  A    between atoms: C_6  and  C_7 
REMARK    2  A    between atoms: C_7  and  C_8 
REMARK    3  A    between atoms: C_8  and  C_9 
REMARK    4  A    between atoms: C_8  and  N_12 
REMARK    5  A    between atoms: C_9  and  O_11 
REMARK       I    between atoms: N_12  and  C_13 
REMARK    6  A    between atoms: C_13  and  C_15 
REMARK    7  A    between atoms: C_15  and  O_16 
ROOT
HETATM    1  C   UNK N   1      21.021  15.847   8.144  0.00  0.00     0.187 C 
ENDROOT
BRANCH   1   2
HETATM    2  C   UNK N   1      21.152  14.321   8.057  0.00  0.00     0.074 C 
BRANCH   2   3
HETATM    3  C   UNK N   1      21.677  13.581   9.251  0.00  0.00    -0.056 A 
HETATM    4  C   UNK N   1      20.763  13.080  10.185  0.00  0.00     0.007 A 
HETATM    5  C   UNK N   1      21.208  12.315  11.268  0.00  0.00     0.001 A 
HETATM    6  C   UNK N   1      22.571  12.045  11.419  0.00  0.00     0.000 A 
HETATM    7  C   UNK N   1      23.487  12.539  10.487  0.00  0.00     0.001 A 
HETATM    8  C   UNK N   1      23.040  13.296   9.400  0.00  0.00     0.007 A 
ENDBRANCH   2   3
ENDBRANCH   1   2
BRANCH   1   9
HETATM    9  C   UNK N   1      21.393  16.490   6.819  0.00  0.00     0.163 C 
HETATM   10  O   UNK N   1      21.472  15.811   5.809  0.00  0.00    -0.648 OA
BRANCH   9  11
HETATM   11  O   UNK N   1      21.651  17.811   6.743  0.00  0.00    -0.775 OA
HETATM   12  H   UNK N   1      22.073  18.275   6.048  0.00  0.00     0.167 HD
ENDBRANCH   9  11
ENDBRANCH   1   9
BRANCH   1  13
HETATM   13  N   UNK N   1      19.634  16.107   8.491  0.00  0.00    -0.337 N 
HETATM   14  C   UNK N   1      19.158  17.272   9.003  0.00  0.00     0.315 C 
HETATM   15  O   UNK N   1      19.899  18.231   9.170  0.00  0.00    -0.261 OA
HETATM   16  H   UNK N   1      18.988  15.380   8.344  0.00  0.00     0.164 HD
BRANCH  14  17
HETATM   17  C   UNK N   1      17.731  17.381   9.356  0.00  0.00     0.236 C 
HETATM   18  O   UNK N   1      16.938  16.533   8.973  0.00  0.00    -0.643 OA
BRANCH  17  19
HETATM   19  O   UNK N   1      17.292  18.410  10.105  0.00  0.00    -0.769 OA
HETATM   20  H   UNK N   1      17.743  19.228  10.178  0.00  0.00     0.168 HD
ENDBRANCH  17  19
ENDBRANCH  14  17
ENDBRANCH   1  13
TORSDOF 7
ENDMDL
MODEL 5
REMARK VINA RESULT:      -6.0      1.184      1.981
REMARK  7 active torsions:
REMARK  status: ('A' for Active; 'I' for Inactive)
REMARK    1  A    between atoms: C_6  and  C_7 
REMARK    2  A    between atoms: C_7  and  C_8 
REMARK    3  A    between atoms: C_8  and  C_9 
REMARK    4  A    between atoms: C_8  and  N_12 
REMARK    5  A    between atoms: C_9  and  O_11 
REMARK       I    between atoms: N_12  and  C_13 
REMARK    6  A    between atoms: C_13  and  C_15 
REMARK    7  A    between atoms: C_15  and  O_16 
ROOT
HETATM    1  C   UNK N   1      33.305  16.535   7.919  0.00  0.00     0.187 C 
ENDROOT
BRANCH   1   2
HETATM    2  C   UNK N   1      32.576  17.797   8.400  0.00  0.00     0.074 C 
BRANCH   2   3
HETATM    3  C   UNK N   1      31.082  17.848   8.278  0.00  0.00    -0.056 A 
HETATM    4  C   UNK N   1      30.468  17.126   7.249  0.00  0.00     0.007 A 
HETATM    5  C   UNK N   1      29.073  17.084   7.151  0.00  0.00     0.001 A 
HETATM    6  C   UNK N   1      28.287  17.761   8.086  0.00  0.00     0.000 A 
HETATM    7  C   UNK N   1      28.895  18.480   9.119  0.00  0.00     0.001 A 
HETATM    8  C   UNK N   1      30.289  18.515   9.220  0.00  0.00     0.007 A 
ENDBRANCH   2   3
ENDBRANCH   1   2
BRANCH   1   9
HETATM    9  C   UNK N   1      34.224  16.861   6.755  0.00  0.00     0.163 C 
HETATM   10  O   UNK N   1      35.040  16.040   6.371  0.00  0.00    -0.648 OA
BRANCH   9  11
HETATM   11  O   UNK N   1      34.157  18.058   6.139  0.00  0.00    -0.775 OA
HETATM   12  H   UNK N   1      34.616  18.844   6.360  0.00  0.00     0.167 HD
ENDBRANCH   9  11
ENDBRANCH   1   9
BRANCH   1  13
HETATM   13  N   UNK N   1      34.051  16.048   9.067  0.00  0.00    -0.337 N 
HETATM   14  C   UNK N   1      34.983  16.757   9.756  0.00  0.00     0.315 C 
HETATM   15  O   UNK N   1      35.229  17.919   9.462  0.00  0.00    -0.261 OA
HETATM   16  H   UNK N   1      33.866  15.130   9.369  0.00  0.00     0.164 HD
BRANCH  14  17
HETATM   17  C   UNK N   1      35.700  16.119  10.875  0.00  0.00     0.236 C 
HETATM   18  O   UNK N   1      35.074  15.606  11.792  0.00  0.00    -0.643 OA
BRANCH  17  19
HETATM   19  O   UNK N   1      37.046  16.092  10.894  0.00  0.00    -0.769 OA
HETATM   20  H   UNK N   1      37.561  16.424  11.603  0.00  0.00     0.168 HD
ENDBRANCH  17  19
ENDBRANCH  14  17
ENDBRANCH   1  13
TORSDOF 7
ENDMDL
MODEL 6
REMARK VINA RESULT:      -5.8      4.385      6.781
REMARK  7 active torsions:
REMARK  status: ('A' for Active; 'I' for Inactive)
REMARK    1  A    between atoms: C_6  and  C_7 
REMARK    2  A    between atoms: C_7  and  C_8 
REMARK    3  A    between atoms: C_8  and  C_9 
REMARK    4  A    between atoms: C_8  and  N_12 
REMARK    5  A    between atoms: C_9  and  O_11 
REMARK       I    between atoms: N_12  and  C_13 
REMARK    6  A    between atoms: C_13  and  C_15 
REMARK    7  A    between atoms: C_15  and  O_16 
ROOT
HETATM    1  C   UNK N   1      29.312  17.751   8.602  0.00  0.00     0.187 C 
ENDROOT
BRANCH   1   2
HETATM    2  C   UNK N   1      30.746  18.231   8.864  0.00  0.00     0.074 C 
BRANCH   2   3
HETATM    3  C   UNK N   1      31.828  17.795   7.922  0.00  0.00    -0.056 A 
HETATM    4  C   UNK N   1      31.465  17.143   6.738  0.00  0.00     0.007 A 
HETATM    5  C   UNK N   1      32.439  16.793   5.797  0.00  0.00     0.001 A 
HETATM    6  C   UNK N   1      33.781  17.099   6.036  0.00  0.00     0.000 A 
HETATM    7  C   UNK N   1      34.149  17.754   7.214  0.00  0.00     0.001 A 
HETATM    8  C   UNK N   1      33.174  18.110   8.150  0.00  0.00     0.007 A 
ENDBRANCH   2   3
ENDBRANCH   1   2
BRANCH   1   9
HETATM    9  C   UNK N   1      28.765  17.017   9.813  0.00  0.00     0.163 C 
HETATM   10  O   UNK N   1      27.579  16.742   9.879  0.00  0.00    -0.648 OA
BRANCH   9  11
HETATM   11  O   UNK N   1      29.576  16.671  10.833  0.00  0.00    -0.775 OA
HETATM   12  H   UNK N   1      30.172  17.218  11.304  0.00  0.00     0.167 HD
ENDBRANCH   9  11
ENDBRANCH   1   9
BRANCH   1  13
HETATM   13  N   UNK N   1      28.541  18.947   8.310  0.00  0.00    -0.337 N 
HETATM   14  C   UNK N   1      27.904  19.204   7.137  0.00  0.00     0.315 C 
HETATM   15  O   UNK N   1      27.907  18.382   6.230  0.00  0.00    -0.261 OA
HETATM   16  H   UNK N   1      28.475  19.627   9.018  0.00  0.00     0.164 HD
BRANCH  14  17
HETATM   17  C   UNK N   1      27.195  20.485   6.960  0.00  0.00     0.236 C 
HETATM   18  O   UNK N   1      27.516  21.243   6.056  0.00  0.00    -0.643 OA
BRANCH  17  19
HETATM   19  O   UNK N   1      26.190  20.827   7.787  0.00  0.00    -0.769 OA
HETATM   20  H   UNK N   1      25.310  20.976   7.501  0.00  0.00     0.168 HD
ENDBRANCH  17  19
ENDBRANCH  14  17
ENDBRANCH   1  13
TORSDOF 7
ENDMDL
MODEL 7
REMARK VINA RESULT:      -5.8     11.866     13.752
REMARK  7 active torsions:
REMARK  status: ('A' for Active; 'I' for Inactive)
REMARK    1  A    between atoms: C_6  and  C_7 
REMARK    2  A    between atoms: C_7  and  C_8 
REMARK    3  A    between atoms: C_8  and  C_9 
REMARK    4  A    between atoms: C_8  and  N_12 
REMARK    5  A    between atoms: C_9  and  O_11 
REMARK       I    between atoms: N_12  and  C_13 
REMARK    6  A    between atoms: C_13  and  C_15 
REMARK    7  A    between atoms: C_15  and  O_16 
ROOT
HETATM    1  C   UNK N   1      19.859  15.765   7.914  0.00  0.00     0.187 C 
ENDROOT
BRANCH   1   2
HETATM    2  C   UNK N   1      21.242  15.370   8.449  0.00  0.00     0.074 C 
BRANCH   2   3
HETATM    3  C   UNK N   1      21.342  14.188   9.367  0.00  0.00    -0.056 A 
HETATM    4  C   UNK N   1      22.602  13.622   9.597  0.00  0.00     0.007 A 
HETATM    5  C   UNK N   1      22.747  12.571  10.508  0.00  0.00     0.001 A 
HETATM    6  C   UNK N   1      21.633  12.085  11.197  0.00  0.00     0.000 A 
HETATM    7  C   UNK N   1      20.374  12.649  10.974  0.00  0.00     0.001 A 
HETATM    8  C   UNK N   1      20.231  13.704  10.069  0.00  0.00     0.007 A 
ENDBRANCH   2   3
ENDBRANCH   1   2
BRANCH   1   9
HETATM    9  C   UNK N   1      19.355  17.016   8.612  0.00  0.00     0.163 C 
HETATM   10  O   UNK N   1      20.147  17.840   9.039  0.00  0.00    -0.648 OA
BRANCH   9  11
HETATM   11  O   UNK N   1      18.035  17.228   8.777  0.00  0.00    -0.775 OA
HETATM   12  H   UNK N   1      17.557  17.279   9.581  0.00  0.00     0.167 HD
ENDBRANCH   9  11
ENDBRANCH   1   9
BRANCH   1  13
HETATM   13  N   UNK N   1      20.034  15.983   6.489  0.00  0.00    -0.337 N 
HETATM   14  C   UNK N   1      19.033  16.003   5.570  0.00  0.00     0.315 C 
HETATM   15  O   UNK N   1      17.865  15.876   5.913  0.00  0.00    -0.261 OA
HETATM   16  H   UNK N   1      20.951  16.127   6.162  0.00  0.00     0.164 HD
BRANCH  14  17
HETATM   17  C   UNK N   1      19.359  16.188   4.143  0.00  0.00     0.236 C 
HETATM   18  O   UNK N   1      19.978  15.323   3.539  0.00  0.00    -0.643 OA
BRANCH  17  19
HETATM   19  O   UNK N   1      18.976  17.304   3.497  0.00  0.00    -0.769 OA
HETATM   20  H   UNK N   1      19.455  18.109   3.522  0.00  0.00     0.168 HD
ENDBRANCH  17  19
ENDBRANCH  14  17
ENDBRANCH   1  13
TORSDOF 7
ENDMDL
MODEL 8
REMARK VINA RESULT:      -5.7      3.514      5.148
REMARK  7 active torsions:
REMARK  status: ('A' for Active; 'I' for Inactive)
REMARK    1  A    between atoms: C_6  and  C_7 
REMARK    2  A    between atoms: C_7  and  C_8 
REMARK    3  A    between atoms: C_8  and  C_9 
REMARK    4  A    between atoms: C_8  and  N_12 
REMARK    5  A    between atoms: C_9  and  O_11 
REMARK       I    between atoms: N_12  and  C_13 
REMARK    6  A    between atoms: C_13  and  C_15 
REMARK    7  A    between atoms: C_15  and  O_16 
ROOT
HETATM    1  C   UNK N   1      32.865  16.755   8.113  0.00  0.00     0.187 C 
ENDROOT
BRANCH   1   2
HETATM    2  C   UNK N   1      33.373  17.635   6.964  0.00  0.00     0.074 C 
BRANCH   2   3
HETATM    3  C   UNK N   1      33.362  17.073   5.574  0.00  0.00    -0.056 A 
HETATM    4  C   UNK N   1      33.988  15.842   5.343  0.00  0.00     0.007 A 
HETATM    5  C   UNK N   1      33.930  15.246   4.079  0.00  0.00     0.001 A 
HETATM    6  C   UNK N   1      33.241  15.878   3.041  0.00  0.00     0.000 A 
HETATM    7  C   UNK N   1      32.610  17.104   3.267  0.00  0.00     0.001 A 
HETATM    8  C   UNK N   1      32.663  17.695   4.533  0.00  0.00     0.007 A 
ENDBRANCH   2   3
ENDBRANCH   1   2
BRANCH   1   9
HETATM    9  C   UNK N   1      33.997  16.415   9.066  0.00  0.00     0.163 C 
HETATM   10  O   UNK N   1      34.564  15.338   8.985  0.00  0.00    -0.648 OA
BRANCH   9  11
HETATM   11  O   UNK N   1      34.384  17.289  10.016  0.00  0.00    -0.775 OA
HETATM   12  H   UNK N   1      35.058  17.180  10.657  0.00  0.00     0.167 HD
ENDBRANCH   9  11
ENDBRANCH   1   9
BRANCH   1  13
HETATM   13  N   UNK N   1      31.826  17.526   8.773  0.00  0.00    -0.337 N 
HETATM   14  C   UNK N   1      30.514  17.538   8.420  0.00  0.00     0.315 C 
HETATM   15  O   UNK N   1      30.104  16.832   7.508  0.00  0.00    -0.261 OA
HETATM   16  H   UNK N   1      32.094  18.085   9.537  0.00  0.00     0.164 HD
BRANCH  14  17
HETATM   17  C   UNK N   1      29.572  18.407   9.150  0.00  0.00     0.236 C 
HETATM   18  O   UNK N   1      28.540  18.781   8.612  0.00  0.00    -0.643 OA
BRANCH  17  19
HETATM   19  O   UNK N   1      29.840  18.791  10.412  0.00  0.00    -0.769 OA
HETATM   20  H   UNK N   1      30.245  19.606  10.632  0.00  0.00     0.168 HD
ENDBRANCH  17  19
ENDBRANCH  14  17
ENDBRANCH   1  13
TORSDOF 7
ENDMDL
MODEL 9
REMARK VINA RESULT:      -5.6      5.183      9.229
REMARK  7 active torsions:
REMARK  status: ('A' for Active; 'I' for Inactive)
REMARK    1  A    between atoms: C_6  and  C_7 
REMARK    2  A    between atoms: C_7  and  C_8 
REMARK    3  A    between atoms: C_8  and  C_9 
REMARK    4  A    between atoms: C_8  and  N_12 
REMARK    5  A    between atoms: C_9  and  O_11 
REMARK       I    between atoms: N_12  and  C_13 
REMARK    6  A    between atoms: C_13  and  C_15 
REMARK    7  A    between atoms: C_15  and  O_16 
ROOT
HETATM    1  C   UNK N   1      36.153  13.573  13.953  0.00  0.00     0.187 C 
ENDROOT
BRANCH   1   2
HETATM    2  C   UNK N   1      37.007  12.413  13.424  0.00  0.00     0.074 C 
BRANCH   2   3
HETATM    3  C   UNK N   1      36.885  11.075  14.090  0.00  0.00    -0.056 A 
HETATM    4  C   UNK N   1      38.043  10.465  14.586  0.00  0.00     0.007 A 
HETATM    5  C   UNK N   1      37.961   9.256  15.284  0.00  0.00     0.001 A 
HETATM    6  C   UNK N   1      36.717   8.654  15.492  0.00  0.00     0.000 A 
HETATM    7  C   UNK N   1      35.557   9.261  15.003  0.00  0.00     0.001 A 
HETATM    8  C   UNK N   1      35.641  10.473  14.312  0.00  0.00     0.007 A 
ENDBRANCH   2   3
ENDBRANCH   1   2
BRANCH   1   9
HETATM    9  C   UNK N   1      36.598  13.970  15.349  0.00  0.00     0.163 C 
HETATM   10  O   UNK N   1      35.932  13.649  16.319  0.00  0.00    -0.648 OA
BRANCH   9  11
HETATM   11  O   UNK N   1      37.724  14.688  15.535  0.00  0.00    -0.775 OA
HETATM   12  H   UNK N   1      37.847  15.427  16.096  0.00  0.00     0.167 HD
ENDBRANCH   9  11
ENDBRANCH   1   9
BRANCH   1  13
HETATM   13  N   UNK N   1      36.333  14.660  13.006  0.00  0.00    -0.337 N 
HETATM   14  C   UNK N   1      35.453  15.004  12.029  0.00  0.00     0.315 C 
HETATM   15  O   UNK N   1      34.386  14.416  11.912  0.00  0.00    -0.261 OA
HETATM   16  H   UNK N   1      37.158  15.191  13.078  0.00  0.00     0.164 HD
BRANCH  14  17
HETATM   17  C   UNK N   1      35.786  16.104  11.105  0.00  0.00     0.236 C 
HETATM   18  O   UNK N   1      36.901  16.169  10.607  0.00  0.00    -0.643 OA
BRANCH  17  19
HETATM   19  O   UNK N   1      34.867  17.038  10.800  0.00  0.00    -0.769 OA
HETATM   20  H   UNK N   1      33.949  16.933  10.954  0.00  0.00     0.168 HD
ENDBRANCH  17  19
ENDBRANCH  14  17
ENDBRANCH   1  13
TORSDOF 7
ENDMDL
