MODEL 1
REMARK VINA RESULT:      -5.6      0.000      0.000
REMARK  2 active torsions:
REMARK  status: ('A' for Active; 'I' for Inactive)
REMARK    1  A    between atoms: C_2  and  O_1 
REMARK    2  A    between atoms: C_3  and  O_4 
ROOT
HETATM    1  C   UNK N   1      23.877  11.936  11.120  0.00  0.00     0.184 C 
HETATM    2  C   UNK N   1      22.675  12.223  12.038  0.00  0.00     0.174 C 
HETATM    3  C   UNK N   1      21.378  12.144  11.271  0.00  0.00     0.008 C 
HETATM    4  C   UNK N   1      21.299  12.636  10.025  0.00  0.00     0.010 C 
HETATM    5  C   UNK N   1      22.521  13.077   9.322  0.00  0.00    -0.028 A 
HETATM    6  C   UNK N   1      23.790  12.770   9.858  0.00  0.00    -0.017 A 
HETATM    7  C   UNK N   1      24.945  13.150   9.162  0.00  0.00     0.011 A 
HETATM    8  C   UNK N   1      22.423  13.768   8.109  0.00  0.00     0.012 A 
HETATM    9  C   UNK N   1      23.581  14.156   7.430  0.00  0.00     0.001 A 
HETATM   10  C   UNK N   1      24.840  13.849   7.954  0.00  0.00     0.001 A 
ENDROOT
BRANCH   1  11
HETATM   11  O   UNK N   1      25.069  12.187  11.807  0.00  0.00    -0.388 OA
HETATM   12  H   UNK N   1      25.264  13.057  12.187  0.00  0.00     0.210 HD
ENDBRANCH   1  11
BRANCH   2  13
HETATM   13  O   UNK N   1      22.649  11.325  13.106  0.00  0.00    -0.389 OA
HETATM   14  H   UNK N   1      22.973  10.411  13.062  0.00  0.00     0.210 HD
ENDBRANCH   2  13
TORSDOF 2
ENDMDL
MODEL 2
REMARK VINA RESULT:      -5.6      7.365      9.160
REMARK  2 active torsions:
REMARK  status: ('A' for Active; 'I' for Inactive)
REMARK    1  A    between atoms: C_2  and  O_1 
REMARK    2  A    between atoms: C_3  and  O_4 
ROOT
HETATM    1  C   UNK N   1      29.751  17.761   9.148  0.00  0.00     0.184 C 
HETATM    2  C   UNK N   1      28.406  18.096   8.478  0.00  0.00     0.174 C 
HETATM    3  C   UNK N   1      28.151  17.195   7.296  0.00  0.00     0.008 C 
HETATM    4  C   UNK N   1      29.156  16.865   6.469  0.00  0.00     0.010 C 
HETATM    5  C   UNK N   1      30.548  17.215   6.816  0.00  0.00    -0.028 A 
HETATM    6  C   UNK N   1      30.853  17.684   8.113  0.00  0.00    -0.017 A 
HETATM    7  C   UNK N   1      32.184  17.969   8.449  0.00  0.00     0.011 A 
HETATM    8  C   UNK N   1      31.569  17.050   5.874  0.00  0.00     0.012 A 
HETATM    9  C   UNK N   1      32.891  17.353   6.214  0.00  0.00     0.001 A 
HETATM   10  C   UNK N   1      33.198  17.811   7.499  0.00  0.00     0.001 A 
ENDROOT
BRANCH   1  11
HETATM   11  O   UNK N   1      30.046  18.717  10.125  0.00  0.00    -0.388 OA
HETATM   12  H   UNK N   1      30.415  18.468  10.987  0.00  0.00     0.210 HD
ENDBRANCH   1  11
BRANCH   2  13
HETATM   13  O   UNK N   1      27.360  17.981   9.395  0.00  0.00    -0.389 OA
HETATM   14  H   UNK N   1      26.472  17.654   9.176  0.00  0.00     0.210 HD
ENDBRANCH   2  13
TORSDOF 2
ENDMDL
MODEL 3
REMARK VINA RESULT:      -5.4     17.691     18.626
REMARK  2 active torsions:
REMARK  status: ('A' for Active; 'I' for Inactive)
REMARK    1  A    between atoms: C_2  and  O_1 
REMARK    2  A    between atoms: C_3  and  O_4 
ROOT
HETATM    1  C   UNK N   1      30.840  22.846  -2.757  0.00  0.00     0.184 C 
HETATM    2  C   UNK N   1      31.443  21.439  -2.928  0.00  0.00     0.174 C 
HETATM    3  C   UNK N   1      31.751  21.155  -4.377  0.00  0.00     0.008 C 
HETATM    4  C   UNK N   1      30.903  21.553  -5.338  0.00  0.00     0.010 C 
HETATM    5  C   UNK N   1      29.770  22.440  -5.007  0.00  0.00    -0.028 A 
HETATM    6  C   UNK N   1      29.706  23.058  -3.739  0.00  0.00    -0.017 A 
HETATM    7  C   UNK N   1      28.653  23.935  -3.449  0.00  0.00     0.011 A 
HETATM    8  C   UNK N   1      28.777  22.698  -5.960  0.00  0.00     0.012 A 
HETATM    9  C   UNK N   1      27.722  23.562  -5.655  0.00  0.00     0.001 A 
HETATM   10  C   UNK N   1      27.660  24.180  -4.403  0.00  0.00     0.001 A 
ENDROOT
BRANCH   1  11
HETATM   11  O   UNK N   1      30.403  23.018  -1.440  0.00  0.00    -0.388 OA
HETATM   12  H   UNK N   1      30.665  22.409  -0.733  0.00  0.00     0.210 HD
ENDBRANCH   1  11
BRANCH   2  13
HETATM   13  O   UNK N   1      32.604  21.308  -2.164  0.00  0.00    -0.389 OA
HETATM   14  H   UNK N   1      32.620  21.034  -1.233  0.00  0.00     0.210 HD
ENDBRANCH   2  13
TORSDOF 2
ENDMDL
MODEL 4
REMARK VINA RESULT:      -5.2     12.564     13.973
REMARK  2 active torsions:
REMARK  status: ('A' for Active; 'I' for Inactive)
REMARK    1  A    between atoms: C_2  and  O_1 
REMARK    2  A    between atoms: C_3  and  O_4 
ROOT
HETATM    1  C   UNK N   1      34.567  12.239  15.069  0.00  0.00     0.184 C 
HETATM    2  C   UNK N   1      35.237  11.041  14.372  0.00  0.00     0.174 C 
HETATM    3  C   UNK N   1      34.993   9.764  15.137  0.00  0.00     0.008 C 
HETATM    4  C   UNK N   1      35.033   9.763  16.479  0.00  0.00     0.010 C 
HETATM    5  C   UNK N   1      35.117  11.038  17.220  0.00  0.00    -0.028 A 
HETATM    6  C   UNK N   1      34.922  12.260  16.541  0.00  0.00    -0.017 A 
HETATM    7  C   UNK N   1      34.956  13.463  17.259  0.00  0.00     0.011 A 
HETATM    8  C   UNK N   1      35.356  11.035  18.599  0.00  0.00     0.012 A 
HETATM    9  C   UNK N   1      35.403  12.241  19.304  0.00  0.00     0.001 A 
HETATM   10  C   UNK N   1      35.204  13.453  18.636  0.00  0.00     0.001 A 
ENDROOT
BRANCH   1  11
HETATM   11  O   UNK N   1      34.951  13.428  14.442  0.00  0.00    -0.388 OA
HETATM   12  H   UNK N   1      35.753  13.906  14.704  0.00  0.00     0.210 HD
ENDBRANCH   1  11
BRANCH   2  13
HETATM   13  O   UNK N   1      34.763  10.906  13.066  0.00  0.00    -0.389 OA
HETATM   14  H   UNK N   1      35.329  10.781  12.287  0.00  0.00     0.210 HD
ENDBRANCH   2  13
TORSDOF 2
ENDMDL
MODEL 5
REMARK VINA RESULT:      -5.2      9.500     10.858
REMARK  2 active torsions:
REMARK  status: ('A' for Active; 'I' for Inactive)
REMARK    1  A    between atoms: C_2  and  O_1 
REMARK    2  A    between atoms: C_3  and  O_4 
ROOT
HETATM    1  C   UNK N   1      33.506  17.262   7.018  0.00  0.00     0.184 C 
HETATM    2  C   UNK N   1      32.770  17.757   8.276  0.00  0.00     0.174 C 
HETATM    3  C   UNK N   1      31.474  17.011   8.473  0.00  0.00     0.008 C 
HETATM    4  C   UNK N   1      30.700  16.711   7.417  0.00  0.00     0.010 C 
HETATM    5  C   UNK N   1      31.201  16.928   6.045  0.00  0.00    -0.028 A 
HETATM    6  C   UNK N   1      32.564  17.229   5.832  0.00  0.00    -0.017 A 
HETATM    7  C   UNK N   1      33.041  17.387   4.524  0.00  0.00     0.011 A 
HETATM    8  C   UNK N   1      30.334  16.803   4.953  0.00  0.00     0.012 A 
HETATM    9  C   UNK N   1      30.817  16.979   3.653  0.00  0.00     0.001 A 
HETATM   10  C   UNK N   1      32.167  17.270   3.438  0.00  0.00     0.001 A 
ENDROOT
BRANCH   1  11
HETATM   11  O   UNK N   1      34.609  18.082   6.760  0.00  0.00    -0.388 OA
HETATM   12  H   UNK N   1      35.364  17.771   6.236  0.00  0.00     0.210 HD
ENDBRANCH   1  11
BRANCH   2  13
HETATM   13  O   UNK N   1      33.576  17.609   9.405  0.00  0.00    -0.389 OA
HETATM   14  H   UNK N   1      33.388  18.006  10.270  0.00  0.00     0.210 HD
ENDBRANCH   2  13
TORSDOF 2
ENDMDL
MODEL 6
REMARK VINA RESULT:      -5.2      8.817     10.104
REMARK  2 active torsions:
REMARK  status: ('A' for Active; 'I' for Inactive)
REMARK    1  A    between atoms: C_2  and  O_1 
REMARK    2  A    between atoms: C_3  and  O_4 
ROOT
HETATM    1  C   UNK N   1      20.362  19.818   2.650  0.00  0.00     0.184 C 
HETATM    2  C   UNK N   1      19.678  18.444   2.521  0.00  0.00     0.174 C 
HETATM    3  C   UNK N   1      19.962  17.584   3.727  0.00  0.00     0.008 C 
HETATM    4  C   UNK N   1      21.183  17.584   4.285  0.00  0.00     0.010 C 
HETATM    5  C   UNK N   1      22.196  18.568   3.852  0.00  0.00    -0.028 A 
HETATM    6  C   UNK N   1      21.819  19.650   3.028  0.00  0.00    -0.017 A 
HETATM    7  C   UNK N   1      22.776  20.606   2.661  0.00  0.00     0.011 A 
HETATM    8  C   UNK N   1      23.521  18.449   4.286  0.00  0.00     0.012 A 
HETATM    9  C   UNK N   1      24.472  19.398   3.901  0.00  0.00     0.001 A 
HETATM   10  C   UNK N   1      24.101  20.475   3.090  0.00  0.00     0.001 A 
ENDROOT
BRANCH   1  11
HETATM   11  O   UNK N   1      20.232  20.527   1.452  0.00  0.00    -0.388 OA
HETATM   12  H   UNK N   1      20.790  21.295   1.252  0.00  0.00     0.210 HD
ENDBRANCH   1  11
BRANCH   2  13
HETATM   13  O   UNK N   1      18.300  18.596   2.363  0.00  0.00    -0.389 OA
HETATM   14  H   UNK N   1      17.642  18.370   3.039  0.00  0.00     0.210 HD
ENDBRANCH   2  13
TORSDOF 2
ENDMDL
MODEL 7
REMARK VINA RESULT:      -5.1      1.311      2.461
REMARK  2 active torsions:
REMARK  status: ('A' for Active; 'I' for Inactive)
REMARK    1  A    between atoms: C_2  and  O_1 
REMARK    2  A    between atoms: C_3  and  O_4 
ROOT
HETATM    1  C   UNK N   1      24.084  12.664   9.646  0.00  0.00     0.184 C 
HETATM    2  C   UNK N   1      24.260  12.472  11.164  0.00  0.00     0.174 C 
HETATM    3  C   UNK N   1      23.013  11.890  11.782  0.00  0.00     0.008 C 
HETATM    4  C   UNK N   1      21.801  12.303  11.377  0.00  0.00     0.010 C 
HETATM    5  C   UNK N   1      21.674  13.176  10.192  0.00  0.00    -0.028 A 
HETATM    6  C   UNK N   1      22.788  13.389   9.351  0.00  0.00    -0.017 A 
HETATM    7  C   UNK N   1      22.646  14.180   8.203  0.00  0.00     0.011 A 
HETATM    8  C   UNK N   1      20.442  13.765   9.884  0.00  0.00     0.012 A 
HETATM    9  C   UNK N   1      20.316  14.566   8.745  0.00  0.00     0.001 A 
HETATM   10  C   UNK N   1      21.415  14.773   7.906  0.00  0.00     0.001 A 
ENDROOT
BRANCH   1  11
HETATM   11  O   UNK N   1      25.179  13.362   9.127  0.00  0.00    -0.388 OA
HETATM   12  H   UNK N   1      25.616  14.070   9.627  0.00  0.00     0.210 HD
ENDBRANCH   1  11
BRANCH   2  13
HETATM   13  O   UNK N   1      25.350  11.642  11.430  0.00  0.00    -0.389 OA
HETATM   14  H   UNK N   1      25.726  11.010  10.796  0.00  0.00     0.210 HD
ENDBRANCH   2  13
TORSDOF 2
ENDMDL
MODEL 8
REMARK VINA RESULT:      -5.0      1.586      2.609
REMARK  2 active torsions:
REMARK  status: ('A' for Active; 'I' for Inactive)
REMARK    1  A    between atoms: C_2  and  O_1 
REMARK    2  A    between atoms: C_3  and  O_4 
ROOT
HETATM    1  C   UNK N   1      21.615  13.262  10.112  0.00  0.00     0.184 C 
HETATM    2  C   UNK N   1      21.908  11.951  10.864  0.00  0.00     0.174 C 
HETATM    3  C   UNK N   1      23.341  11.905  11.333  0.00  0.00     0.008 C 
HETATM    4  C   UNK N   1      24.325  12.363  10.543  0.00  0.00     0.010 C 
HETATM    5  C   UNK N   1      24.000  13.094   9.302  0.00  0.00    -0.028 A 
HETATM    6  C   UNK N   1      22.674  13.516   9.060  0.00  0.00    -0.017 A 
HETATM    7  C   UNK N   1      22.383  14.250   7.902  0.00  0.00     0.011 A 
HETATM    8  C   UNK N   1      25.010  13.400   8.382  0.00  0.00     0.012 A 
HETATM    9  C   UNK N   1      24.706  14.120   7.223  0.00  0.00     0.001 A 
HETATM   10  C   UNK N   1      23.396  14.544   6.983  0.00  0.00     0.001 A 
ENDROOT
BRANCH   1  11
HETATM   11  O   UNK N   1      20.341  13.206   9.539  0.00  0.00    -0.388 OA
HETATM   12  H   UNK N   1      19.560  12.958  10.057  0.00  0.00     0.210 HD
ENDBRANCH   1  11
BRANCH   2  13
HETATM   13  O   UNK N   1      21.049  11.811  11.956  0.00  0.00    -0.389 OA
HETATM   14  H   UNK N   1      21.260  11.309  12.759  0.00  0.00     0.210 HD
ENDBRANCH   2  13
TORSDOF 2
ENDMDL
MODEL 9
REMARK VINA RESULT:      -5.0      8.904     10.704
REMARK  2 active torsions:
REMARK  status: ('A' for Active; 'I' for Inactive)
REMARK    1  A    between atoms: C_2  and  O_1 
REMARK    2  A    between atoms: C_3  and  O_4 
ROOT
HETATM    1  C   UNK N   1      31.995  17.425   8.421  0.00  0.00     0.184 C 
HETATM    2  C   UNK N   1      33.430  16.875   8.519  0.00  0.00     0.174 C 
HETATM    3  C   UNK N   1      34.290  17.406   7.401  0.00  0.00     0.008 C 
HETATM    4  C   UNK N   1      33.789  17.526   6.161  0.00  0.00     0.010 C 
HETATM    5  C   UNK N   1      32.345  17.330   5.923  0.00  0.00    -0.028 A 
HETATM    6  C   UNK N   1      31.456  17.248   7.017  0.00  0.00    -0.017 A 
HETATM    7  C   UNK N   1      30.081  17.110   6.782  0.00  0.00     0.011 A 
HETATM    8  C   UNK N   1      31.851  17.261   4.615  0.00  0.00     0.012 A 
HETATM    9  C   UNK N   1      30.480  17.107   4.391  0.00  0.00     0.001 A 
HETATM   10  C   UNK N   1      29.596  17.032   5.472  0.00  0.00     0.001 A 
ENDROOT
BRANCH   1  11
HETATM   11  O   UNK N   1      31.176  16.786   9.358  0.00  0.00    -0.388 OA
HETATM   12  H   UNK N   1      31.278  15.844   9.565  0.00  0.00     0.210 HD
ENDBRANCH   1  11
BRANCH   2  13
HETATM   13  O   UNK N   1      33.998  17.206   9.750  0.00  0.00    -0.389 OA
HETATM   14  H   UNK N   1      34.629  17.931   9.886  0.00  0.00     0.210 HD
ENDBRANCH   2  13
TORSDOF 2
ENDMDL
