MODEL 1
REMARK VINA RESULT:      -7.5      0.000      0.000
REMARK  3 active torsions:
REMARK  status: ('A' for Active; 'I' for Inactive)
REMARK    1  A    between atoms: C_1  and  C_2 
REMARK    2  A    between atoms: C_1  and  C_20 
REMARK    3  A    between atoms: C_2  and  C_3 
REMARK       I    between atoms: C_7  and  N_8 
ROOT
HETATM    1  C   UNK N   1      29.167  17.733   5.935  0.00  0.00    -0.001 A 
HETATM    2  C   UNK N   1      30.471  17.445   5.478  0.00  0.00     0.073 A 
HETATM    3  N   UNK N   1      30.738  17.444   4.143  0.00  0.00    -0.190 N 
ATOM      4  HN  UNK N   1      29.988  17.651   3.484  1.00  0.00     0.184 HD
HETATM    5  C   UNK N   1      31.980  17.173   3.671  0.00  0.00     0.679 A 
HETATM    6  N   UNK N   1      32.217  17.181   2.283  0.00  0.00    -0.234 N 
HETATM    7  N   UNK N   1      32.993  16.895   4.533  0.00  0.00    -0.156 N 
HETATM    8  C   UNK N   1      32.789  16.880   5.888  0.00  0.00     0.272 A 
HETATM    9  O   UNK N   1      33.719  16.628   6.634  0.00  0.00    -0.267 OA
HETATM   10  C   UNK N   1      31.514  17.156   6.400  0.00  0.00     0.062 A 
HETATM   11  C   UNK N   1      31.252  17.154   7.787  0.00  0.00     0.051 A 
HETATM   12  C   UNK N   1      29.953  17.441   8.198  0.00  0.00     0.061 A 
HETATM   13  N   UNK N   1      29.484  17.495   9.452  0.00  0.00    -0.350 N 
HETATM   14  C   UNK N   1      28.171  17.811   9.308  0.00  0.00     0.181 A 
HETATM   15  N   UNK N   1      27.820  17.955   8.004  0.00  0.00    -0.350 N 
ATOM     16  HN  UNK N   1      26.902  18.190   7.626  1.00  0.00     0.166 HD
HETATM   17  C   UNK N   1      28.952  17.719   7.322  0.00  0.00     0.068 A 
HETATM   18  H   UNK N   1      33.116  16.978   1.936  0.00  0.00     0.174 HD
HETATM   19  H   UNK N   1      31.484  17.390   1.659  0.00  0.00     0.174 HD
HETATM   20  H   UNK N   1      33.890  16.700   4.176  0.00  0.00     0.187 HD
HETATM   21  H   UNK N   1      29.980  17.338  10.289  0.00  0.00     0.166 HD
ENDROOT
BRANCH   1  22
HETATM   22  C   UNK N   1      28.114  18.032   4.907  0.00  0.00     0.048 C 
BRANCH  22  23
HETATM   23  C   UNK N   1      27.806  19.480   4.567  0.00  0.00     0.043 C 
BRANCH  23  24
HETATM   24  C   UNK N   1      26.378  19.630   4.116  0.00  0.00    -0.058 A 
HETATM   25  C   UNK N   1      25.383  18.877   4.744  0.00  0.00     0.007 A 
HETATM   26  C   UNK N   1      24.049  18.996   4.338  0.00  0.00     0.001 A 
HETATM   27  C   UNK N   1      23.705  19.870   3.301  0.00  0.00     0.000 A 
HETATM   28  C   UNK N   1      24.694  20.626   2.669  0.00  0.00     0.001 A 
HETATM   29  C   UNK N   1      26.023  20.508   3.073  0.00  0.00     0.007 A 
ENDBRANCH  23  24
ENDBRANCH  22  23
ENDBRANCH   1  22
TORSDOF 3
ENDMDL
MODEL 2
REMARK VINA RESULT:      -7.5     12.599     13.998
REMARK  3 active torsions:
REMARK  status: ('A' for Active; 'I' for Inactive)
REMARK    1  A    between atoms: C_1  and  C_2 
REMARK    2  A    between atoms: C_1  and  C_20 
REMARK    3  A    between atoms: C_2  and  C_3 
REMARK       I    between atoms: C_7  and  N_8 
ROOT
HETATM    1  C   UNK N   1      26.953  24.411  -5.274  0.00  0.00    -0.001 A 
HETATM    2  C   UNK N   1      26.739  23.363  -6.196  0.00  0.00     0.073 A 
HETATM    3  N   UNK N   1      25.474  23.050  -6.587  0.00  0.00    -0.190 N 
ATOM      4  HN  UNK N   1      24.689  23.577  -6.206  1.00  0.00     0.184 HD
HETATM    5  C   UNK N   1      25.235  22.051  -7.472  0.00  0.00     0.679 A 
HETATM    6  N   UNK N   1      23.912  21.756  -7.853  0.00  0.00    -0.234 N 
HETATM    7  N   UNK N   1      26.267  21.337  -7.992  0.00  0.00    -0.156 N 
HETATM    8  C   UNK N   1      27.565  21.603  -7.638  0.00  0.00     0.272 A 
HETATM    9  O   UNK N   1      28.468  20.945  -8.123  0.00  0.00    -0.267 OA
HETATM   10  C   UNK N   1      27.837  22.630  -6.725  0.00  0.00     0.062 A 
HETATM   11  C   UNK N   1      29.155  22.944  -6.328  0.00  0.00     0.051 A 
HETATM   12  C   UNK N   1      29.324  23.982  -5.416  0.00  0.00     0.061 A 
HETATM   13  N   UNK N   1      30.473  24.446  -4.907  0.00  0.00    -0.350 N 
HETATM   14  C   UNK N   1      30.092  25.451  -4.076  0.00  0.00     0.181 A 
HETATM   15  N   UNK N   1      28.744  25.619  -4.061  0.00  0.00    -0.350 N 
ATOM     16  HN  UNK N   1      28.206  26.300  -3.525  1.00  0.00     0.166 HD
HETATM   17  C   UNK N   1      28.278  24.688  -4.908  0.00  0.00     0.068 A 
HETATM   18  H   UNK N   1      23.733  21.027  -8.490  0.00  0.00     0.174 HD
HETATM   19  H   UNK N   1      23.164  22.279  -7.481  0.00  0.00     0.174 HD
HETATM   20  H   UNK N   1      26.080  20.614  -8.634  0.00  0.00     0.187 HD
HETATM   21  H   UNK N   1      31.386  24.129  -5.093  0.00  0.00     0.166 HD
ENDROOT
BRANCH   1  22
HETATM   22  C   UNK N   1      25.749  25.146  -4.758  0.00  0.00     0.048 C 
BRANCH  22  23
HETATM   23  C   UNK N   1      25.190  26.304  -5.567  0.00  0.00     0.043 C 
BRANCH  23  24
HETATM   24  C   UNK N   1      25.962  27.567  -5.293  0.00  0.00    -0.058 A 
HETATM   25  C   UNK N   1      25.674  28.304  -4.140  0.00  0.00     0.007 A 
HETATM   26  C   UNK N   1      26.376  29.483  -3.868  0.00  0.00     0.001 A 
HETATM   27  C   UNK N   1      27.368  29.931  -4.747  0.00  0.00     0.000 A 
HETATM   28  C   UNK N   1      27.661  29.201  -5.899  0.00  0.00     0.001 A 
HETATM   29  C   UNK N   1      26.962  28.025  -6.171  0.00  0.00     0.007 A 
ENDBRANCH  23  24
ENDBRANCH  22  23
ENDBRANCH   1  22
TORSDOF 3
ENDMDL
MODEL 3
REMARK VINA RESULT:      -7.4      9.976     13.629
REMARK  3 active torsions:
REMARK  status: ('A' for Active; 'I' for Inactive)
REMARK    1  A    between atoms: C_1  and  C_2 
REMARK    2  A    between atoms: C_1  and  C_20 
REMARK    3  A    between atoms: C_2  and  C_3 
REMARK       I    between atoms: C_7  and  N_8 
ROOT
HETATM    1  C   UNK N   1      36.752  12.919  13.780  0.00  0.00    -0.001 A 
HETATM    2  C   UNK N   1      36.594  13.589  12.548  0.00  0.00     0.073 A 
HETATM    3  N   UNK N   1      36.055  14.839  12.519  0.00  0.00    -0.190 N 
ATOM      4  HN  UNK N   1      35.769  15.279  13.392  1.00  0.00     0.184 HD
HETATM    5  C   UNK N   1      35.891  15.510  11.352  0.00  0.00     0.679 A 
HETATM    6  N   UNK N   1      35.330  16.802  11.362  0.00  0.00    -0.234 N 
HETATM    7  N   UNK N   1      36.267  14.941  10.177  0.00  0.00    -0.156 N 
HETATM    8  C   UNK N   1      36.815  13.685  10.139  0.00  0.00     0.272 A 
HETATM    9  O   UNK N   1      37.142  13.203   9.069  0.00  0.00    -0.267 OA
HETATM   10  C   UNK N   1      36.994  12.971  11.331  0.00  0.00     0.062 A 
HETATM   11  C   UNK N   1      37.554  11.675  11.346  0.00  0.00     0.051 A 
HETATM   12  C   UNK N   1      37.693  11.047  12.581  0.00  0.00     0.061 A 
HETATM   13  N   UNK N   1      38.194   9.829  12.828  0.00  0.00    -0.350 N 
HETATM   14  C   UNK N   1      38.105   9.696  14.177  0.00  0.00     0.181 A 
HETATM   15  N   UNK N   1      37.566  10.795  14.765  0.00  0.00    -0.350 N 
ATOM     16  HN  UNK N   1      37.392  10.950  15.759  1.00  0.00     0.166 HD
HETATM   17  C   UNK N   1      37.313  11.633  13.747  0.00  0.00     0.068 A 
HETATM   18  H   UNK N   1      35.203  17.290  10.517  0.00  0.00     0.174 HD
HETATM   19  H   UNK N   1      35.065  17.217  12.215  0.00  0.00     0.174 HD
HETATM   20  H   UNK N   1      36.142  15.440   9.337  0.00  0.00     0.187 HD
HETATM   21  H   UNK N   1      38.546   9.178  12.179  0.00  0.00     0.166 HD
ENDROOT
BRANCH   1  22
HETATM   22  C   UNK N   1      36.312  13.631  15.026  0.00  0.00     0.048 C 
BRANCH  22  23
HETATM   23  C   UNK N   1      34.958  13.293  15.629  0.00  0.00     0.043 C 
BRANCH  23  24
HETATM   24  C   UNK N   1      35.120  12.675  16.991  0.00  0.00    -0.058 A 
HETATM   25  C   UNK N   1      35.108  13.500  18.119  0.00  0.00     0.007 A 
HETATM   26  C   UNK N   1      35.262  12.948  19.395  0.00  0.00     0.001 A 
HETATM   27  C   UNK N   1      35.428  11.568  19.549  0.00  0.00     0.000 A 
HETATM   28  C   UNK N   1      35.440  10.737  18.428  0.00  0.00     0.001 A 
HETATM   29  C   UNK N   1      35.287  11.286  17.156  0.00  0.00     0.007 A 
ENDBRANCH  23  24
ENDBRANCH  22  23
ENDBRANCH   1  22
TORSDOF 3
ENDMDL
MODEL 4
REMARK VINA RESULT:      -7.3      2.091      3.469
REMARK  3 active torsions:
REMARK  status: ('A' for Active; 'I' for Inactive)
REMARK    1  A    between atoms: C_1  and  C_2 
REMARK    2  A    between atoms: C_1  and  C_20 
REMARK    3  A    between atoms: C_2  and  C_3 
REMARK       I    between atoms: C_7  and  N_8 
ROOT
HETATM    1  C   UNK N   1      30.754  17.222   6.733  0.00  0.00    -0.001 A 
HETATM    2  C   UNK N   1      30.714  16.992   5.341  0.00  0.00     0.073 A 
HETATM    3  N   UNK N   1      29.524  16.748   4.727  0.00  0.00    -0.190 N 
ATOM      4  HN  UNK N   1      28.670  16.733   5.283  1.00  0.00     0.184 HD
HETATM    5  C   UNK N   1      29.450  16.524   3.391  0.00  0.00     0.679 A 
HETATM    6  N   UNK N   1      28.201  16.276   2.792  0.00  0.00    -0.234 N 
HETATM    7  N   UNK N   1      30.577  16.540   2.633  0.00  0.00    -0.156 N 
HETATM    8  C   UNK N   1      31.807  16.780   3.191  0.00  0.00     0.272 A 
HETATM    9  O   UNK N   1      32.798  16.788   2.483  0.00  0.00    -0.267 OA
HETATM   10  C   UNK N   1      31.908  17.013   4.569  0.00  0.00     0.062 A 
HETATM   11  C   UNK N   1      33.150  17.264   5.192  0.00  0.00     0.051 A 
HETATM   12  C   UNK N   1      33.148  17.486   6.567  0.00  0.00     0.061 A 
HETATM   13  N   UNK N   1      34.200  17.741   7.356  0.00  0.00    -0.350 N 
HETATM   14  C   UNK N   1      33.665  17.876   8.597  0.00  0.00     0.181 A 
HETATM   15  N   UNK N   1      32.316  17.712   8.594  0.00  0.00    -0.350 N 
ATOM     16  HN  UNK N   1      31.679  17.763   9.389  1.00  0.00     0.166 HD
HETATM   17  C   UNK N   1      32.010  17.467   7.310  0.00  0.00     0.068 A 
HETATM   18  H   UNK N   1      28.144  16.106   1.824  0.00  0.00     0.174 HD
HETATM   19  H   UNK N   1      27.383  16.271   3.342  0.00  0.00     0.174 HD
HETATM   20  H   UNK N   1      30.510  16.377   1.664  0.00  0.00     0.187 HD
HETATM   21  H   UNK N   1      35.146  17.814   7.095  0.00  0.00     0.166 HD
ENDROOT
BRANCH   1  22
HETATM   22  C   UNK N   1      29.456  17.188   7.487  0.00  0.00     0.048 C 
BRANCH  22  23
HETATM   23  C   UNK N   1      28.836  18.497   7.946  0.00  0.00     0.043 C 
BRANCH  23  24
HETATM   24  C   UNK N   1      27.930  19.060   6.885  0.00  0.00    -0.058 A 
HETATM   25  C   UNK N   1      27.844  20.446   6.728  0.00  0.00     0.007 A 
HETATM   26  C   UNK N   1      27.005  20.992   5.750  0.00  0.00     0.001 A 
HETATM   27  C   UNK N   1      26.247  20.153   4.925  0.00  0.00     0.000 A 
HETATM   28  C   UNK N   1      26.329  18.768   5.075  0.00  0.00     0.001 A 
HETATM   29  C   UNK N   1      27.165  18.224   6.049  0.00  0.00     0.007 A 
ENDBRANCH  23  24
ENDBRANCH  22  23
ENDBRANCH   1  22
TORSDOF 3
ENDMDL
MODEL 5
REMARK VINA RESULT:      -7.2     12.339     13.840
REMARK  3 active torsions:
REMARK  status: ('A' for Active; 'I' for Inactive)
REMARK    1  A    between atoms: C_1  and  C_2 
REMARK    2  A    between atoms: C_1  and  C_20 
REMARK    3  A    between atoms: C_2  and  C_3 
REMARK       I    between atoms: C_7  and  N_8 
ROOT
HETATM    1  C   UNK N   1      26.668  23.769  -5.790  0.00  0.00    -0.001 A 
HETATM    2  C   UNK N   1      28.062  23.753  -5.568  0.00  0.00     0.073 A 
HETATM    3  N   UNK N   1      28.616  24.613  -4.670  0.00  0.00    -0.190 N 
ATOM      4  HN  UNK N   1      28.015  25.263  -4.165  1.00  0.00     0.184 HD
HETATM    5  C   UNK N   1      29.951  24.622  -4.432  0.00  0.00     0.679 A 
HETATM    6  N   UNK N   1      30.488  25.526  -3.495  0.00  0.00    -0.234 N 
HETATM    7  N   UNK N   1      30.769  23.763  -5.094  0.00  0.00    -0.156 N 
HETATM    8  C   UNK N   1      30.273  22.873  -6.011  0.00  0.00     0.272 A 
HETATM    9  O   UNK N   1      31.033  22.114  -6.587  0.00  0.00    -0.267 OA
HETATM   10  C   UNK N   1      28.897  22.845  -6.274  0.00  0.00     0.062 A 
HETATM   11  C   UNK N   1      28.336  21.947  -7.209  0.00  0.00     0.051 A 
HETATM   12  C   UNK N   1      26.957  21.995  -7.400  0.00  0.00     0.061 A 
HETATM   13  N   UNK N   1      26.220  21.243  -8.228  0.00  0.00    -0.350 N 
HETATM   14  C   UNK N   1      24.948  21.680  -8.037  0.00  0.00     0.181 A 
HETATM   15  N   UNK N   1      24.882  22.676  -7.116  0.00  0.00    -0.350 N 
ATOM     16  HN  UNK N   1      24.052  23.174  -6.793  1.00  0.00     0.166 HD
HETATM   17  C   UNK N   1      26.154  22.860  -6.727  0.00  0.00     0.068 A 
HETATM   18  H   UNK N   1      31.458  25.541  -3.325  0.00  0.00     0.174 HD
HETATM   19  H   UNK N   1      29.893  26.144  -3.011  0.00  0.00     0.174 HD
HETATM   20  H   UNK N   1      31.737  23.780  -4.912  0.00  0.00     0.187 HD
HETATM   21  H   UNK N   1      26.530  20.535  -8.838  0.00  0.00     0.166 HD
ENDROOT
BRANCH   1  22
HETATM   22  C   UNK N   1      25.845  24.752  -5.008  0.00  0.00     0.048 C 
BRANCH  22  23
HETATM   23  C   UNK N   1      25.192  25.913  -5.739  0.00  0.00     0.043 C 
BRANCH  23  24
HETATM   24  C   UNK N   1      25.875  27.210  -5.399  0.00  0.00    -0.058 A 
HETATM   25  C   UNK N   1      26.868  27.701  -6.252  0.00  0.00     0.007 A 
HETATM   26  C   UNK N   1      27.520  28.902  -5.952  0.00  0.00     0.001 A 
HETATM   27  C   UNK N   1      27.182  29.618  -4.799  0.00  0.00     0.000 A 
HETATM   28  C   UNK N   1      26.191  29.134  -3.943  0.00  0.00     0.001 A 
HETATM   29  C   UNK N   1      25.541  27.937  -4.241  0.00  0.00     0.007 A 
ENDBRANCH  23  24
ENDBRANCH  22  23
ENDBRANCH   1  22
TORSDOF 3
ENDMDL
MODEL 6
REMARK VINA RESULT:      -7.1     10.342     12.815
REMARK  3 active torsions:
REMARK  status: ('A' for Active; 'I' for Inactive)
REMARK    1  A    between atoms: C_1  and  C_2 
REMARK    2  A    between atoms: C_1  and  C_20 
REMARK    3  A    between atoms: C_2  and  C_3 
REMARK       I    between atoms: C_7  and  N_8 
ROOT
HETATM    1  C   UNK N   1      28.651  23.018  -5.791  0.00  0.00    -0.001 A 
HETATM    2  C   UNK N   1      29.626  22.640  -4.842  0.00  0.00     0.073 A 
HETATM    3  N   UNK N   1      30.679  21.866  -5.222  0.00  0.00    -0.190 N 
ATOM      4  HN  UNK N   1      30.752  21.565  -6.193  1.00  0.00     0.184 HD
HETATM    5  C   UNK N   1      31.633  21.486  -4.336  0.00  0.00     0.679 A 
HETATM    6  N   UNK N   1      32.708  20.685  -4.767  0.00  0.00    -0.234 N 
HETATM    7  N   UNK N   1      31.554  21.877  -3.037  0.00  0.00    -0.156 N 
HETATM    8  C   UNK N   1      30.518  22.657  -2.591  0.00  0.00     0.272 A 
HETATM    9  O   UNK N   1      30.477  22.992  -1.421  0.00  0.00    -0.267 OA
HETATM   10  C   UNK N   1      29.520  23.061  -3.488  0.00  0.00     0.062 A 
HETATM   11  C   UNK N   1      28.433  23.864  -3.079  0.00  0.00     0.051 A 
HETATM   12  C   UNK N   1      27.493  24.215  -4.044  0.00  0.00     0.061 A 
HETATM   13  N   UNK N   1      26.393  24.963  -3.881  0.00  0.00    -0.350 N 
HETATM   14  C   UNK N   1      25.827  25.003  -5.116  0.00  0.00     0.181 A 
HETATM   15  N   UNK N   1      26.546  24.304  -6.031  0.00  0.00    -0.350 N 
ATOM     16  HN  UNK N   1      26.341  24.177  -7.023  1.00  0.00     0.166 HD
HETATM   17  C   UNK N   1      27.589  23.816  -5.340  0.00  0.00     0.068 A 
HETATM   18  H   UNK N   1      33.399  20.402  -4.125  0.00  0.00     0.174 HD
HETATM   19  H   UNK N   1      32.768  20.408  -5.710  0.00  0.00     0.174 HD
HETATM   20  H   UNK N   1      32.254  21.595  -2.404  0.00  0.00     0.187 HD
HETATM   21  H   UNK N   1      26.068  25.386  -3.054  0.00  0.00     0.166 HD
ENDROOT
BRANCH   1  22
HETATM   22  C   UNK N   1      28.826  22.540  -7.203  0.00  0.00     0.048 C 
BRANCH  22  23
HETATM   23  C   UNK N   1      27.913  21.446  -7.730  0.00  0.00     0.043 C 
BRANCH  23  24
HETATM   24  C   UNK N   1      28.712  20.368  -8.411  0.00  0.00    -0.058 A 
HETATM   25  C   UNK N   1      28.960  20.468  -9.782  0.00  0.00     0.007 A 
HETATM   26  C   UNK N   1      29.696  19.474 -10.438  0.00  0.00     0.001 A 
HETATM   27  C   UNK N   1      30.187  18.376  -9.723  0.00  0.00     0.000 A 
HETATM   28  C   UNK N   1      29.944  18.269  -8.353  0.00  0.00     0.001 A 
HETATM   29  C   UNK N   1      29.211  19.259  -7.700  0.00  0.00     0.007 A 
ENDBRANCH  23  24
ENDBRANCH  22  23
ENDBRANCH   1  22
TORSDOF 3
ENDMDL
MODEL 7
REMARK VINA RESULT:      -7.0     10.434     12.645
REMARK  3 active torsions:
REMARK  status: ('A' for Active; 'I' for Inactive)
REMARK    1  A    between atoms: C_1  and  C_2 
REMARK    2  A    between atoms: C_1  and  C_20 
REMARK    3  A    between atoms: C_2  and  C_3 
REMARK       I    between atoms: C_7  and  N_8 
ROOT
HETATM    1  C   UNK N   1      29.389  22.881  -5.079  0.00  0.00    -0.001 A 
HETATM    2  C   UNK N   1      28.969  22.185  -6.233  0.00  0.00     0.073 A 
HETATM    3  N   UNK N   1      28.012  22.720  -7.040  0.00  0.00    -0.190 N 
ATOM      4  HN  UNK N   1      27.606  23.624  -6.799  1.00  0.00     0.184 HD
HETATM    5  C   UNK N   1      27.588  22.078  -8.156  0.00  0.00     0.679 A 
HETATM    6  N   UNK N   1      26.597  22.664  -8.966  0.00  0.00    -0.234 N 
HETATM    7  N   UNK N   1      28.118  20.873  -8.494  0.00  0.00    -0.156 N 
HETATM    8  C   UNK N   1      29.085  20.280  -7.723  0.00  0.00     0.272 A 
HETATM    9  O   UNK N   1      29.540  19.200  -8.054  0.00  0.00    -0.267 OA
HETATM   10  C   UNK N   1      29.538  20.924  -6.564  0.00  0.00     0.062 A 
HETATM   11  C   UNK N   1      30.532  20.357  -5.737  0.00  0.00     0.051 A 
HETATM   12  C   UNK N   1      30.917  21.074  -4.608  0.00  0.00     0.061 A 
HETATM   13  N   UNK N   1      31.833  20.729  -3.692  0.00  0.00    -0.350 N 
HETATM   14  C   UNK N   1      31.830  21.760  -2.808  0.00  0.00     0.181 A 
HETATM   15  N   UNK N   1      30.941  22.728  -3.154  0.00  0.00    -0.350 N 
ATOM     16  HN  UNK N   1      30.745  23.600  -2.662  1.00  0.00     0.166 HD
HETATM   17  C   UNK N   1      30.377  22.279  -4.286  0.00  0.00     0.068 A 
HETATM   18  H   UNK N   1      26.281  22.198  -9.773  0.00  0.00     0.174 HD
HETATM   19  H   UNK N   1      26.218  23.541  -8.724  0.00  0.00     0.174 HD
HETATM   20  H   UNK N   1      27.802  20.417  -9.307  0.00  0.00     0.187 HD
HETATM   21  H   UNK N   1      32.382  19.913  -3.666  0.00  0.00     0.166 HD
ENDROOT
BRANCH   1  22
HETATM   22  C   UNK N   1      28.748  24.208  -4.790  0.00  0.00     0.048 C 
BRANCH  22  23
HETATM   23  C   UNK N   1      27.514  24.254  -3.905  0.00  0.00     0.043 C 
BRANCH  23  24
HETATM   24  C   UNK N   1      26.636  25.419  -4.273  0.00  0.00    -0.058 A 
HETATM   25  C   UNK N   1      25.926  25.384  -5.476  0.00  0.00     0.007 A 
HETATM   26  C   UNK N   1      25.108  26.460  -5.840  0.00  0.00     0.001 A 
HETATM   27  C   UNK N   1      24.997  27.575  -5.003  0.00  0.00     0.000 A 
HETATM   28  C   UNK N   1      25.702  27.617  -3.800  0.00  0.00     0.001 A 
HETATM   29  C   UNK N   1      26.518  26.546  -3.436  0.00  0.00     0.007 A 
ENDBRANCH  23  24
ENDBRANCH  22  23
ENDBRANCH   1  22
TORSDOF 3
ENDMDL
MODEL 8
REMARK VINA RESULT:      -6.9     12.266     14.687
REMARK  3 active torsions:
REMARK  status: ('A' for Active; 'I' for Inactive)
REMARK    1  A    between atoms: C_1  and  C_2 
REMARK    2  A    between atoms: C_1  and  C_20 
REMARK    3  A    between atoms: C_2  and  C_3 
REMARK       I    between atoms: C_7  and  N_8 
ROOT
HETATM    1  C   UNK N   1      41.886  23.192   1.187  0.00  0.00    -0.001 A 
HETATM    2  C   UNK N   1      43.129  23.293   1.849  0.00  0.00     0.073 A 
HETATM    3  N   UNK N   1      43.976  24.316   1.551  0.00  0.00    -0.190 N 
ATOM      4  HN  UNK N   1      43.703  25.001   0.848  1.00  0.00     0.184 HD
HETATM    5  C   UNK N   1      45.177  24.442   2.169  0.00  0.00     0.679 A 
HETATM    6  N   UNK N   1      46.026  25.514   1.834  0.00  0.00    -0.234 N 
HETATM    7  N   UNK N   1      45.559  23.539   3.109  0.00  0.00    -0.156 N 
HETATM    8  C   UNK N   1      44.752  22.486   3.454  0.00  0.00     0.272 A 
HETATM    9  O   UNK N   1      45.124  21.694   4.302  0.00  0.00    -0.267 OA
HETATM   10  C   UNK N   1      43.507  22.334   2.828  0.00  0.00     0.062 A 
HETATM   11  C   UNK N   1      42.639  21.268   3.147  0.00  0.00     0.051 A 
HETATM   12  C   UNK N   1      41.423  21.203   2.472  0.00  0.00     0.061 A 
HETATM   13  N   UNK N   1      40.455  20.287   2.615  0.00  0.00    -0.350 N 
HETATM   14  C   UNK N   1      39.494  20.673   1.736  0.00  0.00     0.181 A 
HETATM   15  N   UNK N   1      39.841  21.799   1.060  0.00  0.00    -0.350 N 
ATOM     16  HN  UNK N   1      39.300  22.292   0.350  1.00  0.00     0.166 HD
HETATM   17  C   UNK N   1      41.056  22.117   1.535  0.00  0.00     0.068 A 
HETATM   18  H   UNK N   1      46.901  25.606   2.276  0.00  0.00     0.174 HD
HETATM   19  H   UNK N   1      45.744  26.173   1.158  0.00  0.00     0.174 HD
HETATM   20  H   UNK N   1      46.433  23.643   3.551  0.00  0.00     0.187 HD
HETATM   21  H   UNK N   1      40.445  19.509   3.218  0.00  0.00     0.166 HD
ENDROOT
BRANCH   1  22
HETATM   22  C   UNK N   1      41.549  24.241   0.166  0.00  0.00     0.048 C 
BRANCH  22  23
HETATM   23  C   UNK N   1      40.547  25.325   0.525  0.00  0.00     0.043 C 
BRANCH  23  24
HETATM   24  C   UNK N   1      39.583  25.555  -0.607  0.00  0.00    -0.058 A 
HETATM   25  C   UNK N   1      39.240  24.486  -1.438  0.00  0.00     0.007 A 
HETATM   26  C   UNK N   1      38.349  24.678  -2.500  0.00  0.00     0.001 A 
HETATM   27  C   UNK N   1      37.797  25.942  -2.735  0.00  0.00     0.000 A 
HETATM   28  C   UNK N   1      38.134  27.015  -1.908  0.00  0.00     0.001 A 
HETATM   29  C   UNK N   1      39.021  26.824  -0.850  0.00  0.00     0.007 A 
ENDBRANCH  23  24
ENDBRANCH  22  23
ENDBRANCH   1  22
TORSDOF 3
ENDMDL
MODEL 9
REMARK VINA RESULT:      -6.8      5.491      8.427
REMARK  3 active torsions:
REMARK  status: ('A' for Active; 'I' for Inactive)
REMARK    1  A    between atoms: C_1  and  C_2 
REMARK    2  A    between atoms: C_1  and  C_20 
REMARK    3  A    between atoms: C_2  and  C_3 
REMARK       I    between atoms: C_7  and  N_8 
ROOT
HETATM    1  C   UNK N   1      23.902  18.003   4.268  0.00  0.00    -0.001 A 
HETATM    2  C   UNK N   1      22.712  18.527   3.717  0.00  0.00     0.073 A 
HETATM    3  N   UNK N   1      21.558  17.809   3.786  0.00  0.00    -0.190 N 
ATOM      4  HN  UNK N   1      21.566  16.894   4.236  1.00  0.00     0.184 HD
HETATM    5  C   UNK N   1      20.399  18.284   3.269  0.00  0.00     0.679 A 
HETATM    6  N   UNK N   1      19.225  17.512   3.360  0.00  0.00    -0.234 N 
HETATM    7  N   UNK N   1      20.367  19.502   2.666  0.00  0.00    -0.156 N 
HETATM    8  C   UNK N   1      21.495  20.274   2.564  0.00  0.00     0.272 A 
HETATM    9  O   UNK N   1      21.434  21.361   2.019  0.00  0.00    -0.267 OA
HETATM   10  C   UNK N   1      22.707  19.804   3.090  0.00  0.00     0.062 A 
HETATM   11  C   UNK N   1      23.896  20.560   3.012  0.00  0.00     0.051 A 
HETATM   12  C   UNK N   1      25.048  20.008   3.565  0.00  0.00     0.061 A 
HETATM   13  N   UNK N   1      26.276  20.544   3.604  0.00  0.00    -0.350 N 
HETATM   14  C   UNK N   1      27.030  19.613   4.244  0.00  0.00     0.181 A 
HETATM   15  N   UNK N   1      26.302  18.523   4.601  0.00  0.00    -0.350 N 
ATOM     16  HN  UNK N   1      26.627  17.688   5.090  1.00  0.00     0.166 HD
HETATM   17  C   UNK N   1      25.060  18.789   4.166  0.00  0.00     0.068 A 
HETATM   18  H   UNK N   1      18.382  17.851   2.979  0.00  0.00     0.174 HD
HETATM   19  H   UNK N   1      19.247  16.633   3.803  0.00  0.00     0.174 HD
HETATM   20  H   UNK N   1      19.518  19.835   2.295  0.00  0.00     0.187 HD
HETATM   21  H   UNK N   1      26.565  21.415   3.247  0.00  0.00     0.166 HD
ENDROOT
BRANCH   1  22
HETATM   22  C   UNK N   1      23.837  16.651   4.917  0.00  0.00     0.048 C 
BRANCH  22  23
HETATM   23  C   UNK N   1      24.644  15.508   4.323  0.00  0.00     0.043 C 
BRANCH  23  24
HETATM   24  C   UNK N   1      23.969  14.962   3.094  0.00  0.00    -0.058 A 
HETATM   25  C   UNK N   1      24.719  14.785   1.927  0.00  0.00     0.007 A 
HETATM   26  C   UNK N   1      24.111  14.284   0.771  0.00  0.00     0.001 A 
HETATM   27  C   UNK N   1      22.751  13.957   0.776  0.00  0.00     0.000 A 
HETATM   28  C   UNK N   1      21.996  14.129   1.937  0.00  0.00     0.001 A 
HETATM   29  C   UNK N   1      22.601  14.629   3.090  0.00  0.00     0.007 A 
ENDBRANCH  23  24
ENDBRANCH  22  23
ENDBRANCH   1  22
TORSDOF 3
ENDMDL
