MODEL 1
REMARK VINA RESULT:      -7.8      0.000      0.000
REMARK  3 active torsions:
REMARK  status: ('A' for Active; 'I' for Inactive)
REMARK    1  A    between atoms: C_1  and  C_2 
REMARK    2  A    between atoms: C_1  and  C_19 
REMARK       I    between atoms: C_6  and  N_7 
REMARK    3  A    between atoms: C_19  and  C_20 
ROOT
HETATM    1  C   UNK N   1      29.077  17.628   5.970  0.00  0.00    -0.001 A 
HETATM    2  C   UNK N   1      30.400  17.406   5.479  0.00  0.00     0.073 A 
HETATM    3  N   UNK N   1      30.664  17.387   4.144  0.00  0.00    -0.190 N 
ATOM      4  HN  UNK N   1      29.900  17.535   3.484  1.00  0.00     0.184 HD
HETATM    5  C   UNK N   1      31.918  17.176   3.668  0.00  0.00     0.679 A 
HETATM    6  N   UNK N   1      32.146  17.164   2.279  0.00  0.00    -0.234 N 
HETATM    7  N   UNK N   1      32.951  16.977   4.525  0.00  0.00    -0.156 N 
HETATM    8  C   UNK N   1      32.758  16.984   5.881  0.00  0.00     0.272 A 
HETATM    9  O   UNK N   1      33.705  16.801   6.626  0.00  0.00    -0.267 OA
HETATM   10  C   UNK N   1      31.473  17.200   6.397  0.00  0.00     0.062 A 
HETATM   11  C   UNK N   1      31.235  17.215   7.788  0.00  0.00     0.051 A 
HETATM   12  C   UNK N   1      29.933  17.437   8.216  0.00  0.00     0.061 A 
HETATM   13  N   UNK N   1      29.479  17.492   9.476  0.00  0.00    -0.350 N 
HETATM   14  C   UNK N   1      28.147  17.729   9.344  0.00  0.00     0.181 A 
HETATM   15  N   UNK N   1      27.772  17.820   8.043  0.00  0.00    -0.350 N 
ATOM     16  HN  UNK N   1      26.837  17.991   7.672  1.00  0.00     0.166 HD
HETATM   17  C   UNK N   1      28.908  17.634   7.353  0.00  0.00     0.068 A 
HETATM   18  H   UNK N   1      33.056  17.019   1.931  0.00  0.00     0.174 HD
HETATM   19  H   UNK N   1      31.396  17.302   1.655  0.00  0.00     0.174 HD
HETATM   20  H   UNK N   1      33.856  16.825   4.167  0.00  0.00     0.187 HD
HETATM   21  H   UNK N   1      29.993  17.385  10.308  0.00  0.00     0.166 HD
ENDROOT
BRANCH   1  22
HETATM   22  C   UNK N   1      27.854  17.854   5.122  0.00  0.00     0.048 C 
BRANCH  22  23
HETATM   23  C   UNK N   1      27.660  19.238   4.519  0.00  0.00     0.043 C 
BRANCH  23  24
HETATM   24  C   UNK N   1      26.251  19.479   4.080  0.00  0.00    -0.058 A 
HETATM   25  C   UNK N   1      25.172  18.773   4.637  0.00  0.00     0.007 A 
HETATM   26  C   UNK N   1      23.869  19.026   4.210  0.00  0.00     0.007 A 
HETATM   27  C   UNK N   1      23.634  19.987   3.225  0.00  0.00    -0.062 A 
HETATM   28  C   UNK N   1      22.247  20.258   2.774  0.00  0.00     0.048 C 
HETATM   29  C   UNK N   1      24.704  20.692   2.665  0.00  0.00     0.007 A 
HETATM   30  C   UNK N   1      26.010  20.438   3.092  0.00  0.00     0.007 A 
ENDBRANCH  23  24
ENDBRANCH  22  23
ENDBRANCH   1  22
TORSDOF 3
ENDMDL
MODEL 2
REMARK VINA RESULT:      -7.8      1.013      3.923
REMARK  3 active torsions:
REMARK  status: ('A' for Active; 'I' for Inactive)
REMARK    1  A    between atoms: C_1  and  C_2 
REMARK    2  A    between atoms: C_1  and  C_19 
REMARK       I    between atoms: C_6  and  N_7 
REMARK    3  A    between atoms: C_19  and  C_20 
ROOT
HETATM    1  C   UNK N   1      29.766  17.581   5.065  0.00  0.00    -0.001 A 
HETATM    2  C   UNK N   1      29.866  17.517   6.489  0.00  0.00     0.073 A 
HETATM    3  N   UNK N   1      28.805  17.817   7.285  0.00  0.00    -0.190 N 
ATOM      4  HN  UNK N   1      27.922  18.094   6.855  1.00  0.00     0.184 HD
HETATM    5  C   UNK N   1      28.890  17.760   8.639  0.00  0.00     0.679 A 
HETATM    6  N   UNK N   1      27.768  18.079   9.427  0.00  0.00    -0.234 N 
HETATM    7  N   UNK N   1      30.054  17.395   9.236  0.00  0.00    -0.156 N 
HETATM    8  C   UNK N   1      31.161  17.078   8.496  0.00  0.00     0.272 A 
HETATM    9  O   UNK N   1      32.192  16.755   9.060  0.00  0.00    -0.267 OA
HETATM   10  C   UNK N   1      31.098  17.129   7.097  0.00  0.00     0.062 A 
HETATM   11  C   UNK N   1      32.217  16.809   6.300  0.00  0.00     0.051 A 
HETATM   12  C   UNK N   1      32.069  16.885   4.922  0.00  0.00     0.061 A 
HETATM   13  N   UNK N   1      32.989  16.630   3.980  0.00  0.00    -0.350 N 
HETATM   14  C   UNK N   1      32.340  16.853   2.807  0.00  0.00     0.181 A 
HETATM   15  N   UNK N   1      31.053  17.238   3.000  0.00  0.00    -0.350 N 
ATOM     16  HN  UNK N   1      30.355  17.466   2.293  1.00  0.00     0.166 HD
HETATM   17  C   UNK N   1      30.905  17.251   4.335  0.00  0.00     0.068 A 
HETATM   18  H   UNK N   1      27.825  18.031  10.408  0.00  0.00     0.174 HD
HETATM   19  H   UNK N   1      26.925  18.351   8.995  0.00  0.00     0.174 HD
HETATM   20  H   UNK N   1      30.103  17.357  10.220  0.00  0.00     0.187 HD
HETATM   21  H   UNK N   1      33.922  16.344   4.109  0.00  0.00     0.166 HD
ENDROOT
BRANCH   1  22
HETATM   22  C   UNK N   1      28.537  17.976   4.290  0.00  0.00     0.048 C 
BRANCH  22  23
HETATM   23  C   UNK N   1      28.068  19.419   4.399  0.00  0.00     0.043 C 
BRANCH  23  24
HETATM   24  C   UNK N   1      26.623  19.580   4.046  0.00  0.00    -0.058 A 
HETATM   25  C   UNK N   1      26.202  20.477   3.050  0.00  0.00     0.007 A 
HETATM   26  C   UNK N   1      24.848  20.599   2.740  0.00  0.00     0.007 A 
HETATM   27  C   UNK N   1      23.906  19.825   3.421  0.00  0.00    -0.062 A 
HETATM   28  C   UNK N   1      22.466  19.953   3.088  0.00  0.00     0.048 C 
HETATM   29  C   UNK N   1      24.319  18.932   4.415  0.00  0.00     0.007 A 
HETATM   30  C   UNK N   1      25.676  18.811   4.726  0.00  0.00     0.007 A 
ENDBRANCH  23  24
ENDBRANCH  22  23
ENDBRANCH   1  22
TORSDOF 3
ENDMDL
MODEL 3
REMARK VINA RESULT:      -7.8      1.264      1.870
REMARK  3 active torsions:
REMARK  status: ('A' for Active; 'I' for Inactive)
REMARK    1  A    between atoms: C_1  and  C_2 
REMARK    2  A    between atoms: C_1  and  C_19 
REMARK       I    between atoms: C_6  and  N_7 
REMARK    3  A    between atoms: C_19  and  C_20 
ROOT
HETATM    1  C   UNK N   1      30.001  16.952   6.538  0.00  0.00    -0.001 A 
HETATM    2  C   UNK N   1      31.372  16.963   6.135  0.00  0.00     0.073 A 
HETATM    3  N   UNK N   1      31.755  16.481   4.923  0.00  0.00    -0.190 N 
ATOM      4  HN  UNK N   1      31.048  16.104   4.291  1.00  0.00     0.184 HD
HETATM    5  C   UNK N   1      33.056  16.486   4.532  0.00  0.00     0.679 A 
HETATM    6  N   UNK N   1      33.409  15.977   3.268  0.00  0.00    -0.234 N 
HETATM    7  N   UNK N   1      34.015  16.982   5.354  0.00  0.00    -0.156 N 
HETATM    8  C   UNK N   1      33.700  17.484   6.588  0.00  0.00     0.272 A 
HETATM    9  O   UNK N   1      34.584  17.921   7.305  0.00  0.00    -0.267 OA
HETATM   10  C   UNK N   1      32.365  17.490   7.015  0.00  0.00     0.062 A 
HETATM   11  C   UNK N   1      32.001  18.000   8.279  0.00  0.00     0.051 A 
HETATM   12  C   UNK N   1      30.657  17.968   8.623  0.00  0.00     0.061 A 
HETATM   13  N   UNK N   1      30.088  18.394   9.760  0.00  0.00    -0.350 N 
HETATM   14  C   UNK N   1      28.764  18.137   9.592  0.00  0.00     0.181 A 
HETATM   15  N   UNK N   1      28.505  17.568   8.387  0.00  0.00    -0.350 N 
ATOM     16  HN  UNK N   1      27.601  17.278   8.015  1.00  0.00     0.166 HD
HETATM   17  C   UNK N   1      29.707  17.472   7.796  0.00  0.00     0.068 A 
HETATM   18  H   UNK N   1      34.350  15.986   2.979  0.00  0.00     0.174 HD
HETATM   19  H   UNK N   1      32.715  15.610   2.672  0.00  0.00     0.174 HD
HETATM   20  H   UNK N   1      34.955  16.980   5.059  0.00  0.00     0.187 HD
HETATM   21  H   UNK N   1      30.530  18.800  10.541  0.00  0.00     0.166 HD
ENDROOT
BRANCH   1  22
HETATM   22  C   UNK N   1      28.852  16.426   5.720  0.00  0.00     0.048 C 
BRANCH  22  23
HETATM   23  C   UNK N   1      28.768  16.856   4.263  0.00  0.00     0.043 C 
BRANCH  23  24
HETATM   24  C   UNK N   1      27.655  17.825   4.015  0.00  0.00    -0.058 A 
HETATM   25  C   UNK N   1      27.843  19.212   4.135  0.00  0.00     0.007 A 
HETATM   26  C   UNK N   1      26.787  20.089   3.891  0.00  0.00     0.007 A 
HETATM   27  C   UNK N   1      25.537  19.588   3.524  0.00  0.00    -0.062 A 
HETATM   28  C   UNK N   1      24.415  20.522   3.260  0.00  0.00     0.048 C 
HETATM   29  C   UNK N   1      25.343  18.208   3.405  0.00  0.00     0.007 A 
HETATM   30  C   UNK N   1      26.401  17.329   3.651  0.00  0.00     0.007 A 
ENDBRANCH  23  24
ENDBRANCH  22  23
ENDBRANCH   1  22
TORSDOF 3
ENDMDL
MODEL 4
REMARK VINA RESULT:      -7.7      5.631      8.833
REMARK  3 active torsions:
REMARK  status: ('A' for Active; 'I' for Inactive)
REMARK    1  A    between atoms: C_1  and  C_2 
REMARK    2  A    between atoms: C_1  and  C_19 
REMARK       I    between atoms: C_6  and  N_7 
REMARK    3  A    between atoms: C_19  and  C_20 
ROOT
HETATM    1  C   UNK N   1      21.992  17.913   4.425  0.00  0.00    -0.001 A 
HETATM    2  C   UNK N   1      23.222  18.632   4.317  0.00  0.00     0.073 A 
HETATM    3  N   UNK N   1      24.300  18.307   5.079  0.00  0.00    -0.190 N 
ATOM      4  HN  UNK N   1      24.226  17.534   5.741  1.00  0.00     0.184 HD
HETATM    5  C   UNK N   1      25.472  18.986   4.984  0.00  0.00     0.679 A 
HETATM    6  N   UNK N   1      26.564  18.617   5.792  0.00  0.00    -0.234 N 
HETATM    7  N   UNK N   1      25.595  20.019   4.111  0.00  0.00    -0.156 N 
HETATM    8  C   UNK N   1      24.551  20.399   3.311  0.00  0.00     0.272 A 
HETATM    9  O   UNK N   1      24.691  21.331   2.538  0.00  0.00    -0.267 OA
HETATM   10  C   UNK N   1      23.331  19.714   3.391  0.00  0.00     0.062 A 
HETATM   11  C   UNK N   1      22.232  20.076   2.583  0.00  0.00     0.051 A 
HETATM   12  C   UNK N   1      21.061  19.345   2.725  0.00  0.00     0.061 A 
HETATM   13  N   UNK N   1      19.903  19.510   2.069  0.00  0.00    -0.350 N 
HETATM   14  C   UNK N   1      19.088  18.548   2.576  0.00  0.00     0.181 A 
HETATM   15  N   UNK N   1      19.710  17.800   3.522  0.00  0.00    -0.350 N 
ATOM     16  HN  UNK N   1      19.325  17.020   4.055  1.00  0.00     0.166 HD
HETATM   17  C   UNK N   1      20.946  18.317   3.599  0.00  0.00     0.068 A 
HETATM   18  H   UNK N   1      27.417  19.102   5.720  0.00  0.00     0.174 HD
HETATM   19  H   UNK N   1      26.474  17.872   6.432  0.00  0.00     0.174 HD
HETATM   20  H   UNK N   1      26.451  20.503   4.051  0.00  0.00     0.187 HD
HETATM   21  H   UNK N   1      19.692  20.177   1.376  0.00  0.00     0.166 HD
ENDROOT
BRANCH   1  22
HETATM   22  C   UNK N   1      21.732  16.758   5.356  0.00  0.00     0.048 C 
BRANCH  22  23
HETATM   23  C   UNK N   1      21.158  17.075   6.729  0.00  0.00     0.043 C 
BRANCH  23  24
HETATM   24  C   UNK N   1      21.208  15.901   7.655  0.00  0.00    -0.058 A 
HETATM   25  C   UNK N   1      22.202  14.915   7.546  0.00  0.00     0.007 A 
HETATM   26  C   UNK N   1      22.224  13.836   8.429  0.00  0.00     0.007 A 
HETATM   27  C   UNK N   1      21.255  13.736   9.429  0.00  0.00    -0.062 A 
HETATM   28  C   UNK N   1      21.282  12.591  10.372  0.00  0.00     0.048 C 
HETATM   29  C   UNK N   1      20.261  14.714   9.543  0.00  0.00     0.007 A 
HETATM   30  C   UNK N   1      20.239  15.794   8.657  0.00  0.00     0.007 A 
ENDBRANCH  23  24
ENDBRANCH  22  23
ENDBRANCH   1  22
TORSDOF 3
ENDMDL
MODEL 5
REMARK VINA RESULT:      -7.6     12.179     13.935
REMARK  3 active torsions:
REMARK  status: ('A' for Active; 'I' for Inactive)
REMARK    1  A    between atoms: C_1  and  C_2 
REMARK    2  A    between atoms: C_1  and  C_19 
REMARK       I    between atoms: C_6  and  N_7 
REMARK    3  A    between atoms: C_19  and  C_20 
ROOT
HETATM    1  C   UNK N   1      26.987  24.123  -5.166  0.00  0.00    -0.001 A 
HETATM    2  C   UNK N   1      26.713  23.152  -6.178  0.00  0.00     0.073 A 
HETATM    3  N   UNK N   1      25.441  22.900  -6.588  0.00  0.00    -0.190 N 
ATOM      4  HN  UNK N   1      24.669  23.415  -6.163  1.00  0.00     0.184 HD
HETATM    5  C   UNK N   1      25.171  21.978  -7.549  0.00  0.00     0.679 A 
HETATM    6  N   UNK N   1      23.839  21.748  -7.944  0.00  0.00    -0.234 N 
HETATM    7  N   UNK N   1      26.180  21.280  -8.129  0.00  0.00    -0.156 N 
HETATM    8  C   UNK N   1      27.484  21.484  -7.766  0.00  0.00     0.272 A 
HETATM    9  O   UNK N   1      28.368  20.841  -8.304  0.00  0.00    -0.267 OA
HETATM   10  C   UNK N   1      27.788  22.429  -6.777  0.00  0.00     0.062 A 
HETATM   11  C   UNK N   1      29.120  22.669  -6.376  0.00  0.00     0.051 A 
HETATM   12  C   UNK N   1      29.334  23.623  -5.391  0.00  0.00     0.061 A 
HETATM   13  N   UNK N   1      30.503  24.010  -4.860  0.00  0.00    -0.350 N 
HETATM   14  C   UNK N   1      30.161  24.957  -3.947  0.00  0.00     0.181 A 
HETATM   15  N   UNK N   1      28.820  25.162  -3.902  0.00  0.00    -0.350 N 
ATOM     16  HN  UNK N   1      28.307  25.812  -3.308  1.00  0.00     0.166 HD
HETATM   17  C   UNK N   1      28.321  24.314  -4.816  0.00  0.00     0.068 A 
HETATM   18  H   UNK N   1      23.641  21.086  -8.645  0.00  0.00     0.174 HD
HETATM   19  H   UNK N   1      23.105  22.249  -7.518  0.00  0.00     0.174 HD
HETATM   20  H   UNK N   1      25.971  20.614  -8.825  0.00  0.00     0.187 HD
HETATM   21  H   UNK N   1      31.404  23.682  -5.081  0.00  0.00     0.166 HD
ENDROOT
BRANCH   1  22
HETATM   22  C   UNK N   1      25.957  24.953  -4.447  0.00  0.00     0.048 C 
BRANCH  22  23
HETATM   23  C   UNK N   1      25.265  26.056  -5.234  0.00  0.00     0.043 C 
BRANCH  23  24
HETATM   24  C   UNK N   1      25.994  27.360  -5.155  0.00  0.00    -0.058 A 
HETATM   25  C   UNK N   1      25.827  28.235  -4.069  0.00  0.00     0.007 A 
HETATM   26  C   UNK N   1      26.526  29.441  -4.022  0.00  0.00     0.007 A 
HETATM   27  C   UNK N   1      27.398  29.780  -5.058  0.00  0.00    -0.062 A 
HETATM   28  C   UNK N   1      28.145  31.060  -5.005  0.00  0.00     0.048 C 
HETATM   29  C   UNK N   1      27.567  28.914  -6.143  0.00  0.00     0.007 A 
HETATM   30  C   UNK N   1      26.866  27.706  -6.190  0.00  0.00     0.007 A 
ENDBRANCH  23  24
ENDBRANCH  22  23
ENDBRANCH   1  22
TORSDOF 3
ENDMDL
MODEL 6
REMARK VINA RESULT:      -7.6      6.056      8.988
REMARK  3 active torsions:
REMARK  status: ('A' for Active; 'I' for Inactive)
REMARK    1  A    between atoms: C_1  and  C_2 
REMARK    2  A    between atoms: C_1  and  C_19 
REMARK       I    between atoms: C_6  and  N_7 
REMARK    3  A    between atoms: C_19  and  C_20 
ROOT
HETATM    1  C   UNK N   1      22.575  16.889   4.701  0.00  0.00    -0.001 A 
HETATM    2  C   UNK N   1      21.981  17.963   3.970  0.00  0.00     0.073 A 
HETATM    3  N   UNK N   1      20.688  17.903   3.552  0.00  0.00    -0.190 N 
ATOM      4  HN  UNK N   1      20.134  17.074   3.766  1.00  0.00     0.184 HD
HETATM    5  C   UNK N   1      20.116  18.918   2.855  0.00  0.00     0.679 A 
HETATM    6  N   UNK N   1      18.774  18.815   2.441  0.00  0.00    -0.234 N 
HETATM    7  N   UNK N   1      20.833  20.032   2.556  0.00  0.00    -0.156 N 
HETATM    8  C   UNK N   1      22.139  20.161   2.947  0.00  0.00     0.272 A 
HETATM    9  O   UNK N   1      22.756  21.172   2.663  0.00  0.00    -0.267 OA
HETATM   10  C   UNK N   1      22.752  19.127   3.667  0.00  0.00     0.062 A 
HETATM   11  C   UNK N   1      24.095  19.222   4.088  0.00  0.00     0.051 A 
HETATM   12  C   UNK N   1      24.625  18.153   4.797  0.00  0.00     0.061 A 
HETATM   13  N   UNK N   1      25.866  18.027   5.290  0.00  0.00    -0.350 N 
HETATM   14  C   UNK N   1      25.868  16.807   5.889  0.00  0.00     0.181 A 
HETATM   15  N   UNK N   1      24.668  16.182   5.778  0.00  0.00    -0.350 N 
ATOM     16  HN  UNK N   1      24.405  15.265   6.136  1.00  0.00     0.166 HD
HETATM   17  C   UNK N   1      23.904  17.046   5.089  0.00  0.00     0.068 A 
HETATM   18  H   UNK N   1      18.355  19.553   1.942  0.00  0.00     0.174 HD
HETATM   19  H   UNK N   1      18.255  18.004   2.650  0.00  0.00     0.174 HD
HETATM   20  H   UNK N   1      20.406  20.762   2.051  0.00  0.00     0.187 HD
HETATM   21  H   UNK N   1      26.607  18.671   5.232  0.00  0.00     0.166 HD
ENDROOT
BRANCH   1  22
HETATM   22  C   UNK N   1      21.888  15.606   5.086  0.00  0.00     0.048 C 
BRANCH  22  23
HETATM   23  C   UNK N   1      20.813  15.676   6.160  0.00  0.00     0.043 C 
BRANCH  23  24
HETATM   24  C   UNK N   1      21.158  14.867   7.370  0.00  0.00    -0.058 A 
HETATM   25  C   UNK N   1      20.489  15.042   8.592  0.00  0.00     0.007 A 
HETATM   26  C   UNK N   1      20.830  14.267   9.700  0.00  0.00     0.007 A 
HETATM   27  C   UNK N   1      21.841  13.309   9.594  0.00  0.00    -0.062 A 
HETATM   28  C   UNK N   1      22.200  12.481  10.771  0.00  0.00     0.048 C 
HETATM   29  C   UNK N   1      22.512  13.131   8.380  0.00  0.00     0.007 A 
HETATM   30  C   UNK N   1      22.171  13.909   7.270  0.00  0.00     0.007 A 
ENDBRANCH  23  24
ENDBRANCH  22  23
ENDBRANCH   1  22
TORSDOF 3
ENDMDL
MODEL 7
REMARK VINA RESULT:      -7.5      1.978      3.500
REMARK  3 active torsions:
REMARK  status: ('A' for Active; 'I' for Inactive)
REMARK    1  A    between atoms: C_1  and  C_2 
REMARK    2  A    between atoms: C_1  and  C_19 
REMARK       I    between atoms: C_6  and  N_7 
REMARK    3  A    between atoms: C_19  and  C_20 
ROOT
HETATM    1  C   UNK N   1      30.784  17.184   6.726  0.00  0.00    -0.001 A 
HETATM    2  C   UNK N   1      30.750  16.956   5.316  0.00  0.00     0.073 A 
HETATM    3  N   UNK N   1      29.581  16.695   4.671  0.00  0.00    -0.190 N 
ATOM      4  HN  UNK N   1      28.714  16.661   5.207  1.00  0.00     0.184 HD
HETATM    5  C   UNK N   1      29.539  16.477   3.331  0.00  0.00     0.679 A 
HETATM    6  N   UNK N   1      28.308  16.209   2.703  0.00  0.00    -0.234 N 
HETATM    7  N   UNK N   1      30.680  16.516   2.595  0.00  0.00    -0.156 N 
HETATM    8  C   UNK N   1      31.891  16.775   3.179  0.00  0.00     0.272 A 
HETATM    9  O   UNK N   1      32.898  16.803   2.493  0.00  0.00    -0.267 OA
HETATM   10  C   UNK N   1      31.960  17.004   4.560  0.00  0.00     0.062 A 
HETATM   11  C   UNK N   1      33.190  17.275   5.198  0.00  0.00     0.051 A 
HETATM   12  C   UNK N   1      33.170  17.490   6.569  0.00  0.00     0.061 A 
HETATM   13  N   UNK N   1      34.207  17.761   7.375  0.00  0.00    -0.350 N 
HETATM   14  C   UNK N   1      33.652  17.881   8.609  0.00  0.00     0.181 A 
HETATM   15  N   UNK N   1      32.309  17.691   8.585  0.00  0.00    -0.350 N 
ATOM     16  HN  UNK N   1      31.658  17.726   9.370  1.00  0.00     0.166 HD
HETATM   17  C   UNK N   1      32.028  17.448   7.295  0.00  0.00     0.068 A 
HETATM   18  H   UNK N   1      28.274  16.057   1.731  0.00  0.00     0.174 HD
HETATM   19  H   UNK N   1      27.481  16.173   3.237  0.00  0.00     0.174 HD
HETATM   20  H   UNK N   1      30.636  16.356   1.624  0.00  0.00     0.187 HD
HETATM   21  H   UNK N   1      35.155  17.853   7.127  0.00  0.00     0.166 HD
ENDROOT
BRANCH   1  22
HETATM   22  C   UNK N   1      29.593  17.160   7.646  0.00  0.00     0.048 C 
BRANCH  22  23
HETATM   23  C   UNK N   1      28.939  18.491   7.987  0.00  0.00     0.043 C 
BRANCH  23  24
HETATM   24  C   UNK N   1      28.003  18.961   6.919  0.00  0.00    -0.058 A 
HETATM   25  C   UNK N   1      27.856  20.324   6.613  0.00  0.00     0.007 A 
HETATM   26  C   UNK N   1      26.979  20.729   5.606  0.00  0.00     0.007 A 
HETATM   27  C   UNK N   1      26.246  19.775   4.898  0.00  0.00    -0.062 A 
HETATM   28  C   UNK N   1      25.317  20.206   3.824  0.00  0.00     0.048 C 
HETATM   29  C   UNK N   1      26.387  18.417   5.199  0.00  0.00     0.007 A 
HETATM   30  C   UNK N   1      27.265  18.011   6.209  0.00  0.00     0.007 A 
ENDBRANCH  23  24
ENDBRANCH  22  23
ENDBRANCH   1  22
TORSDOF 3
ENDMDL
MODEL 8
REMARK VINA RESULT:      -7.4     12.302     13.928
REMARK  3 active torsions:
REMARK  status: ('A' for Active; 'I' for Inactive)
REMARK    1  A    between atoms: C_1  and  C_2 
REMARK    2  A    between atoms: C_1  and  C_19 
REMARK       I    between atoms: C_6  and  N_7 
REMARK    3  A    between atoms: C_19  and  C_20 
ROOT
HETATM    1  C   UNK N   1      26.696  23.804  -5.986  0.00  0.00    -0.001 A 
HETATM    2  C   UNK N   1      28.084  23.768  -5.648  0.00  0.00     0.073 A 
HETATM    3  N   UNK N   1      28.615  24.642  -4.751  0.00  0.00    -0.190 N 
ATOM      4  HN  UNK N   1      28.008  25.336  -4.313  1.00  0.00     0.184 HD
HETATM    5  C   UNK N   1      29.933  24.617  -4.424  0.00  0.00     0.679 A 
HETATM    6  N   UNK N   1      30.441  25.540  -3.491  0.00  0.00    -0.234 N 
HETATM    7  N   UNK N   1      30.761  23.704  -4.994  0.00  0.00    -0.156 N 
HETATM    8  C   UNK N   1      30.294  22.793  -5.903  0.00  0.00     0.272 A 
HETATM    9  O   UNK N   1      31.062  21.987  -6.398  0.00  0.00    -0.267 OA
HETATM   10  C   UNK N   1      28.938  22.799  -6.257  0.00  0.00     0.062 A 
HETATM   11  C   UNK N   1      28.419  21.876  -7.190  0.00  0.00     0.051 A 
HETATM   12  C   UNK N   1      27.064  21.951  -7.483  0.00  0.00     0.061 A 
HETATM   13  N   UNK N   1      26.362  21.184  -8.331  0.00  0.00    -0.350 N 
HETATM   14  C   UNK N   1      25.095  21.666  -8.250  0.00  0.00     0.181 A 
HETATM   15  N   UNK N   1      24.998  22.704  -7.381  0.00  0.00    -0.350 N 
ATOM     16  HN  UNK N   1      24.166  23.242  -7.138  1.00  0.00     0.166 HD
HETATM   17  C   UNK N   1      26.246  22.865  -6.911  0.00  0.00     0.068 A 
HETATM   18  H   UNK N   1      31.395  25.519  -3.247  0.00  0.00     0.174 HD
HETATM   19  H   UNK N   1      29.843  26.208  -3.083  0.00  0.00     0.174 HD
HETATM   20  H   UNK N   1      31.715  23.695  -4.748  0.00  0.00     0.187 HD
HETATM   21  H   UNK N   1      26.691  20.440  -8.885  0.00  0.00     0.166 HD
ENDROOT
BRANCH   1  22
HETATM   22  C   UNK N   1      25.683  24.768  -5.429  0.00  0.00     0.048 C 
BRANCH  22  23
HETATM   23  C   UNK N   1      25.337  25.990  -6.268  0.00  0.00     0.043 C 
BRANCH  23  24
HETATM   24  C   UNK N   1      25.976  27.240  -5.750  0.00  0.00    -0.058 A 
HETATM   25  C   UNK N   1      27.020  27.877  -6.441  0.00  0.00     0.007 A 
HETATM   26  C   UNK N   1      27.589  29.045  -5.935  0.00  0.00     0.007 A 
HETATM   27  C   UNK N   1      27.120  29.585  -4.736  0.00  0.00    -0.062 A 
HETATM   28  C   UNK N   1      27.723  30.830  -4.201  0.00  0.00     0.048 C 
HETATM   29  C   UNK N   1      26.082  28.954  -4.042  0.00  0.00     0.007 A 
HETATM   30  C   UNK N   1      25.512  27.783  -4.549  0.00  0.00     0.007 A 
ENDBRANCH  23  24
ENDBRANCH  22  23
ENDBRANCH   1  22
TORSDOF 3
ENDMDL
MODEL 9
REMARK VINA RESULT:      -7.4      7.799     12.327
REMARK  3 active torsions:
REMARK  status: ('A' for Active; 'I' for Inactive)
REMARK    1  A    between atoms: C_1  and  C_2 
REMARK    2  A    between atoms: C_1  and  C_19 
REMARK       I    between atoms: C_6  and  N_7 
REMARK    3  A    between atoms: C_19  and  C_20 
ROOT
HETATM    1  C   UNK N   1      35.615  13.942  11.219  0.00  0.00    -0.001 A 
HETATM    2  C   UNK N   1      34.627  14.426  10.309  0.00  0.00     0.073 A 
HETATM    3  N   UNK N   1      33.363  14.711  10.725  0.00  0.00    -0.190 N 
ATOM      4  HN  UNK N   1      33.120  14.574  11.706  1.00  0.00     0.184 HD
HETATM    5  C   UNK N   1      32.417  15.171   9.866  0.00  0.00     0.679 A 
HETATM    6  N   UNK N   1      31.121  15.452  10.338  0.00  0.00    -0.234 N 
HETATM    7  N   UNK N   1      32.716  15.361   8.556  0.00  0.00    -0.156 N 
HETATM    8  C   UNK N   1      33.969  15.097   8.069  0.00  0.00     0.272 A 
HETATM    9  O   UNK N   1      34.207  15.276   6.888  0.00  0.00    -0.267 OA
HETATM   10  C   UNK N   1      34.963  14.621   8.935  0.00  0.00     0.062 A 
HETATM   11  C   UNK N   1      36.265  14.338   8.472  0.00  0.00     0.051 A 
HETATM   12  C   UNK N   1      37.190  13.871   9.395  0.00  0.00     0.061 A 
HETATM   13  N   UNK N   1      38.471  13.540   9.182  0.00  0.00    -0.350 N 
HETATM   14  C   UNK N   1      38.926  13.148  10.401  0.00  0.00     0.181 A 
HETATM   15  N   UNK N   1      37.963  13.227  11.354  0.00  0.00    -0.350 N 
ATOM     16  HN  UNK N   1      38.041  12.993  12.343  1.00  0.00     0.166 HD
HETATM   17  C   UNK N   1      36.882  13.683  10.700  0.00  0.00     0.068 A 
HETATM   18  H   UNK N   1      30.435  15.793   9.719  0.00  0.00     0.174 HD
HETATM   19  H   UNK N   1      30.900  15.308  11.287  0.00  0.00     0.174 HD
HETATM   20  H   UNK N   1      32.021  15.696   7.943  0.00  0.00     0.187 HD
HETATM   21  H   UNK N   1      38.970  13.574   8.334  0.00  0.00     0.166 HD
ENDROOT
BRANCH   1  22
HETATM   22  C   UNK N   1      35.404  13.686  12.688  0.00  0.00     0.048 C 
BRANCH  22  23
HETATM   23  C   UNK N   1      34.809  12.345  13.092  0.00  0.00     0.043 C 
BRANCH  23  24
HETATM   24  C   UNK N   1      34.941  12.077  14.557  0.00  0.00    -0.058 A 
HETATM   25  C   UNK N   1      34.764  10.790  15.093  0.00  0.00     0.007 A 
HETATM   26  C   UNK N   1      34.901  10.573  16.463  0.00  0.00     0.007 A 
HETATM   27  C   UNK N   1      35.217  11.638  17.308  0.00  0.00    -0.062 A 
HETATM   28  C   UNK N   1      35.367  11.405  18.766  0.00  0.00     0.048 C 
HETATM   29  C   UNK N   1      35.393  12.922  16.782  0.00  0.00     0.007 A 
HETATM   30  C   UNK N   1      35.255  13.140  15.408  0.00  0.00     0.007 A 
ENDBRANCH  23  24
ENDBRANCH  22  23
ENDBRANCH   1  22
TORSDOF 3
ENDMDL
