REMARK  13 active torsions:
REMARK  status: ('A' for Active; 'I' for Inactive)
REMARK    1  A    between atoms: C_1  and  C_3 
REMARK    2  A    between atoms: C_7  and  C_8 
REMARK    3  A    between atoms: C_8  and  C_9 
REMARK    4  A    between atoms: C_8  and  N_15 
REMARK    5  A    between atoms: N_13  and  C_14 
REMARK       I    between atoms: N_13  and  C_21 
REMARK    6  A    between atoms: C_14  and  C_32 
REMARK    7  A    between atoms: C_16  and  N_15 
REMARK    8  A    between atoms: C_16  and  C_21 
REMARK    9  A    between atoms: C_16  and  C_17 
REMARK   10  A    between atoms: C_17  and  C_18 
REMARK   11  A    between atoms: C_25  and  S_28 
REMARK   12  A    between atoms: S_28  and  N_29 
REMARK   13  A    between atoms: C_32  and  N_33 
ROOT
HETATM    1  C   UNK N   1       1.869  -2.630   1.389  0.00  0.00     0.219 C 
ENDROOT
BRANCH   1   2
HETATM    2  C   UNK N   1       0.834  -1.865   0.590  0.00  0.00    -0.027 A 
HETATM    3  C   UNK N   1      -0.456  -2.389   0.461  0.00  0.00     0.010 A 
HETATM    4  C   UNK N   1      -1.464  -1.641  -0.131  0.00  0.00     0.013 A 
HETATM    5  C   UNK N   1      -1.211  -0.341  -0.588  0.00  0.00    -0.026 A 
HETATM    6  C   UNK N   1       0.089   0.177  -0.498  0.00  0.00     0.013 A 
HETATM    7  C   UNK N   1       1.107  -0.590   0.070  0.00  0.00     0.010 A 
BRANCH   5   8
HETATM    8  C   UNK N   1      -2.361   0.549  -0.834  0.00  0.00    -0.026 A 
HETATM    9  C   UNK N   1      -3.657   0.018  -0.757  0.00  0.00     0.014 A 
HETATM   10  C   UNK N   1      -4.748   0.854  -0.563  0.00  0.00     0.026 A 
HETATM   11  C   UNK N   1      -4.556   2.228  -0.438  0.00  0.00     0.079 A 
HETATM   12  C   UNK N   1      -3.281   2.779  -0.595  0.00  0.00     0.026 A 
HETATM   13  C   UNK N   1      -2.182   1.941  -0.800  0.00  0.00     0.014 A 
BRANCH  11  14
HETATM   14  S   UNK N   1      -5.882   3.216   0.223  0.00  0.00     0.256 S 
HETATM   15  O   UNK N   1      -6.528   2.485   1.411  0.00  0.00    -0.201 OA
HETATM   16  O   UNK N   1      -5.380   4.494   0.912  0.00  0.00    -0.201 OA
BRANCH  14  17
HETATM   17  N   UNK N   1      -7.237   3.705  -0.791  0.00  0.00    -0.324 N 
HETATM   18  H   UNK N   1      -7.384   4.526  -1.378  0.00  0.00     0.169 HD
HETATM   19  H   UNK N   1      -8.016   3.047  -0.791  0.00  0.00     0.169 HD
ENDBRANCH  14  17
ENDBRANCH  11  14
ENDBRANCH   5   8
ENDBRANCH   1   2
BRANCH   1  20
HETATM   20  C   UNK N   1       1.942  -4.125   1.012  0.00  0.00     0.411 C 
HETATM   21  F   UNK N   1       2.939  -4.748   1.740  0.00  0.00    -0.168 F 
HETATM   22  F   UNK N   1       2.164  -4.293  -0.340  0.00  0.00    -0.168 F 
HETATM   23  F   UNK N   1       0.744  -4.746   1.324  0.00  0.00    -0.168 F 
ENDBRANCH   1  20
BRANCH   1  24
HETATM   24  N   UNK N   1       3.180  -1.945   1.419  0.00  0.00    -0.394 N 
HETATM   25  H   UNK N   1       3.518  -1.475   2.259  0.00  0.00     0.155 HD
BRANCH  24  26
HETATM   26  C   UNK N   1       3.974  -1.972   0.181  0.00  0.00     0.170 C 
BRANCH  26  27
HETATM   27  C   UNK N   1       4.604  -0.584   0.009  0.00  0.00     0.240 C 
HETATM   28  N   UNK N   1       5.944  -0.326   0.012  0.00  0.00    -0.358 N 
HETATM   29  H   UNK N   1       6.213   0.614  -0.104  0.00  0.00     0.162 HD
HETATM   30  O   UNK N   1       3.850   0.361  -0.121  0.00  0.00    -0.271 OA
BRANCH  28  31
HETATM   31  C   UNK N   1       7.004  -1.286   0.166  0.00  0.00     0.141 C 
BRANCH  31  32
HETATM   32  C   UNK N   1       8.309  -0.567   0.458  0.00  0.00     0.130 C 
BRANCH  32  33
HETATM   33  N   UNK N   1       8.696   0.256  -0.675  0.00  0.00    -0.429 N 
HETATM   34  H   UNK N   1       9.332   0.310  -1.471  0.00  0.00     0.149 HD
HETATM   35  H   UNK N   1       8.113   1.093  -0.675  0.00  0.00     0.149 HD
ENDBRANCH  32  33
ENDBRANCH  31  32
ENDBRANCH  28  31
ENDBRANCH  26  27
BRANCH  26  36
HETATM   36  C   UNK N   1       4.950  -3.151   0.286  0.00  0.00     0.038 C 
BRANCH  36  37
HETATM   37  C   UNK N   1       4.851  -4.129  -0.877  0.00  0.00    -0.020 C 
HETATM   38  C   UNK N   1       5.599  -3.614  -2.089  0.00  0.00     0.009 C 
HETATM   39  C   UNK N   1       5.407  -5.473  -0.458  0.00  0.00     0.009 C 
ENDBRANCH  36  37
ENDBRANCH  26  36
ENDBRANCH  24  26
ENDBRANCH   1  24
TORSDOF 13
