MODEL 1
REMARK VINA RESULT:      -7.5      0.000      0.000
REMARK  13 active torsions:
REMARK  status: ('A' for Active; 'I' for Inactive)
REMARK    1  A    between atoms: C_1  and  C_3 
REMARK    2  A    between atoms: C_7  and  C_8 
REMARK    3  A    between atoms: C_8  and  C_9 
REMARK    4  A    between atoms: C_8  and  N_15 
REMARK    5  A    between atoms: N_13  and  C_14 
REMARK       I    between atoms: N_13  and  C_21 
REMARK    6  A    between atoms: C_14  and  C_32 
REMARK    7  A    between atoms: C_16  and  N_15 
REMARK    8  A    between atoms: C_16  and  C_21 
REMARK    9  A    between atoms: C_16  and  C_17 
REMARK   10  A    between atoms: C_17  and  C_18 
REMARK   11  A    between atoms: C_25  and  S_28 
REMARK   12  A    between atoms: S_28  and  N_29 
REMARK   13  A    between atoms: C_32  and  N_33 
ROOT
HETATM    1  C   UNK N   1      26.796  19.583   5.847  0.00  0.00     0.219 C 
ENDROOT
BRANCH   1   2
HETATM    2  C   UNK N   1      27.936  18.669   6.247  0.00  0.00    -0.027 A 
HETATM    3  C   UNK N   1      28.827  18.217   5.269  0.00  0.00     0.010 A 
HETATM    4  C   UNK N   1      29.965  17.508   5.626  0.00  0.00     0.013 A 
HETATM    5  C   UNK N   1      30.251  17.254   6.974  0.00  0.00    -0.026 A 
HETATM    6  C   UNK N   1      29.343  17.669   7.958  0.00  0.00     0.013 A 
HETATM    7  C   UNK N   1      28.184  18.355   7.592  0.00  0.00     0.010 A 
BRANCH   5   8
HETATM    8  C   UNK N   1      31.627  16.866   7.335  0.00  0.00    -0.026 A 
HETATM    9  C   UNK N   1      32.526  17.862   7.745  0.00  0.00     0.014 A 
HETATM   10  C   UNK N   1      33.658  17.529   8.476  0.00  0.00     0.026 A 
HETATM   11  C   UNK N   1      33.901  16.199   8.811  0.00  0.00     0.079 A 
HETATM   12  C   UNK N   1      33.059  15.188   8.339  0.00  0.00     0.026 A 
HETATM   13  C   UNK N   1      31.925  15.519   7.594  0.00  0.00     0.014 A 
BRANCH  11  14
HETATM   14  S   UNK N   1      35.097  15.846  10.082  0.00  0.00     0.256 S 
HETATM   15  O   UNK N   1      35.692  17.161  10.611  0.00  0.00    -0.201 OA
HETATM   16  O   UNK N   1      34.453  15.288  11.361  0.00  0.00    -0.201 OA
BRANCH  14  17
HETATM   17  N   UNK N   1      36.495  14.826   9.751  0.00  0.00    -0.324 N 
HETATM   18  H   UNK N   1      36.663  13.833   9.910  0.00  0.00     0.169 HD
HETATM   19  H   UNK N   1      37.277  15.318   9.322  0.00  0.00     0.169 HD
ENDBRANCH  14  17
ENDBRANCH  11  14
ENDBRANCH   5   8
ENDBRANCH   1   2
BRANCH   1  20
HETATM   20  C   UNK N   1      26.895  20.988   6.479  0.00  0.00     0.411 C 
HETATM   21  F   UNK N   1      26.068  21.868   5.806  0.00  0.00    -0.168 F 
HETATM   22  F   UNK N   1      28.194  21.453   6.470  0.00  0.00    -0.168 F 
HETATM   23  F   UNK N   1      26.472  20.939   7.797  0.00  0.00    -0.168 F 
ENDBRANCH   1  20
BRANCH   1  24
HETATM   24  N   UNK N   1      26.561  19.588   4.386  0.00  0.00    -0.394 N 
HETATM   25  H   UNK N   1      27.255  19.956   3.735  0.00  0.00     0.155 HD
BRANCH  24  26
HETATM   26  C   UNK N   1      25.280  19.039   3.915  0.00  0.00     0.170 C 
BRANCH  26  27
HETATM   27  C   UNK N   1      24.625  20.101   3.024  0.00  0.00     0.240 C 
HETATM   28  N   UNK N   1      23.280  20.284   2.882  0.00  0.00    -0.358 N 
HETATM   29  H   UNK N   1      22.994  21.001   2.271  0.00  0.00     0.162 HD
HETATM   30  O   UNK N   1      25.361  20.823   2.380  0.00  0.00    -0.271 OA
BRANCH  28  31
HETATM   31  C   UNK N   1      22.237  19.537   3.533  0.00  0.00     0.141 C 
BRANCH  31  32
HETATM   32  C   UNK N   1      20.888  19.931   2.959  0.00  0.00     0.130 C 
BRANCH  32  33
HETATM   33  N   UNK N   1      20.919  21.309   2.499  0.00  0.00    -0.429 N 
HETATM   34  H   UNK N   1      21.206  21.910   1.726  0.00  0.00     0.149 HD
HETATM   35  H   UNK N   1      20.494  21.894   3.218  0.00  0.00     0.149 HD
ENDBRANCH  32  33
ENDBRANCH  31  32
ENDBRANCH  28  31
ENDBRANCH  26  27
BRANCH  26  36
HETATM   36  C   UNK N   1      25.574  17.686   3.254  0.00  0.00     0.038 C 
BRANCH  36  37
HETATM   37  C   UNK N   1      25.118  16.492   4.080  0.00  0.00    -0.020 C 
HETATM   38  C   UNK N   1      26.299  15.762   4.684  0.00  0.00     0.009 C 
HETATM   39  C   UNK N   1      24.184  16.960   5.175  0.00  0.00     0.009 C 
ENDBRANCH  36  37
ENDBRANCH  26  36
ENDBRANCH  24  26
ENDBRANCH   1  24
TORSDOF 13
ENDMDL
MODEL 2
REMARK VINA RESULT:      -7.3      3.857     10.251
REMARK  13 active torsions:
REMARK  status: ('A' for Active; 'I' for Inactive)
REMARK    1  A    between atoms: C_1  and  C_3 
REMARK    2  A    between atoms: C_7  and  C_8 
REMARK    3  A    between atoms: C_8  and  C_9 
REMARK    4  A    between atoms: C_8  and  N_15 
REMARK    5  A    between atoms: N_13  and  C_14 
REMARK       I    between atoms: N_13  and  C_21 
REMARK    6  A    between atoms: C_14  and  C_32 
REMARK    7  A    between atoms: C_16  and  N_15 
REMARK    8  A    between atoms: C_16  and  C_21 
REMARK    9  A    between atoms: C_16  and  C_17 
REMARK   10  A    between atoms: C_17  and  C_18 
REMARK   11  A    between atoms: C_25  and  S_28 
REMARK   12  A    between atoms: S_28  and  N_29 
REMARK   13  A    between atoms: C_32  and  N_33 
ROOT
HETATM    1  C   UNK N   1      29.800  17.791   7.825  0.00  0.00     0.219 C 
ENDROOT
BRANCH   1   2
HETATM    2  C   UNK N   1      28.872  18.281   6.733  0.00  0.00    -0.027 A 
HETATM    3  C   UNK N   1      28.775  17.556   5.541  0.00  0.00     0.010 A 
HETATM    4  C   UNK N   1      27.823  17.892   4.588  0.00  0.00     0.013 A 
HETATM    5  C   UNK N   1      26.930  18.947   4.815  0.00  0.00    -0.026 A 
HETATM    6  C   UNK N   1      27.046  19.704   5.990  0.00  0.00     0.013 A 
HETATM    7  C   UNK N   1      28.025  19.382   6.932  0.00  0.00     0.010 A 
BRANCH   5   8
HETATM    8  C   UNK N   1      25.708  19.018   3.992  0.00  0.00    -0.026 A 
HETATM    9  C   UNK N   1      24.632  18.174   4.303  0.00  0.00     0.014 A 
HETATM   10  C   UNK N   1      23.352  18.475   3.859  0.00  0.00     0.026 A 
HETATM   11  C   UNK N   1      23.132  19.624   3.104  0.00  0.00     0.079 A 
HETATM   12  C   UNK N   1      24.207  20.430   2.716  0.00  0.00     0.026 A 
HETATM   13  C   UNK N   1      25.498  20.124   3.154  0.00  0.00     0.014 A 
BRANCH  11  14
HETATM   14  S   UNK N   1      21.461  20.209   2.911  0.00  0.00     0.256 S 
HETATM   15  O   UNK N   1      20.710  20.077   4.246  0.00  0.00    -0.201 OA
HETATM   16  O   UNK N   1      21.388  21.728   2.690  0.00  0.00    -0.201 OA
BRANCH  14  17
HETATM   17  N   UNK N   1      20.383  19.487   1.719  0.00  0.00    -0.324 N 
HETATM   18  H   UNK N   1      19.492  19.799   1.332  0.00  0.00     0.169 HD
HETATM   19  H   UNK N   1      20.709  18.595   1.349  0.00  0.00     0.169 HD
ENDBRANCH  14  17
ENDBRANCH  11  14
ENDBRANCH   5   8
ENDBRANCH   1   2
BRANCH   1  20
HETATM   20  C   UNK N   1      29.081  17.558   9.171  0.00  0.00     0.411 C 
HETATM   21  F   UNK N   1      27.828  17.017   8.951  0.00  0.00    -0.168 F 
HETATM   22  F   UNK N   1      28.974  18.729   9.894  0.00  0.00    -0.168 F 
HETATM   23  F   UNK N   1      29.800  16.654   9.936  0.00  0.00    -0.168 F 
ENDBRANCH   1  20
BRANCH   1  24
HETATM   24  N   UNK N   1      30.647  16.661   7.384  0.00  0.00    -0.394 N 
HETATM   25  H   UNK N   1      30.252  15.856   6.896  0.00  0.00     0.155 HD
BRANCH  24  26
HETATM   26  C   UNK N   1      32.084  16.750   7.680  0.00  0.00     0.170 C 
BRANCH  26  27
HETATM   27  C   UNK N   1      32.570  15.338   8.030  0.00  0.00     0.240 C 
HETATM   28  N   UNK N   1      33.709  15.051   8.725  0.00  0.00    -0.358 N 
HETATM   29  H   UNK N   1      33.905  14.098   8.876  0.00  0.00     0.162 HD
HETATM   30  O   UNK N   1      31.898  14.402   7.641  0.00  0.00    -0.271 OA
BRANCH  28  31
HETATM   31  C   UNK N   1      34.651  15.996   9.260  0.00  0.00     0.141 C 
BRANCH  31  32
HETATM   32  C   UNK N   1      34.919  15.683  10.722  0.00  0.00     0.130 C 
BRANCH  32  33
HETATM   33  N   UNK N   1      33.851  14.862  11.265  0.00  0.00    -0.429 N 
HETATM   34  H   UNK N   1      32.910  14.512  11.082  0.00  0.00     0.149 HD
HETATM   35  H   UNK N   1      34.156  14.499  12.168  0.00  0.00     0.149 HD
ENDBRANCH  32  33
ENDBRANCH  31  32
ENDBRANCH  28  31
ENDBRANCH  26  27
BRANCH  26  36
HETATM   36  C   UNK N   1      32.762  17.422   6.479  0.00  0.00     0.038 C 
BRANCH  36  37
HETATM   37  C   UNK N   1      32.473  16.731   5.153  0.00  0.00    -0.020 C 
HETATM   38  C   UNK N   1      32.087  17.735   4.086  0.00  0.00     0.009 C 
HETATM   39  C   UNK N   1      33.692  15.950   4.712  0.00  0.00     0.009 C 
ENDBRANCH  36  37
ENDBRANCH  26  36
ENDBRANCH  24  26
ENDBRANCH   1  24
TORSDOF 13
ENDMDL
MODEL 3
REMARK VINA RESULT:      -7.2      4.179     10.166
REMARK  13 active torsions:
REMARK  status: ('A' for Active; 'I' for Inactive)
REMARK    1  A    between atoms: C_1  and  C_3 
REMARK    2  A    between atoms: C_7  and  C_8 
REMARK    3  A    between atoms: C_8  and  C_9 
REMARK    4  A    between atoms: C_8  and  N_15 
REMARK    5  A    between atoms: N_13  and  C_14 
REMARK       I    between atoms: N_13  and  C_21 
REMARK    6  A    between atoms: C_14  and  C_32 
REMARK    7  A    between atoms: C_16  and  N_15 
REMARK    8  A    between atoms: C_16  and  C_21 
REMARK    9  A    between atoms: C_16  and  C_17 
REMARK   10  A    between atoms: C_17  and  C_18 
REMARK   11  A    between atoms: C_25  and  S_28 
REMARK   12  A    between atoms: S_28  and  N_29 
REMARK   13  A    between atoms: C_32  and  N_33 
ROOT
HETATM    1  C   UNK N   1      29.775  17.448   6.605  0.00  0.00     0.219 C 
ENDROOT
BRANCH   1   2
HETATM    2  C   UNK N   1      28.560  17.817   5.780  0.00  0.00    -0.027 A 
HETATM    3  C   UNK N   1      27.390  17.063   5.908  0.00  0.00     0.010 A 
HETATM    4  C   UNK N   1      26.218  17.469   5.284  0.00  0.00     0.013 A 
HETATM    5  C   UNK N   1      26.184  18.652   4.534  0.00  0.00    -0.026 A 
HETATM    6  C   UNK N   1      27.363  19.393   4.368  0.00  0.00     0.013 A 
HETATM    7  C   UNK N   1      28.546  18.965   4.972  0.00  0.00     0.010 A 
BRANCH   5   8
HETATM    8  C   UNK N   1      24.870  19.249   4.231  0.00  0.00    -0.026 A 
HETATM    9  C   UNK N   1      24.809  20.343   3.355  0.00  0.00     0.014 A 
HETATM   10  C   UNK N   1      23.618  20.667   2.720  0.00  0.00     0.026 A 
HETATM   11  C   UNK N   1      22.478  19.900   2.947  0.00  0.00     0.079 A 
HETATM   12  C   UNK N   1      22.503  18.859   3.880  0.00  0.00     0.026 A 
HETATM   13  C   UNK N   1      23.698  18.536   4.529  0.00  0.00     0.014 A 
BRANCH  11  14
HETATM   14  S   UNK N   1      21.105  20.063   1.825  0.00  0.00     0.256 S 
HETATM   15  O   UNK N   1      20.095  21.075   2.388  0.00  0.00    -0.201 OA
HETATM   16  O   UNK N   1      21.496  20.750   0.508  0.00  0.00    -0.201 OA
BRANCH  14  17
HETATM   17  N   UNK N   1      20.132  18.663   1.378  0.00  0.00    -0.324 N 
HETATM   18  H   UNK N   1      19.130  18.484   1.443  0.00  0.00     0.169 HD
HETATM   19  H   UNK N   1      20.669  17.892   0.982  0.00  0.00     0.169 HD
ENDBRANCH  14  17
ENDBRANCH  11  14
ENDBRANCH   5   8
ENDBRANCH   1   2
BRANCH   1  20
HETATM   20  C   UNK N   1      29.708  17.978   8.053  0.00  0.00     0.411 C 
HETATM   21  F   UNK N   1      28.916  19.111   8.106  0.00  0.00    -0.168 F 
HETATM   22  F   UNK N   1      30.967  18.255   8.547  0.00  0.00    -0.168 F 
HETATM   23  F   UNK N   1      29.131  17.025   8.875  0.00  0.00    -0.168 F 
ENDBRANCH   1  20
BRANCH   1  24
HETATM   24  N   UNK N   1      30.117  16.012   6.498  0.00  0.00    -0.394 N 
HETATM   25  H   UNK N   1      29.497  15.287   6.860  0.00  0.00     0.155 HD
BRANCH  24  26
HETATM   26  C   UNK N   1      31.392  15.678   5.845  0.00  0.00     0.170 C 
BRANCH  26  27
HETATM   27  C   UNK N   1      31.730  14.228   6.213  0.00  0.00     0.240 C 
HETATM   28  N   UNK N   1      32.541  13.849   7.243  0.00  0.00    -0.358 N 
HETATM   29  H   UNK N   1      32.678  12.882   7.365  0.00  0.00     0.162 HD
HETATM   30  O   UNK N   1      31.252  13.349   5.522  0.00  0.00    -0.271 OA
BRANCH  28  31
HETATM   31  C   UNK N   1      33.218  14.718   8.168  0.00  0.00     0.141 C 
BRANCH  31  32
HETATM   32  C   UNK N   1      32.304  15.029   9.341  0.00  0.00     0.130 C 
BRANCH  32  33
HETATM   33  N   UNK N   1      33.069  15.083  10.575  0.00  0.00    -0.429 N 
HETATM   34  H   UNK N   1      33.057  14.818  11.560  0.00  0.00     0.149 HD
HETATM   35  H   UNK N   1      33.946  15.568  10.386  0.00  0.00     0.149 HD
ENDBRANCH  32  33
ENDBRANCH  31  32
ENDBRANCH  28  31
ENDBRANCH  26  27
BRANCH  26  36
HETATM   36  C   UNK N   1      31.236  15.979   4.349  0.00  0.00     0.038 C 
BRANCH  36  37
HETATM   37  C   UNK N   1      32.368  16.821   3.776  0.00  0.00    -0.020 C 
HETATM   38  C   UNK N   1      33.096  17.574   4.870  0.00  0.00     0.009 C 
HETATM   39  C   UNK N   1      33.335  15.929   3.029  0.00  0.00     0.009 C 
ENDBRANCH  36  37
ENDBRANCH  26  36
ENDBRANCH  24  26
ENDBRANCH   1  24
TORSDOF 13
ENDMDL
MODEL 4
REMARK VINA RESULT:      -7.0      3.615      5.326
REMARK  13 active torsions:
REMARK  status: ('A' for Active; 'I' for Inactive)
REMARK    1  A    between atoms: C_1  and  C_3 
REMARK    2  A    between atoms: C_7  and  C_8 
REMARK    3  A    between atoms: C_8  and  C_9 
REMARK    4  A    between atoms: C_8  and  N_15 
REMARK    5  A    between atoms: N_13  and  C_14 
REMARK       I    between atoms: N_13  and  C_21 
REMARK    6  A    between atoms: C_14  and  C_32 
REMARK    7  A    between atoms: C_16  and  N_15 
REMARK    8  A    between atoms: C_16  and  C_21 
REMARK    9  A    between atoms: C_16  and  C_17 
REMARK   10  A    between atoms: C_17  and  C_18 
REMARK   11  A    between atoms: C_25  and  S_28 
REMARK   12  A    between atoms: S_28  and  N_29 
REMARK   13  A    between atoms: C_32  and  N_33 
ROOT
HETATM    1  C   UNK N   1      31.034  16.840   4.582  0.00  0.00     0.219 C 
ENDROOT
BRANCH   1   2
HETATM    2  C   UNK N   1      32.175  16.380   5.465  0.00  0.00    -0.027 A 
HETATM    3  C   UNK N   1      33.251  17.242   5.699  0.00  0.00     0.010 A 
HETATM    4  C   UNK N   1      34.232  16.910   6.624  0.00  0.00     0.013 A 
HETATM    5  C   UNK N   1      34.148  15.717   7.353  0.00  0.00    -0.026 A 
HETATM    6  C   UNK N   1      33.093  14.829   7.096  0.00  0.00     0.013 A 
HETATM    7  C   UNK N   1      32.126  15.152   6.144  0.00  0.00     0.010 A 
BRANCH   5   8
HETATM    8  C   UNK N   1      34.959  15.588   8.578  0.00  0.00    -0.026 A 
HETATM    9  C   UNK N   1      34.550  16.265   9.736  0.00  0.00     0.014 A 
HETATM   10  C   UNK N   1      35.008  15.864  10.983  0.00  0.00     0.026 A 
HETATM   11  C   UNK N   1      35.875  14.779  11.087  0.00  0.00     0.079 A 
HETATM   12  C   UNK N   1      36.356  14.147   9.937  0.00  0.00     0.026 A 
HETATM   13  C   UNK N   1      35.904  14.555   8.679  0.00  0.00     0.014 A 
BRANCH  11  14
HETATM   14  S   UNK N   1      36.108  14.026  12.684  0.00  0.00     0.256 S 
HETATM   15  O   UNK N   1      36.475  15.105  13.716  0.00  0.00    -0.201 OA
HETATM   16  O   UNK N   1      34.798  13.491  13.283  0.00  0.00    -0.201 OA
BRANCH  14  17
HETATM   17  N   UNK N   1      37.308  12.758  12.920  0.00  0.00    -0.324 N 
HETATM   18  H   UNK N   1      38.323  12.755  12.814  0.00  0.00     0.169 HD
HETATM   19  H   UNK N   1      36.917  11.864  13.215  0.00  0.00     0.169 HD
ENDBRANCH  14  17
ENDBRANCH  11  14
ENDBRANCH   5   8
ENDBRANCH   1   2
BRANCH   1  20
HETATM   20  C   UNK N   1      31.222  16.454   3.099  0.00  0.00     0.411 C 
HETATM   21  F   UNK N   1      30.047  16.670   2.402  0.00  0.00    -0.168 F 
HETATM   22  F   UNK N   1      31.618  15.138   2.968  0.00  0.00    -0.168 F 
HETATM   23  F   UNK N   1      32.201  17.249   2.528  0.00  0.00    -0.168 F 
ENDBRANCH   1  20
BRANCH   1  24
HETATM   24  N   UNK N   1      29.710  16.489   5.140  0.00  0.00    -0.394 N 
HETATM   25  H   UNK N   1      29.254  15.604   4.917  0.00  0.00     0.155 HD
BRANCH  24  26
HETATM   26  C   UNK N   1      29.079  17.475   6.031  0.00  0.00     0.170 C 
BRANCH  26  27
HETATM   27  C   UNK N   1      27.590  17.536   5.668  0.00  0.00     0.240 C 
HETATM   28  N   UNK N   1      26.785  18.624   5.844  0.00  0.00    -0.358 N 
HETATM   29  H   UNK N   1      25.844  18.525   5.572  0.00  0.00     0.162 HD
HETATM   30  O   UNK N   1      27.085  16.531   5.206  0.00  0.00    -0.271 OA
BRANCH  28  31
HETATM   31  C   UNK N   1      27.169  19.900   6.384  0.00  0.00     0.141 C 
BRANCH  31  32
HETATM   32  C   UNK N   1      26.607  21.014   5.519  0.00  0.00     0.130 C 
BRANCH  32  33
HETATM   33  N   UNK N   1      26.623  20.623   4.120  0.00  0.00    -0.429 N 
HETATM   34  H   UNK N   1      26.032  20.486   3.300  0.00  0.00     0.149 HD
HETATM   35  H   UNK N   1      27.585  20.403   3.861  0.00  0.00     0.149 HD
ENDBRANCH  32  33
ENDBRANCH  31  32
ENDBRANCH  28  31
ENDBRANCH  26  27
BRANCH  26  36
HETATM   36  C   UNK N   1      29.410  17.070   7.473  0.00  0.00     0.038 C 
BRANCH  36  37
HETATM   37  C   UNK N   1      29.919  18.223   8.328  0.00  0.00    -0.020 C 
HETATM   38  C   UNK N   1      29.072  18.396   9.571  0.00  0.00     0.009 C 
HETATM   39  C   UNK N   1      31.360  17.970   8.715  0.00  0.00     0.009 C 
ENDBRANCH  36  37
ENDBRANCH  26  36
ENDBRANCH  24  26
ENDBRANCH   1  24
TORSDOF 13
ENDMDL
MODEL 5
REMARK VINA RESULT:      -7.0      4.159      5.781
REMARK  13 active torsions:
REMARK  status: ('A' for Active; 'I' for Inactive)
REMARK    1  A    between atoms: C_1  and  C_3 
REMARK    2  A    between atoms: C_7  and  C_8 
REMARK    3  A    between atoms: C_8  and  C_9 
REMARK    4  A    between atoms: C_8  and  N_15 
REMARK    5  A    between atoms: N_13  and  C_14 
REMARK       I    between atoms: N_13  and  C_21 
REMARK    6  A    between atoms: C_14  and  C_32 
REMARK    7  A    between atoms: C_16  and  N_15 
REMARK    8  A    between atoms: C_16  and  C_21 
REMARK    9  A    between atoms: C_16  and  C_17 
REMARK   10  A    between atoms: C_17  and  C_18 
REMARK   11  A    between atoms: C_25  and  S_28 
REMARK   12  A    between atoms: S_28  and  N_29 
REMARK   13  A    between atoms: C_32  and  N_33 
ROOT
HETATM    1  C   UNK N   1      30.678  17.196   5.605  0.00  0.00     0.219 C 
ENDROOT
BRANCH   1   2
HETATM    2  C   UNK N   1      31.492  16.906   6.849  0.00  0.00    -0.027 A 
HETATM    3  C   UNK N   1      31.261  15.723   7.559  0.00  0.00     0.010 A 
HETATM    4  C   UNK N   1      32.092  15.357   8.608  0.00  0.00     0.013 A 
HETATM    5  C   UNK N   1      33.189  16.155   8.959  0.00  0.00    -0.026 A 
HETATM    6  C   UNK N   1      33.405  17.362   8.278  0.00  0.00     0.013 A 
HETATM    7  C   UNK N   1      32.549  17.742   7.244  0.00  0.00     0.010 A 
BRANCH   5   8
HETATM    8  C   UNK N   1      34.254  15.555   9.784  0.00  0.00    -0.026 A 
HETATM    9  C   UNK N   1      35.008  16.386  10.626  0.00  0.00     0.014 A 
HETATM   10  C   UNK N   1      35.707  15.850  11.699  0.00  0.00     0.026 A 
HETATM   11  C   UNK N   1      35.656  14.480  11.946  0.00  0.00     0.079 A 
HETATM   12  C   UNK N   1      34.976  13.630  11.068  0.00  0.00     0.026 A 
HETATM   13  C   UNK N   1      34.280  14.165   9.981  0.00  0.00     0.014 A 
BRANCH  11  14
HETATM   14  S   UNK N   1      36.192  13.881  13.535  0.00  0.00     0.256 S 
HETATM   15  O   UNK N   1      34.974  13.413  14.348  0.00  0.00    -0.201 OA
HETATM   16  O   UNK N   1      36.989  12.571  13.434  0.00  0.00    -0.201 OA
BRANCH  14  17
HETATM   17  N   UNK N   1      37.093  14.920  14.635  0.00  0.00    -0.324 N 
HETATM   18  H   UNK N   1      37.249  14.869  15.642  0.00  0.00     0.169 HD
HETATM   19  H   UNK N   1      37.539  15.718  14.184  0.00  0.00     0.169 HD
ENDBRANCH  14  17
ENDBRANCH  11  14
ENDBRANCH   5   8
ENDBRANCH   1   2
BRANCH   1  20
HETATM   20  C   UNK N   1      31.499  17.081   4.303  0.00  0.00     0.411 C 
HETATM   21  F   UNK N   1      32.370  16.011   4.387  0.00  0.00    -0.168 F 
HETATM   22  F   UNK N   1      32.196  18.243   4.043  0.00  0.00    -0.168 F 
HETATM   23  F   UNK N   1      30.650  16.848   3.234  0.00  0.00    -0.168 F 
ENDBRANCH   1  20
BRANCH   1  24
HETATM   24  N   UNK N   1      29.396  16.458   5.584  0.00  0.00    -0.394 N 
HETATM   25  H   UNK N   1      29.364  15.446   5.463  0.00  0.00     0.155 HD
BRANCH  24  26
HETATM   26  C   UNK N   1      28.168  17.252   5.744  0.00  0.00     0.170 C 
BRANCH  26  27
HETATM   27  C   UNK N   1      27.568  16.900   7.112  0.00  0.00     0.240 C 
HETATM   28  N   UNK N   1      27.863  17.535   8.283  0.00  0.00    -0.358 N 
HETATM   29  H   UNK N   1      27.409  17.203   9.092  0.00  0.00     0.162 HD
HETATM   30  O   UNK N   1      26.785  15.971   7.157  0.00  0.00    -0.271 OA
BRANCH  28  31
HETATM   31  C   UNK N   1      28.767  18.639   8.459  0.00  0.00     0.141 C 
BRANCH  31  32
HETATM   32  C   UNK N   1      29.665  18.382   9.656  0.00  0.00     0.130 C 
BRANCH  32  33
HETATM   33  N   UNK N   1      29.323  17.115  10.280  0.00  0.00    -0.429 N 
HETATM   34  H   UNK N   1      29.450  16.106  10.211  0.00  0.00     0.149 HD
HETATM   35  H   UNK N   1      28.736  17.308  11.092  0.00  0.00     0.149 HD
ENDBRANCH  32  33
ENDBRANCH  31  32
ENDBRANCH  28  31
ENDBRANCH  26  27
BRANCH  26  36
HETATM   36  C   UNK N   1      28.540  18.724   5.526  0.00  0.00     0.038 C 
BRANCH  36  37
HETATM   37  C   UNK N   1      27.340  19.623   5.257  0.00  0.00    -0.020 C 
HETATM   38  C   UNK N   1      27.509  20.973   5.922  0.00  0.00     0.009 C 
HETATM   39  C   UNK N   1      27.164  19.799   3.764  0.00  0.00     0.009 C 
ENDBRANCH  36  37
ENDBRANCH  26  36
ENDBRANCH  24  26
ENDBRANCH   1  24
TORSDOF 13
ENDMDL
MODEL 6
REMARK VINA RESULT:      -6.8      1.790      1.993
REMARK  13 active torsions:
REMARK  status: ('A' for Active; 'I' for Inactive)
REMARK    1  A    between atoms: C_1  and  C_3 
REMARK    2  A    between atoms: C_7  and  C_8 
REMARK    3  A    between atoms: C_8  and  C_9 
REMARK    4  A    between atoms: C_8  and  N_15 
REMARK    5  A    between atoms: N_13  and  C_14 
REMARK       I    between atoms: N_13  and  C_21 
REMARK    6  A    between atoms: C_14  and  C_32 
REMARK    7  A    between atoms: C_16  and  N_15 
REMARK    8  A    between atoms: C_16  and  C_21 
REMARK    9  A    between atoms: C_16  and  C_17 
REMARK   10  A    between atoms: C_17  and  C_18 
REMARK   11  A    between atoms: C_25  and  S_28 
REMARK   12  A    between atoms: S_28  and  N_29 
REMARK   13  A    between atoms: C_32  and  N_33 
ROOT
HETATM    1  C   UNK N   1      26.653  19.754   5.743  0.00  0.00     0.219 C 
ENDROOT
BRANCH   1   2
HETATM    2  C   UNK N   1      27.834  18.837   5.987  0.00  0.00    -0.027 A 
HETATM    3  C   UNK N   1      28.692  18.528   4.927  0.00  0.00     0.010 A 
HETATM    4  C   UNK N   1      29.863  17.819   5.153  0.00  0.00     0.013 A 
HETATM    5  C   UNK N   1      30.216  17.422   6.449  0.00  0.00    -0.026 A 
HETATM    6  C   UNK N   1      29.342  17.693   7.512  0.00  0.00     0.013 A 
HETATM    7  C   UNK N   1      28.150  18.379   7.276  0.00  0.00     0.010 A 
BRANCH   5   8
HETATM    8  C   UNK N   1      31.617  17.039   6.705  0.00  0.00    -0.026 A 
HETATM    9  C   UNK N   1      31.893  16.125   7.733  0.00  0.00     0.014 A 
HETATM   10  C   UNK N   1      33.092  15.426   7.748  0.00  0.00     0.026 A 
HETATM   11  C   UNK N   1      34.025  15.626   6.733  0.00  0.00     0.079 A 
HETATM   12  C   UNK N   1      33.800  16.593   5.749  0.00  0.00     0.026 A 
HETATM   13  C   UNK N   1      32.598  17.306   5.737  0.00  0.00     0.014 A 
BRANCH  11  14
HETATM   14  S   UNK N   1      35.337  14.438   6.536  0.00  0.00     0.256 S 
HETATM   15  O   UNK N   1      36.457  15.043   5.675  0.00  0.00    -0.201 OA
HETATM   16  O   UNK N   1      36.094  14.171   7.846  0.00  0.00    -0.201 OA
BRANCH  14  17
HETATM   17  N   UNK N   1      35.025  12.859   5.819  0.00  0.00    -0.324 N 
HETATM   18  H   UNK N   1      35.287  11.917   6.110  0.00  0.00     0.169 HD
HETATM   19  H   UNK N   1      34.485  12.894   4.954  0.00  0.00     0.169 HD
ENDBRANCH  14  17
ENDBRANCH  11  14
ENDBRANCH   5   8
ENDBRANCH   1   2
BRANCH   1  20
HETATM   20  C   UNK N   1      26.770  21.103   6.484  0.00  0.00     0.411 C 
HETATM   21  F   UNK N   1      25.927  22.034   5.906  0.00  0.00    -0.168 F 
HETATM   22  F   UNK N   1      28.070  21.569   6.478  0.00  0.00    -0.168 F 
HETATM   23  F   UNK N   1      26.383  20.948   7.804  0.00  0.00    -0.168 F 
ENDBRANCH   1  20
BRANCH   1  24
HETATM   24  N   UNK N   1      26.318  19.875   4.307  0.00  0.00    -0.394 N 
HETATM   25  H   UNK N   1      26.934  20.360   3.654  0.00  0.00     0.155 HD
BRANCH  24  26
HETATM   26  C   UNK N   1      25.055  19.264   3.864  0.00  0.00     0.170 C 
BRANCH  26  27
HETATM   27  C   UNK N   1      24.345  20.280   2.961  0.00  0.00     0.240 C 
HETATM   28  N   UNK N   1      22.994  20.375   2.799  0.00  0.00    -0.358 N 
HETATM   29  H   UNK N   1      22.670  21.072   2.183  0.00  0.00     0.162 HD
HETATM   30  O   UNK N   1      25.043  21.048   2.326  0.00  0.00    -0.271 OA
BRANCH  28  31
HETATM   31  C   UNK N   1      21.993  19.562   3.436  0.00  0.00     0.141 C 
BRANCH  31  32
HETATM   32  C   UNK N   1      20.627  20.202   3.264  0.00  0.00     0.130 C 
BRANCH  32  33
HETATM   33  N   UNK N   1      19.934  19.615   2.129  0.00  0.00    -0.429 N 
HETATM   34  H   UNK N   1      20.076  19.138   1.239  0.00  0.00     0.149 HD
HETATM   35  H   UNK N   1      18.931  19.719   2.280  0.00  0.00     0.149 HD
ENDBRANCH  32  33
ENDBRANCH  31  32
ENDBRANCH  28  31
ENDBRANCH  26  27
BRANCH  26  36
HETATM   36  C   UNK N   1      25.398  17.912   3.224  0.00  0.00     0.038 C 
BRANCH  36  37
HETATM   37  C   UNK N   1      25.257  16.734   4.179  0.00  0.00    -0.020 C 
HETATM   38  C   UNK N   1      24.107  16.944   5.141  0.00  0.00     0.009 C 
HETATM   39  C   UNK N   1      25.044  15.462   3.386  0.00  0.00     0.009 C 
ENDBRANCH  36  37
ENDBRANCH  26  36
ENDBRANCH  24  26
ENDBRANCH   1  24
TORSDOF 13
ENDMDL
MODEL 7
REMARK VINA RESULT:      -6.8      1.264      1.578
REMARK  13 active torsions:
REMARK  status: ('A' for Active; 'I' for Inactive)
REMARK    1  A    between atoms: C_1  and  C_3 
REMARK    2  A    between atoms: C_7  and  C_8 
REMARK    3  A    between atoms: C_8  and  C_9 
REMARK    4  A    between atoms: C_8  and  N_15 
REMARK    5  A    between atoms: N_13  and  C_14 
REMARK       I    between atoms: N_13  and  C_21 
REMARK    6  A    between atoms: C_14  and  C_32 
REMARK    7  A    between atoms: C_16  and  N_15 
REMARK    8  A    between atoms: C_16  and  C_21 
REMARK    9  A    between atoms: C_16  and  C_17 
REMARK   10  A    between atoms: C_17  and  C_18 
REMARK   11  A    between atoms: C_25  and  S_28 
REMARK   12  A    between atoms: S_28  and  N_29 
REMARK   13  A    between atoms: C_32  and  N_33 
ROOT
HETATM    1  C   UNK N   1      26.815  19.481   5.805  0.00  0.00     0.219 C 
ENDROOT
BRANCH   1   2
HETATM    2  C   UNK N   1      27.948  18.571   6.234  0.00  0.00    -0.027 A 
HETATM    3  C   UNK N   1      28.894  18.163   5.288  0.00  0.00     0.010 A 
HETATM    4  C   UNK N   1      30.024  17.460   5.681  0.00  0.00     0.013 A 
HETATM    5  C   UNK N   1      30.247  17.168   7.033  0.00  0.00    -0.026 A 
HETATM    6  C   UNK N   1      29.285  17.540   7.983  0.00  0.00     0.013 A 
HETATM    7  C   UNK N   1      28.135  18.220   7.580  0.00  0.00     0.010 A 
BRANCH   5   8
HETATM    8  C   UNK N   1      31.611  16.790   7.450  0.00  0.00    -0.026 A 
HETATM    9  C   UNK N   1      32.495  17.796   7.867  0.00  0.00     0.014 A 
HETATM   10  C   UNK N   1      33.601  17.480   8.644  0.00  0.00     0.026 A 
HETATM   11  C   UNK N   1      33.832  16.158   9.019  0.00  0.00     0.079 A 
HETATM   12  C   UNK N   1      33.006  15.136   8.542  0.00  0.00     0.026 A 
HETATM   13  C   UNK N   1      31.898  15.449   7.752  0.00  0.00     0.014 A 
BRANCH  11  14
HETATM   14  S   UNK N   1      34.983  15.836  10.338  0.00  0.00     0.256 S 
HETATM   15  O   UNK N   1      36.350  15.452   9.749  0.00  0.00    -0.201 OA
HETATM   16  O   UNK N   1      35.355  17.105  11.121  0.00  0.00    -0.201 OA
BRANCH  14  17
HETATM   17  N   UNK N   1      34.652  14.596  11.544  0.00  0.00    -0.324 N 
HETATM   18  H   UNK N   1      33.777  14.247  11.937  0.00  0.00     0.169 HD
HETATM   19  H   UNK N   1      35.486  14.144  11.917  0.00  0.00     0.169 HD
ENDBRANCH  14  17
ENDBRANCH  11  14
ENDBRANCH   5   8
ENDBRANCH   1   2
BRANCH   1  20
HETATM   20  C   UNK N   1      27.052  20.960   6.176  0.00  0.00     0.411 C 
HETATM   21  F   UNK N   1      26.838  21.765   5.072  0.00  0.00    -0.168 F 
HETATM   22  F   UNK N   1      28.325  21.158   6.671  0.00  0.00    -0.168 F 
HETATM   23  F   UNK N   1      26.153  21.346   7.157  0.00  0.00    -0.168 F 
ENDBRANCH   1  20
BRANCH   1  24
HETATM   24  N   UNK N   1      26.417  19.262   4.397  0.00  0.00    -0.394 N 
HETATM   25  H   UNK N   1      26.981  19.612   3.622  0.00  0.00     0.155 HD
BRANCH  24  26
HETATM   26  C   UNK N   1      25.169  18.518   4.165  0.00  0.00     0.170 C 
BRANCH  26  27
HETATM   27  C   UNK N   1      24.129  19.517   3.644  0.00  0.00     0.240 C 
HETATM   28  N   UNK N   1      22.785  19.290   3.586  0.00  0.00    -0.358 N 
HETATM   29  H   UNK N   1      22.229  20.017   3.223  0.00  0.00     0.162 HD
HETATM   30  O   UNK N   1      24.536  20.587   3.233  0.00  0.00    -0.271 OA
BRANCH  28  31
HETATM   31  C   UNK N   1      22.096  18.098   4.001  0.00  0.00     0.141 C 
BRANCH  31  32
HETATM   32  C   UNK N   1      21.671  18.230   5.453  0.00  0.00     0.130 C 
BRANCH  32  33
HETATM   33  N   UNK N   1      22.383  17.268   6.276  0.00  0.00    -0.429 N 
HETATM   34  H   UNK N   1      22.966  16.431   6.243  0.00  0.00     0.149 HD
HETATM   35  H   UNK N   1      22.252  17.526   7.254  0.00  0.00     0.149 HD
ENDBRANCH  32  33
ENDBRANCH  31  32
ENDBRANCH  28  31
ENDBRANCH  26  27
BRANCH  26  36
HETATM   36  C   UNK N   1      25.501  17.340   3.240  0.00  0.00     0.038 C 
BRANCH  36  37
HETATM   37  C   UNK N   1      26.240  16.207   3.939  0.00  0.00    -0.020 C 
HETATM   38  C   UNK N   1      25.560  15.830   5.238  0.00  0.00     0.009 C 
HETATM   39  C   UNK N   1      26.308  15.005   3.022  0.00  0.00     0.009 C 
ENDBRANCH  36  37
ENDBRANCH  26  36
ENDBRANCH  24  26
ENDBRANCH   1  24
TORSDOF 13
ENDMDL
MODEL 8
REMARK VINA RESULT:      -6.8      2.470      3.379
REMARK  13 active torsions:
REMARK  status: ('A' for Active; 'I' for Inactive)
REMARK    1  A    between atoms: C_1  and  C_3 
REMARK    2  A    between atoms: C_7  and  C_8 
REMARK    3  A    between atoms: C_8  and  C_9 
REMARK    4  A    between atoms: C_8  and  N_15 
REMARK    5  A    between atoms: N_13  and  C_14 
REMARK       I    between atoms: N_13  and  C_21 
REMARK    6  A    between atoms: C_14  and  C_32 
REMARK    7  A    between atoms: C_16  and  N_15 
REMARK    8  A    between atoms: C_16  and  C_21 
REMARK    9  A    between atoms: C_16  and  C_17 
REMARK   10  A    between atoms: C_17  and  C_18 
REMARK   11  A    between atoms: C_25  and  S_28 
REMARK   12  A    between atoms: S_28  and  N_29 
REMARK   13  A    between atoms: C_32  and  N_33 
ROOT
HETATM    1  C   UNK N   1      24.640  19.018   4.339  0.00  0.00     0.219 C 
ENDROOT
BRANCH   1   2
HETATM    2  C   UNK N   1      26.094  18.745   4.664  0.00  0.00    -0.027 A 
HETATM    3  C   UNK N   1      26.709  19.458   5.697  0.00  0.00     0.010 A 
HETATM    4  C   UNK N   1      27.989  19.124   6.119  0.00  0.00     0.013 A 
HETATM    5  C   UNK N   1      28.674  18.052   5.532  0.00  0.00    -0.026 A 
HETATM    6  C   UNK N   1      28.080  17.357   4.469  0.00  0.00     0.013 A 
HETATM    7  C   UNK N   1      26.806  17.716   4.027  0.00  0.00     0.010 A 
BRANCH   5   8
HETATM    8  C   UNK N   1      29.828  17.483   6.253  0.00  0.00    -0.026 A 
HETATM    9  C   UNK N   1      30.940  17.049   5.516  0.00  0.00     0.014 A 
HETATM   10  C   UNK N   1      32.177  16.906   6.129  0.00  0.00     0.026 A 
HETATM   11  C   UNK N   1      32.318  17.199   7.484  0.00  0.00     0.079 A 
HETATM   12  C   UNK N   1      31.202  17.553   8.249  0.00  0.00     0.026 A 
HETATM   13  C   UNK N   1      29.954  17.688   7.636  0.00  0.00     0.014 A 
BRANCH  11  14
HETATM   14  S   UNK N   1      33.958  17.419   8.141  0.00  0.00     0.256 S 
HETATM   15  O   UNK N   1      34.955  16.572   7.333  0.00  0.00    -0.201 OA
HETATM   16  O   UNK N   1      34.512  18.830   7.890  0.00  0.00    -0.201 OA
BRANCH  14  17
HETATM   17  N   UNK N   1      34.315  17.044   9.825  0.00  0.00    -0.324 N 
HETATM   18  H   UNK N   1      34.283  16.169  10.347  0.00  0.00     0.169 HD
HETATM   19  H   UNK N   1      34.607  17.849  10.378  0.00  0.00     0.169 HD
ENDBRANCH  14  17
ENDBRANCH  11  14
ENDBRANCH   5   8
ENDBRANCH   1   2
BRANCH   1  20
HETATM   20  C   UNK N   1      24.451  20.146   3.303  0.00  0.00     0.411 C 
HETATM   21  F   UNK N   1      23.126  20.218   2.917  0.00  0.00    -0.168 F 
HETATM   22  F   UNK N   1      25.259  19.957   2.199  0.00  0.00    -0.168 F 
HETATM   23  F   UNK N   1      24.790  21.364   3.870  0.00  0.00    -0.168 F 
ENDBRANCH   1  20
BRANCH   1  24
HETATM   24  N   UNK N   1      23.887  17.781   4.035  0.00  0.00    -0.394 N 
HETATM   25  H   UNK N   1      23.828  17.410   3.086  0.00  0.00     0.155 HD
BRANCH  24  26
HETATM   26  C   UNK N   1      23.225  17.109   5.164  0.00  0.00     0.170 C 
BRANCH  26  27
HETATM   27  C   UNK N   1      21.919  17.863   5.445  0.00  0.00     0.240 C 
HETATM   28  N   UNK N   1      20.892  18.008   4.559  0.00  0.00    -0.358 N 
HETATM   29  H   UNK N   1      20.111  18.522   4.868  0.00  0.00     0.162 HD
HETATM   30  O   UNK N   1      21.799  18.388   6.535  0.00  0.00    -0.271 OA
BRANCH  28  31
HETATM   31  C   UNK N   1      20.831  17.487   3.220  0.00  0.00     0.141 C 
BRANCH  31  32
HETATM   32  C   UNK N   1      20.245  18.532   2.288  0.00  0.00     0.130 C 
BRANCH  32  33
HETATM   33  N   UNK N   1      18.794  18.474   2.314  0.00  0.00    -0.429 N 
HETATM   34  H   UNK N   1      17.950  18.805   1.844  0.00  0.00     0.149 HD
HETATM   35  H   UNK N   1      18.512  17.881   3.095  0.00  0.00     0.149 HD
ENDBRANCH  32  33
ENDBRANCH  31  32
ENDBRANCH  28  31
ENDBRANCH  26  27
BRANCH  26  36
HETATM   36  C   UNK N   1      23.086  15.626   4.800  0.00  0.00     0.038 C 
BRANCH  36  37
HETATM   37  C   UNK N   1      24.236  14.764   5.304  0.00  0.00    -0.020 C 
HETATM   38  C   UNK N   1      25.186  14.408   4.179  0.00  0.00     0.009 C 
HETATM   39  C   UNK N   1      24.981  15.502   6.396  0.00  0.00     0.009 C 
ENDBRANCH  36  37
ENDBRANCH  26  36
ENDBRANCH  24  26
ENDBRANCH   1  24
TORSDOF 13
ENDMDL
MODEL 9
REMARK VINA RESULT:      -6.7     11.625     13.698
REMARK  13 active torsions:
REMARK  status: ('A' for Active; 'I' for Inactive)
REMARK    1  A    between atoms: C_1  and  C_3 
REMARK    2  A    between atoms: C_7  and  C_8 
REMARK    3  A    between atoms: C_8  and  C_9 
REMARK    4  A    between atoms: C_8  and  N_15 
REMARK    5  A    between atoms: N_13  and  C_14 
REMARK       I    between atoms: N_13  and  C_21 
REMARK    6  A    between atoms: C_14  and  C_32 
REMARK    7  A    between atoms: C_16  and  N_15 
REMARK    8  A    between atoms: C_16  and  C_21 
REMARK    9  A    between atoms: C_16  and  C_17 
REMARK   10  A    between atoms: C_17  and  C_18 
REMARK   11  A    between atoms: C_25  and  S_28 
REMARK   12  A    between atoms: S_28  and  N_29 
REMARK   13  A    between atoms: C_32  and  N_33 
ROOT
HETATM    1  C   UNK N   1      26.291  26.314  -5.635  0.00  0.00     0.219 C 
ENDROOT
BRANCH   1   2
HETATM    2  C   UNK N   1      27.472  25.717  -4.899  0.00  0.00    -0.027 A 
HETATM    3  C   UNK N   1      27.442  24.367  -4.535  0.00  0.00     0.010 A 
HETATM    4  C   UNK N   1      28.567  23.756  -4.000  0.00  0.00     0.013 A 
HETATM    5  C   UNK N   1      29.758  24.476  -3.837  0.00  0.00    -0.026 A 
HETATM    6  C   UNK N   1      29.786  25.840  -4.163  0.00  0.00     0.013 A 
HETATM    7  C   UNK N   1      28.643  26.458  -4.672  0.00  0.00     0.010 A 
BRANCH   5   8
HETATM    8  C   UNK N   1      31.011  23.720  -3.652  0.00  0.00    -0.026 A 
HETATM    9  C   UNK N   1      31.003  22.588  -2.825  0.00  0.00     0.014 A 
HETATM   10  C   UNK N   1      31.997  21.626  -2.941  0.00  0.00     0.026 A 
HETATM   11  C   UNK N   1      33.006  21.782  -3.889  0.00  0.00     0.079 A 
HETATM   12  C   UNK N   1      33.073  22.944  -4.663  0.00  0.00     0.026 A 
HETATM   13  C   UNK N   1      32.079  23.918  -4.541  0.00  0.00     0.014 A 
BRANCH  11  14
HETATM   14  S   UNK N   1      34.005  20.368  -4.309  0.00  0.00     0.256 S 
HETATM   15  O   UNK N   1      34.105  20.243  -5.838  0.00  0.00    -0.201 OA
HETATM   16  O   UNK N   1      35.484  20.559  -3.939  0.00  0.00    -0.201 OA
BRANCH  14  17
HETATM   17  N   UNK N   1      33.565  18.755  -3.756  0.00  0.00    -0.324 N 
HETATM   18  H   UNK N   1      32.862  18.092  -4.085  0.00  0.00     0.169 HD
HETATM   19  H   UNK N   1      34.113  18.422  -2.963  0.00  0.00     0.169 HD
ENDBRANCH  14  17
ENDBRANCH  11  14
ENDBRANCH   5   8
ENDBRANCH   1   2
BRANCH   1  20
HETATM   20  C   UNK N   1      25.621  27.473  -4.867  0.00  0.00     0.411 C 
HETATM   21  F   UNK N   1      26.268  28.662  -5.147  0.00  0.00    -0.168 F 
HETATM   22  F   UNK N   1      25.619  27.240  -3.507  0.00  0.00    -0.168 F 
HETATM   23  F   UNK N   1      24.304  27.606  -5.275  0.00  0.00    -0.168 F 
ENDBRANCH   1  20
BRANCH   1  24
HETATM   24  N   UNK N   1      26.601  26.620  -7.049  0.00  0.00    -0.394 N 
HETATM   25  H   UNK N   1      26.529  27.568  -7.419  0.00  0.00     0.155 HD
BRANCH  24  26
HETATM   26  C   UNK N   1      27.018  25.493  -7.898  0.00  0.00     0.170 C 
BRANCH  26  27
HETATM   27  C   UNK N   1      25.757  24.928  -8.564  0.00  0.00     0.240 C 
HETATM   28  N   UNK N   1      25.183  23.727  -8.264  0.00  0.00    -0.358 N 
HETATM   29  H   UNK N   1      24.376  23.484  -8.773  0.00  0.00     0.162 HD
HETATM   30  O   UNK N   1      25.240  25.595  -9.440  0.00  0.00    -0.271 OA
BRANCH  28  31
HETATM   31  C   UNK N   1      25.636  22.780  -7.280  0.00  0.00     0.141 C 
BRANCH  31  32
HETATM   32  C   UNK N   1      24.938  21.448  -7.491  0.00  0.00     0.130 C 
BRANCH  32  33
HETATM   33  N   UNK N   1      23.725  21.383  -6.694  0.00  0.00    -0.429 N 
HETATM   34  H   UNK N   1      22.799  20.958  -6.642  0.00  0.00     0.149 HD
HETATM   35  H   UNK N   1      23.844  21.988  -5.882  0.00  0.00     0.149 HD
ENDBRANCH  32  33
ENDBRANCH  31  32
ENDBRANCH  28  31
ENDBRANCH  26  27
BRANCH  26  36
HETATM   36  C   UNK N   1      28.111  26.009  -8.844  0.00  0.00     0.038 C 
BRANCH  36  37
HETATM   37  C   UNK N   1      29.490  25.432  -8.553  0.00  0.00    -0.020 C 
HETATM   38  C   UNK N   1      30.358  26.434  -7.821  0.00  0.00     0.009 C 
HETATM   39  C   UNK N   1      29.348  24.170  -7.730  0.00  0.00     0.009 C 
ENDBRANCH  36  37
ENDBRANCH  26  36
ENDBRANCH  24  26
ENDBRANCH   1  24
TORSDOF 13
ENDMDL
