MODEL 1
REMARK VINA RESULT:      -6.1      0.000      0.000
REMARK  8 active torsions:
REMARK  status: ('A' for Active; 'I' for Inactive)
REMARK    1  A    between atoms: C_3  and  O_7 
REMARK    2  A    between atoms: C_6  and  S_9 
REMARK    3  A    between atoms: S_9  and  N_12 
REMARK    4  A    between atoms: N_12  and  C_13 
REMARK    5  A    between atoms: N_12  and  C_14 
REMARK    6  A    between atoms: C_13  and  C_19 
REMARK    7  A    between atoms: C_14  and  C_15 
REMARK       I    between atoms: C_15  and  N_16 
REMARK    8  A    between atoms: N_16  and  O_17 
ROOT
HETATM    1  N   UNK N   1      33.395  16.551   7.138  0.00  0.00    -0.197 NA
ENDROOT
BRANCH   1   2
HETATM    2  S   UNK N   1      31.772  16.056   7.683  0.00  0.00     0.244 S 
HETATM    3  O   UNK N   1      31.885  15.670   9.167  0.00  0.00    -0.206 OA
HETATM    4  O   UNK N   1      31.579  14.671   7.048  0.00  0.00    -0.206 OA
BRANCH   2   5
HETATM    5  C   UNK N   1      30.327  17.067   7.355  0.00  0.00     0.074 A 
HETATM    6  C   UNK N   1      29.835  17.194   6.052  0.00  0.00     0.027 A 
HETATM    7  C   UNK N   1      28.775  18.066   5.783  0.00  0.00     0.038 A 
HETATM    8  C   UNK N   1      28.207  18.825   6.814  0.00  0.00     0.068 A 
HETATM    9  C   UNK N   1      28.691  18.679   8.125  0.00  0.00     0.038 A 
HETATM   10  C   UNK N   1      29.748  17.806   8.391  0.00  0.00     0.027 A 
BRANCH   8  11
HETATM   11  O   UNK N   1      27.218  19.701   6.518  0.00  0.00    -0.356 OA
HETATM   12  C   UNK N   1      27.455  20.959   6.009  0.00  0.00     0.210 C 
ENDBRANCH   8  11
ENDBRANCH   2   5
ENDBRANCH   1   2
BRANCH   1  13
HETATM   13  C   UNK N   1      33.505  16.300   5.708  0.00  0.00     0.112 C 
BRANCH  13  14
HETATM   14  C   UNK N   1      34.729  15.444   5.414  0.00  0.00    -0.009 C 
HETATM   15  C   UNK N   1      35.242  14.835   6.700  0.00  0.00     0.011 C 
HETATM   16  C   UNK N   1      34.382  14.338   4.435  0.00  0.00     0.011 C 
ENDBRANCH  13  14
ENDBRANCH   1  13
BRANCH   1  17
HETATM   17  C   UNK N   1      33.585  17.979   7.352  0.00  0.00     0.212 C 
BRANCH  17  18
HETATM   18  C   UNK N   1      34.581  18.201   8.449  0.00  0.00     0.255 C 
HETATM   19  N   UNK N   1      34.695  17.294   9.443  0.00  0.00    -0.236 N 
HETATM   20  H   UNK N   1      34.120  16.495   9.441  0.00  0.00     0.197 HD
HETATM   21  O   UNK N   1      35.282  19.200   8.439  0.00  0.00    -0.270 OA
BRANCH  19  22
HETATM   22  O   UNK N   1      35.583  17.469  10.433  0.00  0.00    -0.287 OA
HETATM   23  H   UNK N   1      35.865  16.843  11.117  0.00  0.00     0.244 HD
ENDBRANCH  19  22
ENDBRANCH  17  18
ENDBRANCH   1  17
TORSDOF 8
ENDMDL
MODEL 2
REMARK VINA RESULT:      -6.0     10.783     12.431
REMARK  8 active torsions:
REMARK  status: ('A' for Active; 'I' for Inactive)
REMARK    1  A    between atoms: C_3  and  O_7 
REMARK    2  A    between atoms: C_6  and  S_9 
REMARK    3  A    between atoms: S_9  and  N_12 
REMARK    4  A    between atoms: N_12  and  C_13 
REMARK    5  A    between atoms: N_12  and  C_14 
REMARK    6  A    between atoms: C_13  and  C_19 
REMARK    7  A    between atoms: C_14  and  C_15 
REMARK       I    between atoms: C_15  and  N_16 
REMARK    8  A    between atoms: N_16  and  O_17 
ROOT
HETATM    1  N   UNK N   1      21.264  18.013   3.056  0.00  0.00    -0.197 NA
ENDROOT
BRANCH   1   2
HETATM    2  S   UNK N   1      22.332  17.466   4.374  0.00  0.00     0.244 S 
HETATM    3  O   UNK N   1      23.189  18.670   4.799  0.00  0.00    -0.206 OA
HETATM    4  O   UNK N   1      23.388  16.611   3.659  0.00  0.00    -0.206 OA
BRANCH   2   5
HETATM    5  C   UNK N   1      21.691  16.561   5.784  0.00  0.00     0.074 A 
HETATM    6  C   UNK N   1      21.807  15.168   5.840  0.00  0.00     0.027 A 
HETATM    7  C   UNK N   1      21.212  14.456   6.887  0.00  0.00     0.038 A 
HETATM    8  C   UNK N   1      20.489  15.131   7.878  0.00  0.00     0.068 A 
HETATM    9  C   UNK N   1      20.392  16.533   7.828  0.00  0.00     0.038 A 
HETATM   10  C   UNK N   1      20.988  17.241   6.782  0.00  0.00     0.027 A 
BRANCH   8  11
HETATM   11  O   UNK N   1      19.878  14.414   8.851  0.00  0.00    -0.356 OA
HETATM   12  C   UNK N   1      20.564  13.791   9.869  0.00  0.00     0.210 C 
ENDBRANCH   8  11
ENDBRANCH   2   5
ENDBRANCH   1   2
BRANCH   1  13
HETATM   13  C   UNK N   1      20.149  17.086   2.942  0.00  0.00     0.112 C 
BRANCH  13  14
HETATM   14  C   UNK N   1      20.403  16.085   1.824  0.00  0.00    -0.009 C 
HETATM   15  C   UNK N   1      19.810  14.744   2.200  0.00  0.00     0.011 C 
HETATM   16  C   UNK N   1      19.779  16.567   0.527  0.00  0.00     0.011 C 
ENDBRANCH  13  14
ENDBRANCH   1  13
BRANCH   1  17
HETATM   17  C   UNK N   1      20.718  19.328   3.363  0.00  0.00     0.212 C 
BRANCH  17  18
HETATM   18  C   UNK N   1      21.052  20.288   2.264  0.00  0.00     0.255 C 
HETATM   19  N   UNK N   1      20.543  20.092   1.028  0.00  0.00    -0.236 N 
HETATM   20  H   UNK N   1      19.960  19.317   0.858  0.00  0.00     0.197 HD
HETATM   21  O   UNK N   1      21.782  21.240   2.489  0.00  0.00    -0.270 OA
BRANCH  19  22
HETATM   22  O   UNK N   1      20.824  20.941   0.028  0.00  0.00    -0.287 OA
HETATM   23  H   UNK N   1      20.258  21.229  -0.705  0.00  0.00     0.244 HD
ENDBRANCH  19  22
ENDBRANCH  17  18
ENDBRANCH   1  17
TORSDOF 8
ENDMDL
MODEL 3
REMARK VINA RESULT:      -5.9      3.137      6.288
REMARK  8 active torsions:
REMARK  status: ('A' for Active; 'I' for Inactive)
REMARK    1  A    between atoms: C_3  and  O_7 
REMARK    2  A    between atoms: C_6  and  S_9 
REMARK    3  A    between atoms: S_9  and  N_12 
REMARK    4  A    between atoms: N_12  and  C_13 
REMARK    5  A    between atoms: N_12  and  C_14 
REMARK    6  A    between atoms: C_13  and  C_19 
REMARK    7  A    between atoms: C_14  and  C_15 
REMARK       I    between atoms: C_15  and  N_16 
REMARK    8  A    between atoms: N_16  and  O_17 
ROOT
HETATM    1  N   UNK N   1      32.463  17.045   6.906  0.00  0.00    -0.197 NA
ENDROOT
BRANCH   1   2
HETATM    2  S   UNK N   1      34.138  16.961   7.509  0.00  0.00     0.244 S 
HETATM    3  O   UNK N   1      34.703  18.391   7.492  0.00  0.00    -0.206 OA
HETATM    4  O   UNK N   1      34.917  16.338   6.342  0.00  0.00    -0.206 OA
BRANCH   2   5
HETATM    5  C   UNK N   1      34.544  16.093   9.025  0.00  0.00     0.074 A 
HETATM    6  C   UNK N   1      34.258  14.729   9.155  0.00  0.00     0.027 A 
HETATM    7  C   UNK N   1      34.476  14.080  10.375  0.00  0.00     0.038 A 
HETATM    8  C   UNK N   1      34.971  14.791  11.475  0.00  0.00     0.068 A 
HETATM    9  C   UNK N   1      35.275  16.156  11.333  0.00  0.00     0.038 A 
HETATM   10  C   UNK N   1      35.058  16.802  10.114  0.00  0.00     0.027 A 
BRANCH   8  11
HETATM   11  O   UNK N   1      35.123  14.151  12.659  0.00  0.00    -0.356 OA
HETATM   12  C   UNK N   1      36.349  13.777  13.159  0.00  0.00     0.210 C 
ENDBRANCH   8  11
ENDBRANCH   2   5
ENDBRANCH   1   2
BRANCH   1  13
HETATM   13  C   UNK N   1      32.409  16.430   5.588  0.00  0.00     0.112 C 
BRANCH  13  14
HETATM   14  C   UNK N   1      31.959  17.446   4.547  0.00  0.00    -0.009 C 
HETATM   15  C   UNK N   1      32.531  17.075   3.197  0.00  0.00     0.011 C 
HETATM   16  C   UNK N   1      30.444  17.483   4.461  0.00  0.00     0.011 C 
ENDBRANCH  13  14
ENDBRANCH   1  13
BRANCH   1  17
HETATM   17  C   UNK N   1      31.574  16.294   7.781  0.00  0.00     0.212 C 
BRANCH  17  18
HETATM   18  C   UNK N   1      30.542  17.209   8.366  0.00  0.00     0.255 C 
HETATM   19  N   UNK N   1      30.826  17.910   9.484  0.00  0.00    -0.236 N 
HETATM   20  H   UNK N   1      31.709  17.812   9.909  0.00  0.00     0.197 HD
HETATM   21  O   UNK N   1      29.450  17.314   7.830  0.00  0.00    -0.270 OA
BRANCH  19  22
HETATM   22  O   UNK N   1      29.920  18.739  10.023  0.00  0.00    -0.287 OA
HETATM   23  H   UNK N   1      29.322  18.586  10.771  0.00  0.00     0.244 HD
ENDBRANCH  19  22
ENDBRANCH  17  18
ENDBRANCH   1  17
TORSDOF 8
ENDMDL
MODEL 4
REMARK VINA RESULT:      -5.8      2.323      4.124
REMARK  8 active torsions:
REMARK  status: ('A' for Active; 'I' for Inactive)
REMARK    1  A    between atoms: C_3  and  O_7 
REMARK    2  A    between atoms: C_6  and  S_9 
REMARK    3  A    between atoms: S_9  and  N_12 
REMARK    4  A    between atoms: N_12  and  C_13 
REMARK    5  A    between atoms: N_12  and  C_14 
REMARK    6  A    between atoms: C_13  and  C_19 
REMARK    7  A    between atoms: C_14  and  C_15 
REMARK       I    between atoms: C_15  and  N_16 
REMARK    8  A    between atoms: N_16  and  O_17 
ROOT
HETATM    1  N   UNK N   1      31.162  17.439   6.998  0.00  0.00    -0.197 NA
ENDROOT
BRANCH   1   2
HETATM    2  S   UNK N   1      30.323  17.137   5.455  0.00  0.00     0.244 S 
HETATM    3  O   UNK N   1      30.478  15.641   5.134  0.00  0.00    -0.206 OA
HETATM    4  O   UNK N   1      31.261  17.747   4.403  0.00  0.00    -0.206 OA
BRANCH   2   5
HETATM    5  C   UNK N   1      28.651  17.720   5.169  0.00  0.00     0.074 A 
HETATM    6  C   UNK N   1      28.420  19.053   4.814  0.00  0.00     0.027 A 
HETATM    7  C   UNK N   1      27.110  19.531   4.697  0.00  0.00     0.038 A 
HETATM    8  C   UNK N   1      26.024  18.682   4.945  0.00  0.00     0.068 A 
HETATM    9  C   UNK N   1      26.262  17.338   5.283  0.00  0.00     0.038 A 
HETATM   10  C   UNK N   1      27.570  16.863   5.397  0.00  0.00     0.027 A 
BRANCH   8  11
HETATM   11  O   UNK N   1      24.768  19.184   4.877  0.00  0.00    -0.356 OA
HETATM   12  C   UNK N   1      23.880  18.853   3.878  0.00  0.00     0.210 C 
ENDBRANCH   8  11
ENDBRANCH   2   5
ENDBRANCH   1   2
BRANCH   1  13
HETATM   13  C   UNK N   1      30.324  16.962   8.088  0.00  0.00     0.112 C 
BRANCH  13  14
HETATM   14  C   UNK N   1      29.352  18.049   8.524  0.00  0.00    -0.009 C 
HETATM   15  C   UNK N   1      28.077  17.413   9.032  0.00  0.00     0.011 C 
HETATM   16  C   UNK N   1      29.964  18.899   9.622  0.00  0.00     0.011 C 
ENDBRANCH  13  14
ENDBRANCH   1  13
BRANCH   1  17
HETATM   17  C   UNK N   1      32.414  16.696   7.045  0.00  0.00     0.212 C 
BRANCH  17  18
HETATM   18  C   UNK N   1      33.570  17.647   7.085  0.00  0.00     0.255 C 
HETATM   19  N   UNK N   1      33.886  18.268   8.242  0.00  0.00    -0.236 N 
HETATM   20  H   UNK N   1      33.351  18.093   9.050  0.00  0.00     0.197 HD
HETATM   21  O   UNK N   1      34.219  17.858   6.073  0.00  0.00    -0.270 OA
BRANCH  19  22
HETATM   22  O   UNK N   1      34.919  19.121   8.304  0.00  0.00    -0.287 OA
HETATM   23  H   UNK N   1      34.920  20.087   8.216  0.00  0.00     0.244 HD
ENDBRANCH  19  22
ENDBRANCH  17  18
ENDBRANCH   1  17
TORSDOF 8
ENDMDL
MODEL 5
REMARK VINA RESULT:      -5.8      2.631      4.434
REMARK  8 active torsions:
REMARK  status: ('A' for Active; 'I' for Inactive)
REMARK    1  A    between atoms: C_3  and  O_7 
REMARK    2  A    between atoms: C_6  and  S_9 
REMARK    3  A    between atoms: S_9  and  N_12 
REMARK    4  A    between atoms: N_12  and  C_13 
REMARK    5  A    between atoms: N_12  and  C_14 
REMARK    6  A    between atoms: C_13  and  C_19 
REMARK    7  A    between atoms: C_14  and  C_15 
REMARK       I    between atoms: C_15  and  N_16 
REMARK    8  A    between atoms: N_16  and  O_17 
ROOT
HETATM    1  N   UNK N   1      32.474  17.081   7.800  0.00  0.00    -0.197 NA
ENDROOT
BRANCH   1   2
HETATM    2  S   UNK N   1      32.827  16.564   6.131  0.00  0.00     0.244 S 
HETATM    3  O   UNK N   1      33.944  15.509   6.205  0.00  0.00    -0.206 OA
HETATM    4  O   UNK N   1      33.602  17.749   5.537  0.00  0.00    -0.206 OA
BRANCH   2   5
HETATM    5  C   UNK N   1      31.518  16.084   5.003  0.00  0.00     0.074 A 
HETATM    6  C   UNK N   1      31.345  14.740   4.654  0.00  0.00     0.027 A 
HETATM    7  C   UNK N   1      30.395  14.382   3.692  0.00  0.00     0.038 A 
HETATM    8  C   UNK N   1      29.618  15.365   3.066  0.00  0.00     0.068 A 
HETATM    9  C   UNK N   1      29.783  16.712   3.434  0.00  0.00     0.038 A 
HETATM   10  C   UNK N   1      30.731  17.067   4.396  0.00  0.00     0.027 A 
BRANCH   8  11
HETATM   11  O   UNK N   1      28.743  14.997   2.100  0.00  0.00    -0.356 OA
HETATM   12  C   UNK N   1      27.384  15.188   2.205  0.00  0.00     0.210 C 
ENDBRANCH   8  11
ENDBRANCH   2   5
ENDBRANCH   1   2
BRANCH   1  13
HETATM   13  C   UNK N   1      31.133  16.639   8.153  0.00  0.00     0.112 C 
BRANCH  13  14
HETATM   14  C   UNK N   1      30.145  17.790   8.023  0.00  0.00    -0.009 C 
HETATM   15  C   UNK N   1      28.796  17.252   7.597  0.00  0.00     0.011 C 
HETATM   16  C   UNK N   1      30.002  18.520   9.345  0.00  0.00     0.011 C 
ENDBRANCH  13  14
ENDBRANCH   1  13
BRANCH   1  17
HETATM   17  C   UNK N   1      33.405  16.456   8.729  0.00  0.00     0.212 C 
BRANCH  17  18
HETATM   18  C   UNK N   1      34.485  17.426   9.098  0.00  0.00     0.255 C 
HETATM   19  N   UNK N   1      34.614  18.579   8.407  0.00  0.00    -0.236 N 
HETATM   20  H   UNK N   1      33.999  18.772   7.662  0.00  0.00     0.197 HD
HETATM   21  O   UNK N   1      35.243  17.169  10.019  0.00  0.00    -0.270 OA
BRANCH  19  22
HETATM   22  O   UNK N   1      35.570  19.465   8.722  0.00  0.00    -0.287 OA
HETATM   23  H   UNK N   1      35.927  20.193   8.189  0.00  0.00     0.244 HD
ENDBRANCH  19  22
ENDBRANCH  17  18
ENDBRANCH   1  17
TORSDOF 8
ENDMDL
MODEL 6
REMARK VINA RESULT:      -5.7      2.654      6.301
REMARK  8 active torsions:
REMARK  status: ('A' for Active; 'I' for Inactive)
REMARK    1  A    between atoms: C_3  and  O_7 
REMARK    2  A    between atoms: C_6  and  S_9 
REMARK    3  A    between atoms: S_9  and  N_12 
REMARK    4  A    between atoms: N_12  and  C_13 
REMARK    5  A    between atoms: N_12  and  C_14 
REMARK    6  A    between atoms: C_13  and  C_19 
REMARK    7  A    between atoms: C_14  and  C_15 
REMARK       I    between atoms: C_15  and  N_16 
REMARK    8  A    between atoms: N_16  and  O_17 
ROOT
HETATM    1  N   UNK N   1      29.521  17.826   6.448  0.00  0.00    -0.197 NA
ENDROOT
BRANCH   1   2
HETATM    2  S   UNK N   1      31.020  16.870   6.322  0.00  0.00     0.244 S 
HETATM    3  O   UNK N   1      31.540  17.021   4.882  0.00  0.00    -0.206 OA
HETATM    4  O   UNK N   1      30.525  15.417   6.289  0.00  0.00    -0.206 OA
BRANCH   2   5
HETATM    5  C   UNK N   1      32.332  17.024   7.534  0.00  0.00     0.074 A 
HETATM    6  C   UNK N   1      33.300  18.026   7.404  0.00  0.00     0.027 A 
HETATM    7  C   UNK N   1      34.382  18.077   8.289  0.00  0.00     0.038 A 
HETATM    8  C   UNK N   1      34.510  17.120   9.303  0.00  0.00     0.068 A 
HETATM    9  C   UNK N   1      33.525  16.126   9.442  0.00  0.00     0.038 A 
HETATM   10  C   UNK N   1      32.445  16.079   8.558  0.00  0.00     0.027 A 
BRANCH   8  11
HETATM   11  O   UNK N   1      35.595  17.159  10.112  0.00  0.00    -0.356 OA
HETATM   12  C   UNK N   1      35.984  16.099  10.900  0.00  0.00     0.210 C 
ENDBRANCH   8  11
ENDBRANCH   2   5
ENDBRANCH   1   2
BRANCH   1  13
HETATM   13  C   UNK N   1      28.970  18.012   5.114  0.00  0.00     0.112 C 
BRANCH  13  14
HETATM   14  C   UNK N   1      27.625  18.720   5.189  0.00  0.00    -0.009 C 
HETATM   15  C   UNK N   1      27.831  20.213   5.054  0.00  0.00     0.011 C 
HETATM   16  C   UNK N   1      26.706  18.235   4.084  0.00  0.00     0.011 C 
ENDBRANCH  13  14
ENDBRANCH   1  13
BRANCH   1  17
HETATM   17  C   UNK N   1      28.531  17.109   7.240  0.00  0.00     0.212 C 
BRANCH  17  18
HETATM   18  C   UNK N   1      28.606  17.549   8.669  0.00  0.00     0.255 C 
HETATM   19  N   UNK N   1      29.583  18.396   9.058  0.00  0.00    -0.236 N 
HETATM   20  H   UNK N   1      30.242  18.716   8.399  0.00  0.00     0.197 HD
HETATM   21  O   UNK N   1      27.785  17.140   9.475  0.00  0.00    -0.270 OA
BRANCH  19  22
HETATM   22  O   UNK N   1      29.668  18.808  10.332  0.00  0.00    -0.287 OA
HETATM   23  H   UNK N   1      30.126  19.582  10.694  0.00  0.00     0.244 HD
ENDBRANCH  19  22
ENDBRANCH  17  18
ENDBRANCH   1  17
TORSDOF 8
ENDMDL
MODEL 7
REMARK VINA RESULT:      -5.6     10.121     12.235
REMARK  8 active torsions:
REMARK  status: ('A' for Active; 'I' for Inactive)
REMARK    1  A    between atoms: C_3  and  O_7 
REMARK    2  A    between atoms: C_6  and  S_9 
REMARK    3  A    between atoms: S_9  and  N_12 
REMARK    4  A    between atoms: N_12  and  C_13 
REMARK    5  A    between atoms: N_12  and  C_14 
REMARK    6  A    between atoms: C_13  and  C_19 
REMARK    7  A    between atoms: C_14  and  C_15 
REMARK       I    between atoms: C_15  and  N_16 
REMARK    8  A    between atoms: N_16  and  O_17 
ROOT
HETATM    1  N   UNK N   1      21.222  18.313   3.551  0.00  0.00    -0.197 NA
ENDROOT
BRANCH   1   2
HETATM    2  S   UNK N   1      21.920  18.015   5.163  0.00  0.00     0.244 S 
HETATM    3  O   UNK N   1      21.160  18.903   6.163  0.00  0.00    -0.206 OA
HETATM    4  O   UNK N   1      23.272  18.741   5.117  0.00  0.00    -0.206 OA
BRANCH   2   5
HETATM    5  C   UNK N   1      22.160  16.350   5.786  0.00  0.00     0.074 A 
HETATM    6  C   UNK N   1      21.663  15.988   7.043  0.00  0.00     0.027 A 
HETATM    7  C   UNK N   1      21.944  14.724   7.571  0.00  0.00     0.038 A 
HETATM    8  C   UNK N   1      22.733  13.817   6.852  0.00  0.00     0.068 A 
HETATM    9  C   UNK N   1      23.214  14.179   5.581  0.00  0.00     0.038 A 
HETATM   10  C   UNK N   1      22.930  15.441   5.055  0.00  0.00     0.027 A 
BRANCH   8  11
HETATM   11  O   UNK N   1      23.035  12.621   7.409  0.00  0.00    -0.356 OA
HETATM   12  C   UNK N   1      23.948  12.476   8.430  0.00  0.00     0.210 C 
ENDBRANCH   8  11
ENDBRANCH   2   5
ENDBRANCH   1   2
BRANCH   1  13
HETATM   13  C   UNK N   1      20.099  17.408   3.352  0.00  0.00     0.112 C 
BRANCH  13  14
HETATM   14  C   UNK N   1      20.480  16.298   2.382  0.00  0.00    -0.009 C 
HETATM   15  C   UNK N   1      19.862  14.994   2.839  0.00  0.00     0.011 C 
HETATM   16  C   UNK N   1      19.992  16.624   0.983  0.00  0.00     0.011 C 
ENDBRANCH  13  14
ENDBRANCH   1  13
BRANCH   1  17
HETATM   17  C   UNK N   1      20.712  19.675   3.467  0.00  0.00     0.212 C 
BRANCH  17  18
HETATM   18  C   UNK N   1      21.189  20.320   2.202  0.00  0.00     0.255 C 
HETATM   19  N   UNK N   1      20.404  20.301   1.104  0.00  0.00    -0.236 N 
HETATM   20  H   UNK N   1      19.524  19.859   1.141  0.00  0.00     0.197 HD
HETATM   21  O   UNK N   1      22.284  20.858   2.170  0.00  0.00    -0.270 OA
BRANCH  19  22
HETATM   22  O   UNK N   1      20.807  20.876  -0.039  0.00  0.00    -0.287 OA
HETATM   23  H   UNK N   1      21.212  20.465  -0.819  0.00  0.00     0.244 HD
ENDBRANCH  19  22
ENDBRANCH  17  18
ENDBRANCH   1  17
TORSDOF 8
ENDMDL
MODEL 8
REMARK VINA RESULT:      -5.6     10.101     12.210
REMARK  8 active torsions:
REMARK  status: ('A' for Active; 'I' for Inactive)
REMARK    1  A    between atoms: C_3  and  O_7 
REMARK    2  A    between atoms: C_6  and  S_9 
REMARK    3  A    between atoms: S_9  and  N_12 
REMARK    4  A    between atoms: N_12  and  C_13 
REMARK    5  A    between atoms: N_12  and  C_14 
REMARK    6  A    between atoms: C_13  and  C_19 
REMARK    7  A    between atoms: C_14  and  C_15 
REMARK       I    between atoms: C_15  and  N_16 
REMARK    8  A    between atoms: N_16  and  O_17 
ROOT
HETATM    1  N   UNK N   1      19.876  15.212   8.017  0.00  0.00    -0.197 NA
ENDROOT
BRANCH   1   2
HETATM    2  S   UNK N   1      19.748  15.497   6.263  0.00  0.00     0.244 S 
HETATM    3  O   UNK N   1      18.342  16.058   5.991  0.00  0.00    -0.206 OA
HETATM    4  O   UNK N   1      19.604  14.086   5.672  0.00  0.00    -0.206 OA
BRANCH   2   5
HETATM    5  C   UNK N   1      21.017  16.390   5.364  0.00  0.00     0.074 A 
HETATM    6  C   UNK N   1      22.369  16.175   5.652  0.00  0.00     0.027 A 
HETATM    7  C   UNK N   1      23.352  16.950   5.027  0.00  0.00     0.038 A 
HETATM    8  C   UNK N   1      22.989  17.952   4.119  0.00  0.00     0.068 A 
HETATM    9  C   UNK N   1      21.630  18.150   3.818  0.00  0.00     0.038 A 
HETATM   10  C   UNK N   1      20.651  17.375   4.442  0.00  0.00     0.027 A 
BRANCH   8  11
HETATM   11  O   UNK N   1      23.956  18.723   3.568  0.00  0.00    -0.356 OA
HETATM   12  C   UNK N   1      23.811  20.076   3.361  0.00  0.00     0.210 C 
ENDBRANCH   8  11
ENDBRANCH   2   5
ENDBRANCH   1   2
BRANCH   1  13
HETATM   13  C   UNK N   1      20.707  14.039   8.242  0.00  0.00     0.112 C 
BRANCH  13  14
HETATM   14  C   UNK N   1      21.192  14.001   9.684  0.00  0.00    -0.009 C 
HETATM   15  C   UNK N   1      20.260  13.141  10.509  0.00  0.00     0.011 C 
HETATM   16  C   UNK N   1      22.598  13.436   9.758  0.00  0.00     0.011 C 
ENDBRANCH  13  14
ENDBRANCH   1  13
BRANCH   1  17
HETATM   17  C   UNK N   1      20.524  16.344   8.665  0.00  0.00     0.212 C 
BRANCH  17  18
HETATM   18  C   UNK N   1      19.519  17.422   8.932  0.00  0.00     0.255 C 
HETATM   19  N   UNK N   1      18.226  17.094   9.146  0.00  0.00    -0.236 N 
HETATM   20  H   UNK N   1      17.953  16.148   9.121  0.00  0.00     0.197 HD
HETATM   21  O   UNK N   1      19.872  18.590   8.953  0.00  0.00    -0.270 OA
BRANCH  19  22
HETATM   22  O   UNK N   1      17.309  18.041   9.391  0.00  0.00    -0.287 OA
HETATM   23  H   UNK N   1      16.724  18.500   8.768  0.00  0.00     0.244 HD
ENDBRANCH  19  22
ENDBRANCH  17  18
ENDBRANCH   1  17
TORSDOF 8
ENDMDL
MODEL 9
REMARK VINA RESULT:      -5.5      2.974      3.973
REMARK  8 active torsions:
REMARK  status: ('A' for Active; 'I' for Inactive)
REMARK    1  A    between atoms: C_3  and  O_7 
REMARK    2  A    between atoms: C_6  and  S_9 
REMARK    3  A    between atoms: S_9  and  N_12 
REMARK    4  A    between atoms: N_12  and  C_13 
REMARK    5  A    between atoms: N_12  and  C_14 
REMARK    6  A    between atoms: C_13  and  C_19 
REMARK    7  A    between atoms: C_14  and  C_15 
REMARK       I    between atoms: C_15  and  N_16 
REMARK    8  A    between atoms: N_16  and  O_17 
ROOT
HETATM    1  N   UNK N   1      34.125  16.296   8.808  0.00  0.00    -0.197 NA
ENDROOT
BRANCH   1   2
HETATM    2  S   UNK N   1      33.562  17.645   7.789  0.00  0.00     0.244 S 
HETATM    3  O   UNK N   1      34.758  18.589   7.576  0.00  0.00    -0.206 OA
HETATM    4  O   UNK N   1      32.705  18.491   8.743  0.00  0.00    -0.206 OA
BRANCH   2   5
HETATM    5  C   UNK N   1      32.651  17.355   6.272  0.00  0.00     0.074 A 
HETATM    6  C   UNK N   1      31.313  16.950   6.318  0.00  0.00     0.027 A 
HETATM    7  C   UNK N   1      30.638  16.620   5.138  0.00  0.00     0.038 A 
HETATM    8  C   UNK N   1      31.299  16.685   3.905  0.00  0.00     0.068 A 
HETATM    9  C   UNK N   1      32.638  17.112   3.862  0.00  0.00     0.038 A 
HETATM   10  C   UNK N   1      33.309  17.441   5.041  0.00  0.00     0.027 A 
BRANCH   8  11
HETATM   11  O   UNK N   1      30.639  16.309   2.784  0.00  0.00    -0.356 OA
HETATM   12  C   UNK N   1      29.278  16.106   2.746  0.00  0.00     0.210 C 
ENDBRANCH   8  11
ENDBRANCH   2   5
ENDBRANCH   1   2
BRANCH   1  13
HETATM   13  C   UNK N   1      34.923  15.394   7.991  0.00  0.00     0.112 C 
BRANCH  13  14
HETATM   14  C   UNK N   1      34.167  14.096   7.742  0.00  0.00    -0.009 C 
HETATM   15  C   UNK N   1      34.920  12.944   8.370  0.00  0.00     0.011 C 
HETATM   16  C   UNK N   1      32.772  14.171   8.335  0.00  0.00     0.011 C 
ENDBRANCH  13  14
ENDBRANCH   1  13
BRANCH   1  17
HETATM   17  C   UNK N   1      34.978  16.795   9.879  0.00  0.00     0.212 C 
BRANCH  17  18
HETATM   18  C   UNK N   1      35.181  15.726  10.908  0.00  0.00     0.255 C 
HETATM   19  N   UNK N   1      36.429  15.444  11.342  0.00  0.00    -0.236 N 
HETATM   20  H   UNK N   1      37.196  15.941  10.975  0.00  0.00     0.197 HD
HETATM   21  O   UNK N   1      34.220  15.116  11.348  0.00  0.00    -0.270 OA
BRANCH  19  22
HETATM   22  O   UNK N   1      36.635  14.495  12.266  0.00  0.00    -0.287 OA
HETATM   23  H   UNK N   1      35.999  14.086  12.874  0.00  0.00     0.244 HD
ENDBRANCH  19  22
ENDBRANCH  17  18
ENDBRANCH   1  17
TORSDOF 8
ENDMDL
