MODEL 1
REMARK VINA RESULT:      -6.9      0.000      0.000
REMARK  9 active torsions:
REMARK  status: ('A' for Active; 'I' for Inactive)
REMARK    1  A    between atoms: C_10  and  C_11 
REMARK    2  A    between atoms: C_11  and  C_12 
REMARK    3  A    between atoms: C_12  and  C_13 
REMARK    4  A    between atoms: C_12  and  C_16 
REMARK    5  A    between atoms: C_13  and  O_14 
REMARK    6  A    between atoms: C_16  and  C_17 
REMARK    7  A    between atoms: C_17  and  N_18 
REMARK    8  A    between atoms: C_17  and  C_19 
REMARK    9  A    between atoms: C_19  and  O_20 
ROOT
HETATM    1  C   UNK N   1      36.005  13.345  12.639  0.00  0.00     0.090 C 
ENDROOT
BRANCH   1   2
HETATM    2  C   UNK N   1      34.867  12.367  13.002  0.00  0.00     0.054 C 
BRANCH   2   3
HETATM    3  C   UNK N   1      34.819  11.934  14.449  0.00  0.00    -0.056 A 
HETATM    4  C   UNK N   1      34.812  10.565  14.751  0.00  0.00     0.008 A 
HETATM    5  C   UNK N   1      34.904  10.132  16.080  0.00  0.00     0.013 A 
HETATM    6  C   UNK N   1      35.020  11.067  17.114  0.00  0.00    -0.026 A 
HETATM    7  C   UNK N   1      35.164  10.646  18.438  0.00  0.00     0.012 A 
HETATM    8  C   UNK N   1      35.006  12.447  16.816  0.00  0.00    -0.025 A 
HETATM    9  C   UNK N   1      35.301  11.593  19.460  0.00  0.00     0.001 A 
HETATM   10  C   UNK N   1      35.284  12.960  19.163  0.00  0.00     0.001 A 
HETATM   11  C   UNK N   1      35.135  13.386  17.840  0.00  0.00     0.012 A 
HETATM   12  C   UNK N   1      34.900  12.868  15.495  0.00  0.00     0.019 A 
ENDBRANCH   2   3
ENDBRANCH   1   2
BRANCH   1  13
HETATM   13  C   UNK N   1      36.809  12.882  11.433  0.00  0.00     0.144 C 
HETATM   14  O   UNK N   1      36.386  12.007  10.693  0.00  0.00    -0.650 OA
BRANCH  13  15
HETATM   15  O   UNK N   1      38.037  13.389  11.213  0.00  0.00    -0.776 OA
HETATM   16  H   UNK N   1      38.153  14.261  10.888  0.00  0.00     0.167 HD
ENDBRANCH  13  15
ENDBRANCH   1  13
BRANCH   1  17
HETATM   17  C   UNK N   1      35.369  14.728  12.407  0.00  0.00     0.051 C 
BRANCH  17  18
HETATM   18  C   UNK N   1      34.858  15.019  10.988  0.00  0.00     0.174 C 
BRANCH  18  19
HETATM   19  N   UNK N   1      33.404  14.985  10.967  0.00  0.00    -0.418 N 
HETATM   20  H   UNK N   1      32.539  15.490  11.162  0.00  0.00     0.150 HD
HETATM   21  H   UNK N   1      33.135  14.072  10.603  0.00  0.00     0.150 HD
ENDBRANCH  18  19
BRANCH  18  22
HETATM   22  C   UNK N   1      35.295  16.376  10.513  0.00  0.00     0.163 C 
HETATM   23  O   UNK N   1      36.467  16.700  10.607  0.00  0.00    -0.648 OA
BRANCH  22  24
HETATM   24  O   UNK N   1      34.410  17.239   9.975  0.00  0.00    -0.775 OA
HETATM   25  H   UNK N   1      33.932  17.001   9.205  0.00  0.00     0.167 HD
ENDBRANCH  22  24
ENDBRANCH  18  22
ENDBRANCH  17  18
ENDBRANCH   1  17
TORSDOF 9
ENDMDL
MODEL 2
REMARK VINA RESULT:      -6.7      6.011     10.150
REMARK  9 active torsions:
REMARK  status: ('A' for Active; 'I' for Inactive)
REMARK    1  A    between atoms: C_10  and  C_11 
REMARK    2  A    between atoms: C_11  and  C_12 
REMARK    3  A    between atoms: C_12  and  C_13 
REMARK    4  A    between atoms: C_12  and  C_16 
REMARK    5  A    between atoms: C_13  and  O_14 
REMARK    6  A    between atoms: C_16  and  C_17 
REMARK    7  A    between atoms: C_17  and  N_18 
REMARK    8  A    between atoms: C_17  and  C_19 
REMARK    9  A    between atoms: C_19  and  O_20 
ROOT
HETATM    1  C   UNK N   1      33.582  16.277   7.647  0.00  0.00     0.090 C 
ENDROOT
BRANCH   1   2
HETATM    2  C   UNK N   1      32.434  16.364   8.675  0.00  0.00     0.054 C 
BRANCH   2   3
HETATM    3  C   UNK N   1      31.152  16.982   8.166  0.00  0.00    -0.056 A 
HETATM    4  C   UNK N   1      30.462  17.890   8.982  0.00  0.00     0.008 A 
HETATM    5  C   UNK N   1      29.347  18.579   8.488  0.00  0.00     0.013 A 
HETATM    6  C   UNK N   1      28.925  18.375   7.170  0.00  0.00    -0.026 A 
HETATM    7  C   UNK N   1      27.846  19.095   6.651  0.00  0.00     0.012 A 
HETATM    8  C   UNK N   1      29.603  17.446   6.353  0.00  0.00    -0.025 A 
HETATM    9  C   UNK N   1      27.449  18.896   5.324  0.00  0.00     0.001 A 
HETATM   10  C   UNK N   1      28.122  17.972   4.517  0.00  0.00     0.001 A 
HETATM   11  C   UNK N   1      29.199  17.246   5.032  0.00  0.00     0.012 A 
HETATM   12  C   UNK N   1      30.701  16.755   6.856  0.00  0.00     0.019 A 
ENDBRANCH   2   3
ENDBRANCH   1   2
BRANCH   1  13
HETATM   13  C   UNK N   1      34.034  17.645   7.160  0.00  0.00     0.144 C 
HETATM   14  O   UNK N   1      34.185  17.871   5.968  0.00  0.00    -0.650 OA
BRANCH  13  15
HETATM   15  O   UNK N   1      34.344  18.605   8.053  0.00  0.00    -0.776 OA
HETATM   16  H   UNK N   1      34.314  19.512   7.822  0.00  0.00     0.167 HD
ENDBRANCH  13  15
ENDBRANCH   1  13
BRANCH   1  17
HETATM   17  C   UNK N   1      34.733  15.494   8.306  0.00  0.00     0.051 C 
BRANCH  17  18
HETATM   18  C   UNK N   1      34.741  15.450   9.842  0.00  0.00     0.174 C 
BRANCH  18  19
HETATM   19  N   UNK N   1      35.099  14.116  10.299  0.00  0.00    -0.418 N 
HETATM   20  H   UNK N   1      35.407  13.181  10.033  0.00  0.00     0.150 HD
HETATM   21  H   UNK N   1      35.001  14.116  11.314  0.00  0.00     0.150 HD
ENDBRANCH  18  19
BRANCH  18  22
HETATM   22  C   UNK N   1      35.739  16.417  10.415  0.00  0.00     0.163 C 
HETATM   23  O   UNK N   1      35.472  17.606  10.456  0.00  0.00    -0.648 OA
BRANCH  22  24
HETATM   24  O   UNK N   1      36.925  15.987  10.892  0.00  0.00    -0.775 OA
HETATM   25  H   UNK N   1      37.153  16.143  11.788  0.00  0.00     0.167 HD
ENDBRANCH  22  24
ENDBRANCH  18  22
ENDBRANCH  17  18
ENDBRANCH   1  17
TORSDOF 9
ENDMDL
MODEL 3
REMARK VINA RESULT:      -6.6      8.202     11.350
REMARK  9 active torsions:
REMARK  status: ('A' for Active; 'I' for Inactive)
REMARK    1  A    between atoms: C_10  and  C_11 
REMARK    2  A    between atoms: C_11  and  C_12 
REMARK    3  A    between atoms: C_12  and  C_13 
REMARK    4  A    between atoms: C_12  and  C_16 
REMARK    5  A    between atoms: C_13  and  O_14 
REMARK    6  A    between atoms: C_16  and  C_17 
REMARK    7  A    between atoms: C_17  and  N_18 
REMARK    8  A    between atoms: C_17  and  C_19 
REMARK    9  A    between atoms: C_19  and  O_20 
ROOT
HETATM    1  C   UNK N   1      31.648  15.970   6.968  0.00  0.00     0.090 C 
ENDROOT
BRANCH   1   2
HETATM    2  C   UNK N   1      30.537  16.079   5.902  0.00  0.00     0.054 C 
BRANCH   2   3
HETATM    3  C   UNK N   1      29.509  17.160   6.143  0.00  0.00    -0.056 A 
HETATM    4  C   UNK N   1      29.193  17.517   7.461  0.00  0.00     0.008 A 
HETATM    5  C   UNK N   1      28.346  18.604   7.717  0.00  0.00     0.013 A 
HETATM    6  C   UNK N   1      27.823  19.348   6.653  0.00  0.00    -0.026 A 
HETATM    7  C   UNK N   1      27.019  20.465   6.897  0.00  0.00     0.012 A 
HETATM    8  C   UNK N   1      28.121  18.978   5.325  0.00  0.00    -0.025 A 
HETATM    9  C   UNK N   1      26.521  21.213   5.825  0.00  0.00     0.001 A 
HETATM   10  C   UNK N   1      26.816  20.842   4.508  0.00  0.00     0.001 A 
HETATM   11  C   UNK N   1      27.617  19.724   4.259  0.00  0.00     0.012 A 
HETATM   12  C   UNK N   1      28.952  17.889   5.080  0.00  0.00     0.019 A 
ENDBRANCH   2   3
ENDBRANCH   1   2
BRANCH   1  13
HETATM   13  C   UNK N   1      32.367  14.630   6.928  0.00  0.00     0.144 C 
HETATM   14  O   UNK N   1      31.827  13.641   6.455  0.00  0.00    -0.650 OA
BRANCH  13  15
HETATM   15  O   UNK N   1      33.586  14.507   7.486  0.00  0.00    -0.776 OA
HETATM   16  H   UNK N   1      34.285  15.090   7.261  0.00  0.00     0.167 HD
ENDBRANCH  13  15
ENDBRANCH   1  13
BRANCH   1  17
HETATM   17  C   UNK N   1      32.617  17.146   6.745  0.00  0.00     0.051 C 
BRANCH  17  18
HETATM   18  C   UNK N   1      32.928  18.021   7.969  0.00  0.00     0.174 C 
BRANCH  18  19
HETATM   19  N   UNK N   1      32.213  17.520   9.132  0.00  0.00    -0.418 N 
HETATM   20  H   UNK N   1      32.139  17.522  10.149  0.00  0.00     0.150 HD
HETATM   21  H   UNK N   1      31.474  16.910   8.784  0.00  0.00     0.150 HD
ENDBRANCH  18  19
BRANCH  18  22
HETATM   22  C   UNK N   1      34.397  18.015   8.291  0.00  0.00     0.163 C 
HETATM   23  O   UNK N   1      34.971  16.955   8.472  0.00  0.00    -0.648 OA
BRANCH  22  24
HETATM   24  O   UNK N   1      35.090  19.169   8.377  0.00  0.00    -0.775 OA
HETATM   25  H   UNK N   1      35.584  19.361   9.150  0.00  0.00     0.167 HD
ENDBRANCH  22  24
ENDBRANCH  18  22
ENDBRANCH  17  18
ENDBRANCH   1  17
TORSDOF 9
ENDMDL
MODEL 4
REMARK VINA RESULT:      -6.6      1.900      2.897
REMARK  9 active torsions:
REMARK  status: ('A' for Active; 'I' for Inactive)
REMARK    1  A    between atoms: C_10  and  C_11 
REMARK    2  A    between atoms: C_11  and  C_12 
REMARK    3  A    between atoms: C_12  and  C_13 
REMARK    4  A    between atoms: C_12  and  C_16 
REMARK    5  A    between atoms: C_13  and  O_14 
REMARK    6  A    between atoms: C_16  and  C_17 
REMARK    7  A    between atoms: C_17  and  N_18 
REMARK    8  A    between atoms: C_17  and  C_19 
REMARK    9  A    between atoms: C_19  and  O_20 
ROOT
HETATM    1  C   UNK N   1      35.303  13.554  12.056  0.00  0.00     0.090 C 
ENDROOT
BRANCH   1   2
HETATM    2  C   UNK N   1      36.300  13.782  13.212  0.00  0.00     0.054 C 
BRANCH   2   3
HETATM    3  C   UNK N   1      36.032  12.985  14.468  0.00  0.00    -0.056 A 
HETATM    4  C   UNK N   1      36.297  11.608  14.470  0.00  0.00     0.008 A 
HETATM    5  C   UNK N   1      36.186  10.868  15.654  0.00  0.00     0.013 A 
HETATM    6  C   UNK N   1      35.826  11.505  16.846  0.00  0.00    -0.026 A 
HETATM    7  C   UNK N   1      35.763  10.787  18.044  0.00  0.00     0.012 A 
HETATM    8  C   UNK N   1      35.538  12.886  16.844  0.00  0.00    -0.025 A 
HETATM    9  C   UNK N   1      35.422  11.441  19.233  0.00  0.00     0.001 A 
HETATM   10  C   UNK N   1      35.135  12.811  19.226  0.00  0.00     0.001 A 
HETATM   11  C   UNK N   1      35.192  13.533  18.031  0.00  0.00     0.012 A 
HETATM   12  C   UNK N   1      35.636  13.611  15.661  0.00  0.00     0.019 A 
ENDBRANCH   2   3
ENDBRANCH   1   2
BRANCH   1  13
HETATM   13  C   UNK N   1      34.719  14.854  11.524  0.00  0.00     0.144 C 
HETATM   14  O   UNK N   1      35.408  15.858  11.421  0.00  0.00    -0.650 OA
BRANCH  13  15
HETATM   15  O   UNK N   1      33.407  14.926  11.229  0.00  0.00    -0.776 OA
HETATM   16  H   UNK N   1      33.046  14.462  10.499  0.00  0.00     0.167 HD
ENDBRANCH  13  15
ENDBRANCH   1  13
BRANCH   1  17
HETATM   17  C   UNK N   1      36.044  12.768  10.958  0.00  0.00     0.051 C 
BRANCH  17  18
HETATM   18  C   UNK N   1      37.567  12.642  11.113  0.00  0.00     0.174 C 
BRANCH  18  19
HETATM   19  N   UNK N   1      37.985  11.279  10.822  0.00  0.00    -0.418 N 
HETATM   20  H   UNK N   1      38.692  10.679  10.398  0.00  0.00     0.150 HD
HETATM   21  H   UNK N   1      37.269  10.662  11.207  0.00  0.00     0.150 HD
ENDBRANCH  18  19
BRANCH  18  22
HETATM   22  C   UNK N   1      38.294  13.558  10.169  0.00  0.00     0.163 C 
HETATM   23  O   UNK N   1      39.153  13.106   9.430  0.00  0.00    -0.648 OA
BRANCH  22  24
HETATM   24  O   UNK N   1      38.006  14.875  10.123  0.00  0.00    -0.775 OA
HETATM   25  H   UNK N   1      37.230  15.169   9.687  0.00  0.00     0.167 HD
ENDBRANCH  22  24
ENDBRANCH  18  22
ENDBRANCH  17  18
ENDBRANCH   1  17
TORSDOF 9
ENDMDL
MODEL 5
REMARK VINA RESULT:      -6.4     22.681     25.518
REMARK  9 active torsions:
REMARK  status: ('A' for Active; 'I' for Inactive)
REMARK    1  A    between atoms: C_10  and  C_11 
REMARK    2  A    between atoms: C_11  and  C_12 
REMARK    3  A    between atoms: C_12  and  C_13 
REMARK    4  A    between atoms: C_12  and  C_16 
REMARK    5  A    between atoms: C_13  and  O_14 
REMARK    6  A    between atoms: C_16  and  C_17 
REMARK    7  A    between atoms: C_17  and  N_18 
REMARK    8  A    between atoms: C_17  and  C_19 
REMARK    9  A    between atoms: C_19  and  O_20 
ROOT
HETATM    1  C   UNK N   1      26.133  23.726  -6.375  0.00  0.00     0.090 C 
ENDROOT
BRANCH   1   2
HETATM    2  C   UNK N   1      25.733  24.954  -7.222  0.00  0.00     0.054 C 
BRANCH   2   3
HETATM    3  C   UNK N   1      25.916  26.294  -6.548  0.00  0.00    -0.056 A 
HETATM    4  C   UNK N   1      25.126  26.610  -5.434  0.00  0.00     0.008 A 
HETATM    5  C   UNK N   1      25.363  27.784  -4.707  0.00  0.00     0.013 A 
HETATM    6  C   UNK N   1      26.403  28.642  -5.084  0.00  0.00    -0.026 A 
HETATM    7  C   UNK N   1      26.681  29.790  -4.337  0.00  0.00     0.012 A 
HETATM    8  C   UNK N   1      27.185  28.339  -6.219  0.00  0.00    -0.025 A 
HETATM    9  C   UNK N   1      27.737  30.627  -4.713  0.00  0.00     0.001 A 
HETATM   10  C   UNK N   1      28.510  30.326  -5.840  0.00  0.00     0.001 A 
HETATM   11  C   UNK N   1      28.233  29.182  -6.593  0.00  0.00     0.012 A 
HETATM   12  C   UNK N   1      26.934  27.178  -6.942  0.00  0.00     0.019 A 
ENDBRANCH   2   3
ENDBRANCH   1   2
BRANCH   1  13
HETATM   13  C   UNK N   1      25.680  22.415  -7.000  0.00  0.00     0.144 C 
HETATM   14  O   UNK N   1      26.449  21.734  -7.662  0.00  0.00    -0.650 OA
BRANCH  13  15
HETATM   15  O   UNK N   1      24.395  22.028  -6.886  0.00  0.00    -0.776 OA
HETATM   16  H   UNK N   1      23.702  22.519  -7.282  0.00  0.00     0.167 HD
ENDBRANCH  13  15
ENDBRANCH   1  13
BRANCH   1  17
HETATM   17  C   UNK N   1      27.661  23.774  -6.188  0.00  0.00     0.051 C 
BRANCH  17  18
HETATM   18  C   UNK N   1      28.187  23.491  -4.773  0.00  0.00     0.174 C 
BRANCH  18  19
HETATM   19  N   UNK N   1      29.637  23.609  -4.749  0.00  0.00    -0.418 N 
HETATM   20  H   UNK N   1      30.507  23.304  -4.313  0.00  0.00     0.150 HD
HETATM   21  H   UNK N   1      29.891  24.278  -5.476  0.00  0.00     0.150 HD
ENDBRANCH  18  19
BRANCH  18  22
HETATM   22  C   UNK N   1      27.629  24.465  -3.772  0.00  0.00     0.163 C 
HETATM   23  O   UNK N   1      28.024  25.618  -3.767  0.00  0.00    -0.648 OA
BRANCH  22  24
HETATM   24  O   UNK N   1      26.691  24.081  -2.883  0.00  0.00    -0.775 OA
HETATM   25  H   UNK N   1      26.192  24.726  -2.421  0.00  0.00     0.167 HD
ENDBRANCH  22  24
ENDBRANCH  18  22
ENDBRANCH  17  18
ENDBRANCH   1  17
TORSDOF 9
ENDMDL
MODEL 6
REMARK VINA RESULT:      -6.4     11.283     15.368
REMARK  9 active torsions:
REMARK  status: ('A' for Active; 'I' for Inactive)
REMARK    1  A    between atoms: C_10  and  C_11 
REMARK    2  A    between atoms: C_11  and  C_12 
REMARK    3  A    between atoms: C_12  and  C_13 
REMARK    4  A    between atoms: C_12  and  C_16 
REMARK    5  A    between atoms: C_13  and  O_14 
REMARK    6  A    between atoms: C_16  and  C_17 
REMARK    7  A    between atoms: C_17  and  N_18 
REMARK    8  A    between atoms: C_17  and  C_19 
REMARK    9  A    between atoms: C_19  and  O_20 
ROOT
HETATM    1  C   UNK N   1      28.055  19.029   5.771  0.00  0.00     0.090 C 
ENDROOT
BRANCH   1   2
HETATM    2  C   UNK N   1      27.570  18.788   4.325  0.00  0.00     0.054 C 
BRANCH   2   3
HETATM    3  C   UNK N   1      26.171  19.272   4.021  0.00  0.00    -0.056 A 
HETATM    4  C   UNK N   1      25.999  20.345   3.135  0.00  0.00     0.008 A 
HETATM    5  C   UNK N   1      24.714  20.729   2.729  0.00  0.00     0.013 A 
HETATM    6  C   UNK N   1      23.595  20.032   3.197  0.00  0.00    -0.026 A 
HETATM    7  C   UNK N   1      22.312  20.373   2.759  0.00  0.00     0.012 A 
HETATM    8  C   UNK N   1      23.762  18.966   4.106  0.00  0.00    -0.025 A 
HETATM    9  C   UNK N   1      21.204  19.653   3.218  0.00  0.00     0.001 A 
HETATM   10  C   UNK N   1      21.373  18.598   4.122  0.00  0.00     0.001 A 
HETATM   11  C   UNK N   1      22.653  18.255   4.566  0.00  0.00     0.012 A 
HETATM   12  C   UNK N   1      25.041  18.600   4.514  0.00  0.00     0.019 A 
ENDBRANCH   2   3
ENDBRANCH   1   2
BRANCH   1  13
HETATM   13  C   UNK N   1      27.455  20.284   6.386  0.00  0.00     0.144 C 
HETATM   14  O   UNK N   1      27.829  21.395   6.041  0.00  0.00    -0.650 OA
BRANCH  13  15
HETATM   15  O   UNK N   1      26.550  20.176   7.378  0.00  0.00    -0.776 OA
HETATM   16  H   UNK N   1      26.224  19.340   7.650  0.00  0.00     0.167 HD
ENDBRANCH  13  15
ENDBRANCH   1  13
BRANCH   1  17
HETATM   17  C   UNK N   1      27.712  17.769   6.588  0.00  0.00     0.051 C 
BRANCH  17  18
HETATM   18  C   UNK N   1      28.777  17.285   7.582  0.00  0.00     0.174 C 
BRANCH  18  19
HETATM   19  N   UNK N   1      30.107  17.565   7.061  0.00  0.00    -0.418 N 
HETATM   20  H   UNK N   1      30.931  17.191   6.591  0.00  0.00     0.150 HD
HETATM   21  H   UNK N   1      30.293  18.551   7.241  0.00  0.00     0.150 HD
ENDBRANCH  18  19
BRANCH  18  22
HETATM   22  C   UNK N   1      28.647  17.976   8.910  0.00  0.00     0.163 C 
HETATM   23  O   UNK N   1      29.649  18.344   9.500  0.00  0.00    -0.648 OA
BRANCH  22  24
HETATM   24  O   UNK N   1      27.435  18.202   9.456  0.00  0.00    -0.775 OA
HETATM   25  H   UNK N   1      26.995  19.015   9.299  0.00  0.00     0.167 HD
ENDBRANCH  22  24
ENDBRANCH  18  22
ENDBRANCH  17  18
ENDBRANCH   1  17
TORSDOF 9
ENDMDL
MODEL 7
REMARK VINA RESULT:      -6.3     19.682     22.821
REMARK  9 active torsions:
REMARK  status: ('A' for Active; 'I' for Inactive)
REMARK    1  A    between atoms: C_10  and  C_11 
REMARK    2  A    between atoms: C_11  and  C_12 
REMARK    3  A    between atoms: C_12  and  C_13 
REMARK    4  A    between atoms: C_12  and  C_16 
REMARK    5  A    between atoms: C_13  and  O_14 
REMARK    6  A    between atoms: C_16  and  C_17 
REMARK    7  A    between atoms: C_17  and  N_18 
REMARK    8  A    between atoms: C_17  and  C_19 
REMARK    9  A    between atoms: C_19  and  O_20 
ROOT
HETATM    1  C   UNK N   1      29.588  23.122  -3.690  0.00  0.00     0.090 C 
ENDROOT
BRANCH   1   2
HETATM    2  C   UNK N   1      28.277  23.216  -4.501  0.00  0.00     0.054 C 
BRANCH   2   3
HETATM    3  C   UNK N   1      27.629  24.581  -4.532  0.00  0.00    -0.056 A 
HETATM    4  C   UNK N   1      26.256  24.678  -4.798  0.00  0.00     0.008 A 
HETATM    5  C   UNK N   1      25.601  25.912  -4.702  0.00  0.00     0.013 A 
HETATM    6  C   UNK N   1      26.315  27.055  -4.322  0.00  0.00    -0.026 A 
HETATM    7  C   UNK N   1      25.662  28.281  -4.172  0.00  0.00     0.012 A 
HETATM    8  C   UNK N   1      27.701  26.966  -4.074  0.00  0.00    -0.025 A 
HETATM    9  C   UNK N   1      26.383  29.411  -3.771  0.00  0.00     0.001 A 
HETATM   10  C   UNK N   1      27.758  29.320  -3.528  0.00  0.00     0.001 A 
HETATM   11  C   UNK N   1      28.417  28.097  -3.680  0.00  0.00     0.012 A 
HETATM   12  C   UNK N   1      28.346  25.738  -4.186  0.00  0.00     0.019 A 
ENDBRANCH   2   3
ENDBRANCH   1   2
BRANCH   1  13
HETATM   13  C   UNK N   1      29.342  23.032  -2.192  0.00  0.00     0.144 C 
HETATM   14  O   UNK N   1      28.206  23.002  -1.741  0.00  0.00    -0.650 OA
BRANCH  13  15
HETATM   15  O   UNK N   1      30.384  23.058  -1.340  0.00  0.00    -0.776 OA
HETATM   16  H   UNK N   1      30.309  22.721  -0.468  0.00  0.00     0.167 HD
ENDBRANCH  13  15
ENDBRANCH   1  13
BRANCH   1  17
HETATM   17  C   UNK N   1      30.369  21.904  -4.217  0.00  0.00     0.051 C 
BRANCH  17  18
HETATM   18  C   UNK N   1      31.883  22.087  -4.402  0.00  0.00     0.174 C 
BRANCH  18  19
HETATM   19  N   UNK N   1      32.249  23.473  -4.156  0.00  0.00    -0.418 N 
HETATM   20  H   UNK N   1      32.392  24.204  -3.459  0.00  0.00     0.150 HD
HETATM   21  H   UNK N   1      32.448  23.892  -5.065  0.00  0.00     0.150 HD
ENDBRANCH  18  19
BRANCH  18  22
HETATM   22  C   UNK N   1      32.663  21.227  -3.447  0.00  0.00     0.163 C 
HETATM   23  O   UNK N   1      33.477  20.430  -3.879  0.00  0.00    -0.648 OA
BRANCH  22  24
HETATM   24  O   UNK N   1      32.479  21.331  -2.115  0.00  0.00    -0.775 OA
HETATM   25  H   UNK N   1      32.225  22.152  -1.740  0.00  0.00     0.167 HD
ENDBRANCH  22  24
ENDBRANCH  18  22
ENDBRANCH  17  18
ENDBRANCH   1  17
TORSDOF 9
ENDMDL
MODEL 8
REMARK VINA RESULT:      -6.3     14.125     15.895
REMARK  9 active torsions:
REMARK  status: ('A' for Active; 'I' for Inactive)
REMARK    1  A    between atoms: C_10  and  C_11 
REMARK    2  A    between atoms: C_11  and  C_12 
REMARK    3  A    between atoms: C_12  and  C_13 
REMARK    4  A    between atoms: C_12  and  C_16 
REMARK    5  A    between atoms: C_13  and  O_14 
REMARK    6  A    between atoms: C_16  and  C_17 
REMARK    7  A    between atoms: C_17  and  N_18 
REMARK    8  A    between atoms: C_17  and  C_19 
REMARK    9  A    between atoms: C_19  and  O_20 
ROOT
HETATM    1  C   UNK N   1      20.612  16.588   6.094  0.00  0.00     0.090 C 
ENDROOT
BRANCH   1   2
HETATM    2  C   UNK N   1      21.441  15.286   6.081  0.00  0.00     0.054 C 
BRANCH   2   3
HETATM    3  C   UNK N   1      21.698  14.666   7.435  0.00  0.00    -0.056 A 
HETATM    4  C   UNK N   1      20.628  14.510   8.327  0.00  0.00     0.008 A 
HETATM    5  C   UNK N   1      20.807  13.820   9.533  0.00  0.00     0.013 A 
HETATM    6  C   UNK N   1      22.054  13.267   9.845  0.00  0.00    -0.026 A 
HETATM    7  C   UNK N   1      22.230  12.532  11.020  0.00  0.00     0.012 A 
HETATM    8  C   UNK N   1      23.138  13.440   8.959  0.00  0.00    -0.025 A 
HETATM    9  C   UNK N   1      23.477  11.967  11.309  0.00  0.00     0.001 A 
HETATM   10  C   UNK N   1      24.552  12.142  10.430  0.00  0.00     0.001 A 
HETATM   11  C   UNK N   1      24.382  12.880   9.255  0.00  0.00     0.012 A 
HETATM   12  C   UNK N   1      22.956  14.140   7.771  0.00  0.00     0.019 A 
ENDBRANCH   2   3
ENDBRANCH   1   2
BRANCH   1  13
HETATM   13  C   UNK N   1      21.463  17.818   6.375  0.00  0.00     0.144 C 
HETATM   14  O   UNK N   1      20.982  18.809   6.904  0.00  0.00    -0.650 OA
BRANCH  13  15
HETATM   15  O   UNK N   1      22.748  17.849   5.971  0.00  0.00    -0.776 OA
HETATM   16  H   UNK N   1      23.107  17.167   5.439  0.00  0.00     0.167 HD
ENDBRANCH  13  15
ENDBRANCH   1  13
BRANCH   1  17
HETATM   17  C   UNK N   1      19.890  16.689   4.738  0.00  0.00     0.051 C 
BRANCH  17  18
HETATM   18  C   UNK N   1      20.639  17.420   3.614  0.00  0.00     0.174 C 
BRANCH  18  19
HETATM   19  N   UNK N   1      20.878  16.512   2.503  0.00  0.00    -0.418 N 
HETATM   20  H   UNK N   1      20.691  16.300   1.523  0.00  0.00     0.150 HD
HETATM   21  H   UNK N   1      21.494  15.777   2.850  0.00  0.00     0.150 HD
ENDBRANCH  18  19
BRANCH  18  22
HETATM   22  C   UNK N   1      19.849  18.588   3.093  0.00  0.00     0.163 C 
HETATM   23  O   UNK N   1      20.227  19.724   3.323  0.00  0.00    -0.648 OA
BRANCH  22  24
HETATM   24  O   UNK N   1      18.728  18.396   2.367  0.00  0.00    -0.775 OA
HETATM   25  H   UNK N   1      18.173  17.663   2.548  0.00  0.00     0.167 HD
ENDBRANCH  22  24
ENDBRANCH  18  22
ENDBRANCH  17  18
ENDBRANCH   1  17
TORSDOF 9
ENDMDL
MODEL 9
REMARK VINA RESULT:      -6.3      1.611      3.012
REMARK  9 active torsions:
REMARK  status: ('A' for Active; 'I' for Inactive)
REMARK    1  A    between atoms: C_10  and  C_11 
REMARK    2  A    between atoms: C_11  and  C_12 
REMARK    3  A    between atoms: C_12  and  C_13 
REMARK    4  A    between atoms: C_12  and  C_16 
REMARK    5  A    between atoms: C_13  and  O_14 
REMARK    6  A    between atoms: C_16  and  C_17 
REMARK    7  A    between atoms: C_17  and  N_18 
REMARK    8  A    between atoms: C_17  and  C_19 
REMARK    9  A    between atoms: C_19  and  O_20 
ROOT
HETATM    1  C   UNK N   1      34.721  14.713  10.759  0.00  0.00     0.090 C 
ENDROOT
BRANCH   1   2
HETATM    2  C   UNK N   1      35.648  13.539  11.139  0.00  0.00     0.054 C 
BRANCH   2   3
HETATM    3  C   UNK N   1      35.230  12.749  12.357  0.00  0.00    -0.056 A 
HETATM    4  C   UNK N   1      34.657  11.481  12.184  0.00  0.00     0.008 A 
HETATM    5  C   UNK N   1      34.383  10.670  13.293  0.00  0.00     0.013 A 
HETATM    6  C   UNK N   1      34.696  11.118  14.581  0.00  0.00    -0.026 A 
HETATM    7  C   UNK N   1      34.475  10.297  15.690  0.00  0.00     0.012 A 
HETATM    8  C   UNK N   1      35.252  12.402  14.762  0.00  0.00    -0.025 A 
HETATM    9  C   UNK N   1      34.812  10.749  16.971  0.00  0.00     0.001 A 
HETATM   10  C   UNK N   1      35.362  12.024  17.147  0.00  0.00     0.001 A 
HETATM   11  C   UNK N   1      35.581  12.850  16.042  0.00  0.00     0.012 A 
HETATM   12  C   UNK N   1      35.508  13.206  13.656  0.00  0.00     0.019 A 
ENDBRANCH   2   3
ENDBRANCH   1   2
BRANCH   1  13
HETATM   13  C   UNK N   1      35.450  16.048  10.733  0.00  0.00     0.144 C 
HETATM   14  O   UNK N   1      36.671  16.098  10.749  0.00  0.00    -0.650 OA
BRANCH  13  15
HETATM   15  O   UNK N   1      34.747  17.196  10.766  0.00  0.00    -0.776 OA
HETATM   16  H   UNK N   1      34.907  17.883  10.149  0.00  0.00     0.167 HD
ENDBRANCH  13  15
ENDBRANCH   1  13
BRANCH   1  17
HETATM   17  C   UNK N   1      34.089  14.379   9.395  0.00  0.00     0.051 C 
BRANCH  17  18
HETATM   18  C   UNK N   1      32.654  14.873   9.164  0.00  0.00     0.174 C 
BRANCH  18  19
HETATM   19  N   UNK N   1      32.009  15.143  10.440  0.00  0.00    -0.418 N 
HETATM   20  H   UNK N   1      31.626  14.748  11.298  0.00  0.00     0.150 HD
HETATM   21  H   UNK N   1      31.893  16.154  10.504  0.00  0.00     0.150 HD
ENDBRANCH  18  19
BRANCH  18  22
HETATM   22  C   UNK N   1      32.630  16.141   8.357  0.00  0.00     0.163 C 
HETATM   23  O   UNK N   1      32.866  16.101   7.162  0.00  0.00    -0.648 OA
BRANCH  22  24
HETATM   24  O   UNK N   1      32.345  17.325   8.938  0.00  0.00    -0.775 OA
HETATM   25  H   UNK N   1      31.610  17.826   8.643  0.00  0.00     0.167 HD
ENDBRANCH  22  24
ENDBRANCH  18  22
ENDBRANCH  17  18
ENDBRANCH   1  17
TORSDOF 9
ENDMDL
