REMARK  9 active torsions:
REMARK  status: ('A' for Active; 'I' for Inactive)
REMARK    1  A    between atoms: C_10  and  C_11 
REMARK    2  A    between atoms: C_11  and  C_12 
REMARK    3  A    between atoms: C_12  and  C_13 
REMARK    4  A    between atoms: C_12  and  C_16 
REMARK    5  A    between atoms: C_13  and  O_14 
REMARK    6  A    between atoms: C_16  and  C_17 
REMARK    7  A    between atoms: C_17  and  N_18 
REMARK    8  A    between atoms: C_17  and  C_19 
REMARK    9  A    between atoms: C_19  and  O_20 
ROOT
HETATM    1  C   UNK N   1       0.035  -1.261  -0.115  0.00  0.00     0.090 C 
ENDROOT
BRANCH   1   2
HETATM    2  C   UNK N   1      -0.616  -2.643   0.107  0.00  0.00     0.054 C 
BRANCH   2   3
HETATM    3  C   UNK N   1      -2.118  -2.687  -0.056  0.00  0.00    -0.056 A 
HETATM    4  C   UNK N   1      -2.819  -3.816   0.390  0.00  0.00     0.008 A 
HETATM    5  C   UNK N   1      -4.220  -3.831   0.376  0.00  0.00     0.013 A 
HETATM    6  C   UNK N   1      -4.927  -2.709  -0.070  0.00  0.00    -0.026 A 
HETATM    7  C   UNK N   1      -6.324  -2.693  -0.040  0.00  0.00     0.012 A 
HETATM    8  C   UNK N   1      -4.225  -1.579  -0.540  0.00  0.00    -0.025 A 
HETATM    9  C   UNK N   1      -7.018  -1.556  -0.469  0.00  0.00     0.001 A 
HETATM   10  C   UNK N   1      -6.319  -0.438  -0.937  0.00  0.00     0.001 A 
HETATM   11  C   UNK N   1      -4.922  -0.450  -0.973  0.00  0.00     0.012 A 
HETATM   12  C   UNK N   1      -2.834  -1.578  -0.536  0.00  0.00     0.019 A 
ENDBRANCH   2   3
ENDBRANCH   1   2
BRANCH   1  13
HETATM   13  C   UNK N   1      -0.567  -0.183   0.774  0.00  0.00     0.144 C 
HETATM   14  O   UNK N   1      -1.324  -0.472   1.689  0.00  0.00    -0.650 OA
BRANCH  13  15
HETATM   15  O   UNK N   1      -0.324   1.115   0.510  0.00  0.00    -0.776 OA
HETATM   16  H   UNK N   1       0.543   1.420   0.326  0.00  0.00     0.167 HD
ENDBRANCH  13  15
ENDBRANCH   1  13
BRANCH   1  17
HETATM   17  C   UNK N   1       1.548  -1.421   0.123  0.00  0.00     0.051 C 
BRANCH  17  18
HETATM   18  C   UNK N   1       2.401  -0.150  -0.005  0.00  0.00     0.174 C 
BRANCH  18  19
HETATM   19  N   UNK N   1       2.243   0.676   1.182  0.00  0.00    -0.418 N 
HETATM   20  H   UNK N   1       2.689   1.062   2.014  0.00  0.00     0.150 HD
HETATM   21  H   UNK N   1       1.280   1.012   1.182  0.00  0.00     0.150 HD
ENDBRANCH  18  19
BRANCH  18  22
HETATM   22  C   UNK N   1       3.861  -0.478  -0.148  0.00  0.00     0.163 C 
HETATM   23  O   UNK N   1       4.672   0.423  -0.279  0.00  0.00    -0.648 OA
BRANCH  22  24
HETATM   24  O   UNK N   1       4.288  -1.757  -0.126  0.00  0.00    -0.775 OA
HETATM   25  H   UNK N   1       3.666  -2.458  -0.111  0.00  0.00     0.167 HD
ENDBRANCH  22  24
ENDBRANCH  18  22
ENDBRANCH  17  18
ENDBRANCH   1  17
TORSDOF 9
