MODEL 1
REMARK VINA RESULT:      -7.0      0.000      0.000
REMARK  10 active torsions:
REMARK  status: ('A' for Active; 'I' for Inactive)
REMARK    1  A    between atoms: C_1  and  C_12 
REMARK    2  A    between atoms: C_3  and  N_4 
REMARK    3  A    between atoms: C_7  and  O_8 
REMARK    4  A    between atoms: C_12  and  C_13 
REMARK       I    between atoms: C_13  and  N_15 
REMARK    5  A    between atoms: N_15  and  C_16 
REMARK    6  A    between atoms: C_16  and  C_17 
REMARK    7  A    between atoms: C_17  and  C_18 
REMARK    8  A    between atoms: C_18  and  C_19 
REMARK    9  A    between atoms: C_19  and  C_20 
REMARK   10  A    between atoms: C_20  and  C_21 
ROOT
HETATM    1  C   UNK N   1      29.435  17.141   8.161  0.00  0.00     0.141 C 
ENDROOT
BRANCH   1   2
HETATM    2  C   UNK N   1      30.810  17.082   7.588  0.00  0.00    -0.046 A 
HETATM    3  C   UNK N   1      31.906  17.443   8.374  0.00  0.00     0.046 A 
HETATM    4  C   UNK N   1      33.172  17.635   7.794  0.00  0.00     0.137 A 
HETATM    5  C   UNK N   1      33.313  17.474   6.392  0.00  0.00     0.115 A 
HETATM    6  C   UNK N   1      32.205  17.102   5.615  0.00  0.00     0.042 A 
HETATM    7  I   UNK N   1      32.345  16.897   3.520  0.00  0.00    -0.042 I 
HETATM    8  C   UNK N   1      30.963  16.915   6.212  0.00  0.00     0.028 A 
BRANCH   4   9
HETATM    9  N   UNK N   1      34.270  18.028   8.620  0.00  0.00    -0.113 N 
HETATM   10  O   UNK N   1      34.990  19.089   8.330  0.00  0.00    -0.532 OA
HETATM   11  O   UNK N   1      34.534  17.398   9.602  0.00  0.00    -0.532 OA
ENDBRANCH   4   9
BRANCH   5  12
HETATM   12  O   UNK N   1      34.495  17.687   5.788  0.00  0.00    -0.357 OA
HETATM   13  H   UNK N   1      34.927  18.518   5.782  0.00  0.00     0.217 HD
ENDBRANCH   5  12
ENDBRANCH   1   2
BRANCH   1  14
HETATM   14  C   UNK N   1      29.064  18.601   8.356  0.00  0.00     0.221 C 
HETATM   15  O   UNK N   1      29.599  19.254   9.241  0.00  0.00    -0.273 OA
HETATM   16  N   UNK N   1      28.151  19.211   7.575  0.00  0.00    -0.361 N 
HETATM   17  H   UNK N   1      27.846  20.114   7.821  0.00  0.00     0.162 HD
BRANCH  16  18
HETATM   18  C   UNK N   1      27.604  18.599   6.397  0.00  0.00     0.122 C 
BRANCH  18  19
HETATM   19  C   UNK N   1      28.282  19.236   5.197  0.00  0.00     0.020 C 
BRANCH  19  20
HETATM   20  C   UNK N   1      27.300  19.328   4.032  0.00  0.00     0.002 C 
BRANCH  20  21
HETATM   21  C   UNK N   1      26.203  20.333   4.331  0.00  0.00     0.010 C 
BRANCH  21  22
HETATM   22  C   UNK N   1      24.878  19.760   3.865  0.00  0.00     0.113 C 
BRANCH  22  23
HETATM   23  C   UNK N   1      24.267  20.616   2.804  0.00  0.00     0.172 C 
HETATM   24  O   UNK N   1      24.840  20.755   1.738  0.00  0.00    -0.648 OA
HETATM   25  O   UNK N   1      23.080  21.216   3.010  0.00  0.00    -0.648 OA
ENDBRANCH  22  23
ENDBRANCH  21  22
ENDBRANCH  20  21
ENDBRANCH  19  20
ENDBRANCH  18  19
ENDBRANCH  16  18
ENDBRANCH   1  14
TORSDOF 10
ENDMDL
MODEL 2
REMARK VINA RESULT:      -6.7      3.302      7.245
REMARK  10 active torsions:
REMARK  status: ('A' for Active; 'I' for Inactive)
REMARK    1  A    between atoms: C_1  and  C_12 
REMARK    2  A    between atoms: C_3  and  N_4 
REMARK    3  A    between atoms: C_7  and  O_8 
REMARK    4  A    between atoms: C_12  and  C_13 
REMARK       I    between atoms: C_13  and  N_15 
REMARK    5  A    between atoms: N_15  and  C_16 
REMARK    6  A    between atoms: C_16  and  C_17 
REMARK    7  A    between atoms: C_17  and  C_18 
REMARK    8  A    between atoms: C_18  and  C_19 
REMARK    9  A    between atoms: C_19  and  C_20 
REMARK   10  A    between atoms: C_20  and  C_21 
ROOT
HETATM    1  C   UNK N   1      30.482  16.130   5.196  0.00  0.00     0.141 C 
ENDROOT
BRANCH   1   2
HETATM    2  C   UNK N   1      29.811  17.177   6.019  0.00  0.00    -0.046 A 
HETATM    3  C   UNK N   1      29.956  17.169   7.407  0.00  0.00     0.046 A 
HETATM    4  C   UNK N   1      29.145  17.981   8.218  0.00  0.00     0.137 A 
HETATM    5  C   UNK N   1      28.161  18.796   7.602  0.00  0.00     0.115 A 
HETATM    6  C   UNK N   1      28.031  18.801   6.204  0.00  0.00     0.042 A 
HETATM    7  I   UNK N   1      26.553  19.954   5.237  0.00  0.00    -0.042 I 
HETATM    8  C   UNK N   1      28.848  17.991   5.423  0.00  0.00     0.028 A 
BRANCH   4   9
HETATM    9  N   UNK N   1      29.300  17.934   9.638  0.00  0.00    -0.113 N 
HETATM   10  O   UNK N   1      29.109  16.817  10.304  0.00  0.00    -0.532 OA
HETATM   11  O   UNK N   1      29.627  18.917  10.236  0.00  0.00    -0.532 OA
ENDBRANCH   4   9
BRANCH   5  12
HETATM   12  O   UNK N   1      27.334  19.557   8.339  0.00  0.00    -0.357 OA
HETATM   13  H   UNK N   1      26.402  19.542   8.249  0.00  0.00     0.217 HD
ENDBRANCH   5  12
ENDBRANCH   1   2
BRANCH   1  14
HETATM   14  C   UNK N   1      31.946  16.510   5.045  0.00  0.00     0.221 C 
HETATM   15  O   UNK N   1      32.249  17.590   4.558  0.00  0.00    -0.273 OA
HETATM   16  N   UNK N   1      32.936  15.685   5.437  0.00  0.00    -0.361 N 
HETATM   17  H   UNK N   1      33.863  15.914   5.199  0.00  0.00     0.162 HD
BRANCH  16  18
HETATM   18  C   UNK N   1      32.696  14.485   6.188  0.00  0.00     0.122 C 
BRANCH  18  19
HETATM   19  C   UNK N   1      32.634  14.872   7.655  0.00  0.00     0.020 C 
BRANCH  19  20
HETATM   20  C   UNK N   1      34.033  15.203   8.165  0.00  0.00     0.002 C 
BRANCH  20  21
HETATM   21  C   UNK N   1      33.971  16.238   9.274  0.00  0.00     0.010 C 
BRANCH  21  22
HETATM   22  C   UNK N   1      33.415  17.529   8.705  0.00  0.00     0.113 C 
BRANCH  22  23
HETATM   23  C   UNK N   1      34.457  18.265   7.926  0.00  0.00     0.172 C 
HETATM   24  O   UNK N   1      35.155  19.092   8.484  0.00  0.00    -0.648 OA
HETATM   25  O   UNK N   1      34.642  18.004   6.618  0.00  0.00    -0.648 OA
ENDBRANCH  22  23
ENDBRANCH  21  22
ENDBRANCH  20  21
ENDBRANCH  19  20
ENDBRANCH  18  19
ENDBRANCH  16  18
ENDBRANCH   1  14
TORSDOF 10
ENDMDL
MODEL 3
REMARK VINA RESULT:      -6.6      8.660     11.748
REMARK  10 active torsions:
REMARK  status: ('A' for Active; 'I' for Inactive)
REMARK    1  A    between atoms: C_1  and  C_12 
REMARK    2  A    between atoms: C_3  and  N_4 
REMARK    3  A    between atoms: C_7  and  O_8 
REMARK    4  A    between atoms: C_12  and  C_13 
REMARK       I    between atoms: C_13  and  N_15 
REMARK    5  A    between atoms: N_15  and  C_16 
REMARK    6  A    between atoms: C_16  and  C_17 
REMARK    7  A    between atoms: C_17  and  C_18 
REMARK    8  A    between atoms: C_18  and  C_19 
REMARK    9  A    between atoms: C_19  and  C_20 
REMARK   10  A    between atoms: C_20  and  C_21 
ROOT
HETATM    1  C   UNK N   1      34.993  12.344  13.901  0.00  0.00     0.141 C 
ENDROOT
BRANCH   1   2
HETATM    2  C   UNK N   1      34.903  12.131  15.374  0.00  0.00    -0.046 A 
HETATM    3  C   UNK N   1      35.013  13.220  16.241  0.00  0.00     0.046 A 
HETATM    4  C   UNK N   1      35.181  13.023  17.622  0.00  0.00     0.137 A 
HETATM    5  C   UNK N   1      35.256  11.697  18.119  0.00  0.00     0.115 A 
HETATM    6  C   UNK N   1      35.136  10.611  17.237  0.00  0.00     0.042 A 
HETATM    7  I   UNK N   1      35.291   8.619  17.913  0.00  0.00    -0.042 I 
HETATM    8  C   UNK N   1      34.967  10.832  15.876  0.00  0.00     0.028 A 
BRANCH   4   9
HETATM    9  N   UNK N   1      35.315  14.156  18.483  0.00  0.00    -0.113 N 
HETATM   10  O   UNK N   1      36.061  15.183  18.140  0.00  0.00    -0.532 OA
HETATM   11  O   UNK N   1      34.727  14.188  19.525  0.00  0.00    -0.532 OA
ENDBRANCH   4   9
BRANCH   5  12
HETATM   12  O   UNK N   1      35.458  11.459  19.427  0.00  0.00    -0.357 OA
HETATM   13  H   UNK N   1      35.337  10.619  19.822  0.00  0.00     0.217 HD
ENDBRANCH   5  12
ENDBRANCH   1   2
BRANCH   1  14
HETATM   14  C   UNK N   1      36.442  12.633  13.550  0.00  0.00     0.221 C 
HETATM   15  O   UNK N   1      37.286  11.756  13.668  0.00  0.00    -0.273 OA
HETATM   16  N   UNK N   1      36.836  13.843  13.106  0.00  0.00    -0.361 N 
HETATM   17  H   UNK N   1      37.800  14.024  13.019  0.00  0.00     0.162 HD
BRANCH  16  18
HETATM   18  C   UNK N   1      35.908  14.881  12.753  0.00  0.00     0.122 C 
BRANCH  18  19
HETATM   19  C   UNK N   1      35.736  14.842  11.245  0.00  0.00     0.020 C 
BRANCH  19  20
HETATM   20  C   UNK N   1      35.307  16.215  10.735  0.00  0.00     0.002 C 
BRANCH  20  21
HETATM   21  C   UNK N   1      34.794  16.123   9.310  0.00  0.00     0.010 C 
BRANCH  21  22
HETATM   22  C   UNK N   1      33.923  17.333   9.028  0.00  0.00     0.113 C 
BRANCH  22  23
HETATM   23  C   UNK N   1      34.607  18.281   8.097  0.00  0.00     0.172 C 
HETATM   24  O   UNK N   1      34.489  18.135   6.894  0.00  0.00    -0.648 OA
HETATM   25  O   UNK N   1      35.335  19.305   8.580  0.00  0.00    -0.648 OA
ENDBRANCH  22  23
ENDBRANCH  21  22
ENDBRANCH  20  21
ENDBRANCH  19  20
ENDBRANCH  18  19
ENDBRANCH  16  18
ENDBRANCH   1  14
TORSDOF 10
ENDMDL
MODEL 4
REMARK VINA RESULT:      -6.4     10.431     12.458
REMARK  10 active torsions:
REMARK  status: ('A' for Active; 'I' for Inactive)
REMARK    1  A    between atoms: C_1  and  C_12 
REMARK    2  A    between atoms: C_3  and  N_4 
REMARK    3  A    between atoms: C_7  and  O_8 
REMARK    4  A    between atoms: C_12  and  C_13 
REMARK       I    between atoms: C_13  and  N_15 
REMARK    5  A    between atoms: N_15  and  C_16 
REMARK    6  A    between atoms: C_16  and  C_17 
REMARK    7  A    between atoms: C_17  and  C_18 
REMARK    8  A    between atoms: C_18  and  C_19 
REMARK    9  A    between atoms: C_19  and  C_20 
REMARK   10  A    between atoms: C_20  and  C_21 
ROOT
HETATM    1  C   UNK N   1      29.829  22.229  -7.124  0.00  0.00     0.141 C 
ENDROOT
BRANCH   1   2
HETATM    2  C   UNK N   1      30.326  21.814  -5.781  0.00  0.00    -0.046 A 
HETATM    3  C   UNK N   1      29.770  22.376  -4.631  0.00  0.00     0.046 A 
HETATM    4  C   UNK N   1      30.379  22.194  -3.377  0.00  0.00     0.137 A 
HETATM    5  C   UNK N   1      31.581  21.445  -3.304  0.00  0.00     0.115 A 
HETATM    6  C   UNK N   1      32.125  20.878  -4.467  0.00  0.00     0.042 A 
HETATM    7  I   UNK N   1      33.936  19.798  -4.425  0.00  0.00    -0.042 I 
HETATM    8  C   UNK N   1      31.502  21.070  -5.695  0.00  0.00     0.028 A 
BRANCH   4   9
HETATM    9  N   UNK N   1      29.800  22.801  -2.220  0.00  0.00    -0.113 N 
HETATM   10  O   UNK N   1      28.500  22.974  -2.124  0.00  0.00    -0.532 OA
HETATM   11  O   UNK N   1      30.499  23.142  -1.311  0.00  0.00    -0.532 OA
ENDBRANCH   4   9
BRANCH   5  12
HETATM   12  O   UNK N   1      32.221  21.280  -2.133  0.00  0.00    -0.357 OA
HETATM   13  H   UNK N   1      32.343  20.445  -1.726  0.00  0.00     0.217 HD
ENDBRANCH   5  12
ENDBRANCH   1   2
BRANCH   1  14
HETATM   14  C   UNK N   1      28.561  21.447  -7.424  0.00  0.00     0.221 C 
HETATM   15  O   UNK N   1      28.621  20.246  -7.641  0.00  0.00    -0.273 OA
HETATM   16  N   UNK N   1      27.353  22.043  -7.459  0.00  0.00    -0.361 N 
HETATM   17  H   UNK N   1      26.581  21.528  -7.787  0.00  0.00     0.162 HD
BRANCH  16  18
HETATM   18  C   UNK N   1      27.143  23.400  -7.038  0.00  0.00     0.122 C 
BRANCH  18  19
HETATM   19  C   UNK N   1      25.883  23.423  -6.192  0.00  0.00     0.020 C 
BRANCH  19  20
HETATM   20  C   UNK N   1      26.196  23.987  -4.808  0.00  0.00     0.002 C 
BRANCH  20  21
HETATM   21  C   UNK N   1      26.906  25.325  -4.920  0.00  0.00     0.010 C 
BRANCH  21  22
HETATM   22  C   UNK N   1      26.711  26.088  -3.624  0.00  0.00     0.113 C 
BRANCH  22  23
HETATM   23  C   UNK N   1      25.871  27.305  -3.839  0.00  0.00     0.172 C 
HETATM   24  O   UNK N   1      25.161  27.381  -4.825  0.00  0.00    -0.648 OA
HETATM   25  O   UNK N   1      25.880  28.307  -2.940  0.00  0.00    -0.648 OA
ENDBRANCH  22  23
ENDBRANCH  21  22
ENDBRANCH  20  21
ENDBRANCH  19  20
ENDBRANCH  18  19
ENDBRANCH  16  18
ENDBRANCH   1  14
TORSDOF 10
ENDMDL
MODEL 5
REMARK VINA RESULT:      -6.4      1.587      2.158
REMARK  10 active torsions:
REMARK  status: ('A' for Active; 'I' for Inactive)
REMARK    1  A    between atoms: C_1  and  C_12 
REMARK    2  A    between atoms: C_3  and  N_4 
REMARK    3  A    between atoms: C_7  and  O_8 
REMARK    4  A    between atoms: C_12  and  C_13 
REMARK       I    between atoms: C_13  and  N_15 
REMARK    5  A    between atoms: N_15  and  C_16 
REMARK    6  A    between atoms: C_16  and  C_17 
REMARK    7  A    between atoms: C_17  and  C_18 
REMARK    8  A    between atoms: C_18  and  C_19 
REMARK    9  A    between atoms: C_19  and  C_20 
REMARK   10  A    between atoms: C_20  and  C_21 
ROOT
HETATM    1  C   UNK N   1      29.549  17.172   8.770  0.00  0.00     0.141 C 
ENDROOT
BRANCH   1   2
HETATM    2  C   UNK N   1      30.847  17.127   8.036  0.00  0.00    -0.046 A 
HETATM    3  C   UNK N   1      32.022  17.516   8.680  0.00  0.00     0.046 A 
HETATM    4  C   UNK N   1      33.206  17.720   7.950  0.00  0.00     0.137 A 
HETATM    5  C   UNK N   1      33.180  17.542   6.543  0.00  0.00     0.115 A 
HETATM    6  C   UNK N   1      31.993  17.142   5.910  0.00  0.00     0.042 A 
HETATM    7  I   UNK N   1      31.884  16.912   3.816  0.00  0.00    -0.042 I 
HETATM    8  C   UNK N   1      30.836  16.944   6.654  0.00  0.00     0.028 A 
BRANCH   4   9
HETATM    9  N   UNK N   1      34.389  18.141   8.633  0.00  0.00    -0.113 N 
HETATM   10  O   UNK N   1      34.864  17.458   9.651  0.00  0.00    -0.532 OA
HETATM   11  O   UNK N   1      34.974  19.119   8.267  0.00  0.00    -0.532 OA
ENDBRANCH   4   9
BRANCH   5  12
HETATM   12  O   UNK N   1      34.277  17.766   5.799  0.00  0.00    -0.357 OA
HETATM   13  H   UNK N   1      34.948  17.126   5.664  0.00  0.00     0.217 HD
ENDBRANCH   5  12
ENDBRANCH   1   2
BRANCH   1  14
HETATM   14  C   UNK N   1      28.634  18.151   8.056  0.00  0.00     0.221 C 
HETATM   15  O   UNK N   1      28.907  19.343   8.040  0.00  0.00    -0.273 OA
HETATM   16  N   UNK N   1      27.512  17.744   7.429  0.00  0.00    -0.361 N 
HETATM   17  H   UNK N   1      26.883  18.425   7.097  0.00  0.00     0.162 HD
BRANCH  16  18
HETATM   18  C   UNK N   1      27.195  16.359   7.226  0.00  0.00     0.122 C 
BRANCH  18  19
HETATM   19  C   UNK N   1      27.349  16.072   5.743  0.00  0.00     0.020 C 
BRANCH  19  20
HETATM   20  C   UNK N   1      26.222  16.744   4.963  0.00  0.00     0.002 C 
BRANCH  20  21
HETATM   21  C   UNK N   1      26.742  17.331   3.664  0.00  0.00     0.010 C 
BRANCH  21  22
HETATM   22  C   UNK N   1      27.824  18.344   3.986  0.00  0.00     0.113 C 
BRANCH  22  23
HETATM   23  C   UNK N   1      27.236  19.693   4.247  0.00  0.00     0.172 C 
HETATM   24  O   UNK N   1      27.239  20.143   5.379  0.00  0.00    -0.648 OA
HETATM   25  O   UNK N   1      26.722  20.420   3.238  0.00  0.00    -0.648 OA
ENDBRANCH  22  23
ENDBRANCH  21  22
ENDBRANCH  20  21
ENDBRANCH  19  20
ENDBRANCH  18  19
ENDBRANCH  16  18
ENDBRANCH   1  14
TORSDOF 10
ENDMDL
MODEL 6
REMARK VINA RESULT:      -6.4     11.012     13.273
REMARK  10 active torsions:
REMARK  status: ('A' for Active; 'I' for Inactive)
REMARK    1  A    between atoms: C_1  and  C_12 
REMARK    2  A    between atoms: C_3  and  N_4 
REMARK    3  A    between atoms: C_7  and  O_8 
REMARK    4  A    between atoms: C_12  and  C_13 
REMARK       I    between atoms: C_13  and  N_15 
REMARK    5  A    between atoms: N_15  and  C_16 
REMARK    6  A    between atoms: C_16  and  C_17 
REMARK    7  A    between atoms: C_17  and  C_18 
REMARK    8  A    between atoms: C_18  and  C_19 
REMARK    9  A    between atoms: C_19  and  C_20 
REMARK   10  A    between atoms: C_20  and  C_21 
ROOT
HETATM    1  C   UNK N   1      27.702  25.363  -4.995  0.00  0.00     0.141 C 
ENDROOT
BRANCH   1   2
HETATM    2  C   UNK N   1      28.408  24.064  -4.796  0.00  0.00    -0.046 A 
HETATM    3  C   UNK N   1      29.158  23.853  -3.638  0.00  0.00     0.046 A 
HETATM    4  C   UNK N   1      30.026  22.752  -3.537  0.00  0.00     0.137 A 
HETATM    5  C   UNK N   1      30.142  21.870  -4.642  0.00  0.00     0.115 A 
HETATM    6  C   UNK N   1      29.376  22.090  -5.797  0.00  0.00     0.042 A 
HETATM    7  I   UNK N   1      29.546  20.841  -7.488  0.00  0.00    -0.042 I 
HETATM    8  C   UNK N   1      28.522  23.184  -5.871  0.00  0.00     0.028 A 
BRANCH   4   9
HETATM    9  N   UNK N   1      30.799  22.573  -2.349  0.00  0.00    -0.113 N 
HETATM   10  O   UNK N   1      31.972  21.980  -2.386  0.00  0.00    -0.532 OA
HETATM   11  O   UNK N   1      30.389  22.984  -1.302  0.00  0.00    -0.532 OA
ENDBRANCH   4   9
BRANCH   5  12
HETATM   12  O   UNK N   1      30.991  20.828  -4.607  0.00  0.00    -0.357 OA
HETATM   13  H   UNK N   1      31.920  20.923  -4.533  0.00  0.00     0.217 HD
ENDBRANCH   5  12
ENDBRANCH   1   2
BRANCH   1  14
HETATM   14  C   UNK N   1      26.206  25.101  -4.952  0.00  0.00     0.221 C 
HETATM   15  O   UNK N   1      25.720  24.486  -4.015  0.00  0.00    -0.273 OA
HETATM   16  N   UNK N   1      25.383  25.532  -5.930  0.00  0.00    -0.361 N 
HETATM   17  H   UNK N   1      24.448  25.226  -5.928  0.00  0.00     0.162 HD
BRANCH  16  18
HETATM   18  C   UNK N   1      25.814  26.419  -6.973  0.00  0.00     0.122 C 
BRANCH  18  19
HETATM   19  C   UNK N   1      25.670  25.675  -8.289  0.00  0.00     0.020 C 
BRANCH  19  20
HETATM   20  C   UNK N   1      26.970  24.947  -8.620  0.00  0.00     0.002 C 
BRANCH  20  21
HETATM   21  C   UNK N   1      26.689  23.530  -9.085  0.00  0.00     0.010 C 
BRANCH  21  22
HETATM   22  C   UNK N   1      25.275  23.157  -8.684  0.00  0.00     0.113 C 
BRANCH  22  23
HETATM   23  C   UNK N   1      25.277  22.084  -7.645  0.00  0.00     0.172 C 
HETATM   24  O   UNK N   1      24.946  22.350  -6.503  0.00  0.00    -0.648 OA
HETATM   25  O   UNK N   1      25.622  20.823  -7.966  0.00  0.00    -0.648 OA
ENDBRANCH  22  23
ENDBRANCH  21  22
ENDBRANCH  20  21
ENDBRANCH  19  20
ENDBRANCH  18  19
ENDBRANCH  16  18
ENDBRANCH   1  14
TORSDOF 10
ENDMDL
MODEL 7
REMARK VINA RESULT:      -6.2      7.633     10.880
REMARK  10 active torsions:
REMARK  status: ('A' for Active; 'I' for Inactive)
REMARK    1  A    between atoms: C_1  and  C_12 
REMARK    2  A    between atoms: C_3  and  N_4 
REMARK    3  A    between atoms: C_7  and  O_8 
REMARK    4  A    between atoms: C_12  and  C_13 
REMARK       I    between atoms: C_13  and  N_15 
REMARK    5  A    between atoms: N_15  and  C_16 
REMARK    6  A    between atoms: C_16  and  C_17 
REMARK    7  A    between atoms: C_17  and  C_18 
REMARK    8  A    between atoms: C_18  and  C_19 
REMARK    9  A    between atoms: C_19  and  C_20 
REMARK   10  A    between atoms: C_20  and  C_21 
ROOT
HETATM    1  C   UNK N   1      21.974  16.969   5.923  0.00  0.00     0.141 C 
ENDROOT
BRANCH   1   2
HETATM    2  C   UNK N   1      22.440  18.134   5.117  0.00  0.00    -0.046 A 
HETATM    3  C   UNK N   1      21.565  18.756   4.226  0.00  0.00     0.046 A 
HETATM    4  C   UNK N   1      22.041  19.684   3.283  0.00  0.00     0.137 A 
HETATM    5  C   UNK N   1      23.431  19.962   3.240  0.00  0.00     0.115 A 
HETATM    6  C   UNK N   1      24.299  19.336   4.148  0.00  0.00     0.042 A 
HETATM    7  I   UNK N   1      26.381  19.673   4.097  0.00  0.00    -0.042 I 
HETATM    8  C   UNK N   1      23.803  18.424   5.073  0.00  0.00     0.028 A 
BRANCH   4   9
HETATM    9  N   UNK N   1      21.125  20.288   2.367  0.00  0.00    -0.113 N 
HETATM   10  O   UNK N   1      19.933  19.774   2.163  0.00  0.00    -0.532 OA
HETATM   11  O   UNK N   1      21.433  21.289   1.787  0.00  0.00    -0.532 OA
ENDBRANCH   4   9
BRANCH   5  12
HETATM   12  O   UNK N   1      23.938  20.811   2.329  0.00  0.00    -0.357 OA
HETATM   13  H   UNK N   1      23.925  20.644   1.407  0.00  0.00     0.217 HD
ENDBRANCH   5  12
ENDBRANCH   1   2
BRANCH   1  14
HETATM   14  C   UNK N   1      21.126  17.494   7.069  0.00  0.00     0.221 C 
HETATM   15  O   UNK N   1      20.878  18.688   7.149  0.00  0.00    -0.273 OA
HETATM   16  N   UNK N   1      20.629  16.673   8.016  0.00  0.00    -0.361 N 
HETATM   17  H   UNK N   1      20.200  17.070   8.808  0.00  0.00     0.162 HD
BRANCH  16  18
HETATM   18  C   UNK N   1      20.698  15.242   7.918  0.00  0.00     0.122 C 
BRANCH  18  19
HETATM   19  C   UNK N   1      20.666  14.688   9.331  0.00  0.00     0.020 C 
BRANCH  19  20
HETATM   20  C   UNK N   1      21.870  13.779   9.561  0.00  0.00     0.002 C 
BRANCH  20  21
HETATM   21  C   UNK N   1      21.540  12.695  10.572  0.00  0.00     0.010 C 
BRANCH  21  22
HETATM   22  C   UNK N   1      22.628  11.640  10.525  0.00  0.00     0.113 C 
BRANCH  22  23
HETATM   23  C   UNK N   1      23.845  12.091  11.265  0.00  0.00     0.172 C 
HETATM   24  O   UNK N   1      23.861  12.051  12.482  0.00  0.00    -0.648 OA
HETATM   25  O   UNK N   1      24.931  12.522  10.595  0.00  0.00    -0.648 OA
ENDBRANCH  22  23
ENDBRANCH  21  22
ENDBRANCH  20  21
ENDBRANCH  19  20
ENDBRANCH  18  19
ENDBRANCH  16  18
ENDBRANCH   1  14
TORSDOF 10
ENDMDL
MODEL 8
REMARK VINA RESULT:      -6.2     10.745     13.001
REMARK  10 active torsions:
REMARK  status: ('A' for Active; 'I' for Inactive)
REMARK    1  A    between atoms: C_1  and  C_12 
REMARK    2  A    between atoms: C_3  and  N_4 
REMARK    3  A    between atoms: C_7  and  O_8 
REMARK    4  A    between atoms: C_12  and  C_13 
REMARK       I    between atoms: C_13  and  N_15 
REMARK    5  A    between atoms: N_15  and  C_16 
REMARK    6  A    between atoms: C_16  and  C_17 
REMARK    7  A    between atoms: C_17  and  C_18 
REMARK    8  A    between atoms: C_18  and  C_19 
REMARK    9  A    between atoms: C_19  and  C_20 
REMARK   10  A    between atoms: C_20  and  C_21 
ROOT
HETATM    1  C   UNK N   1      27.867  24.093  -6.489  0.00  0.00     0.141 C 
ENDROOT
BRANCH   1   2
HETATM    2  C   UNK N   1      28.618  23.162  -5.599  0.00  0.00    -0.046 A 
HETATM    3  C   UNK N   1      28.605  23.361  -4.217  0.00  0.00     0.046 A 
HETATM    4  C   UNK N   1      29.494  22.659  -3.384  0.00  0.00     0.137 A 
HETATM    5  C   UNK N   1      30.417  21.759  -3.974  0.00  0.00     0.115 A 
HETATM    6  C   UNK N   1      30.413  21.562  -5.363  0.00  0.00     0.042 A 
HETATM    7  I   UNK N   1      31.797  20.274  -6.299  0.00  0.00    -0.042 I 
HETATM    8  C   UNK N   1      29.522  22.265  -6.166  0.00  0.00     0.028 A 
BRANCH   4   9
HETATM    9  N   UNK N   1      29.475  22.901  -1.975  0.00  0.00    -0.113 N 
HETATM   10  O   UNK N   1      28.340  22.969  -1.314  0.00  0.00    -0.532 OA
HETATM   11  O   UNK N   1      30.504  23.024  -1.376  0.00  0.00    -0.532 OA
ENDBRANCH   4   9
BRANCH   5  12
HETATM   12  O   UNK N   1      31.314  21.098  -3.221  0.00  0.00    -0.357 OA
HETATM   13  H   UNK N   1      32.240  21.203  -3.312  0.00  0.00     0.217 HD
ENDBRANCH   5  12
ENDBRANCH   1   2
BRANCH   1  14
HETATM   14  C   UNK N   1      26.420  23.634  -6.545  0.00  0.00     0.221 C 
HETATM   15  O   UNK N   1      26.126  22.611  -7.147  0.00  0.00    -0.273 OA
HETATM   16  N   UNK N   1      25.432  24.326  -5.942  0.00  0.00    -0.361 N 
HETATM   17  H   UNK N   1      24.499  24.066  -6.116  0.00  0.00     0.162 HD
BRANCH  16  18
HETATM   18  C   UNK N   1      25.685  25.428  -5.057  0.00  0.00     0.122 C 
BRANCH  18  19
HETATM   19  C   UNK N   1      25.102  26.672  -5.702  0.00  0.00     0.020 C 
BRANCH  19  20
HETATM   20  C   UNK N   1      25.387  27.892  -4.832  0.00  0.00     0.002 C 
BRANCH  20  21
HETATM   21  C   UNK N   1      25.945  27.474  -3.484  0.00  0.00     0.010 C 
BRANCH  21  22
HETATM   22  C   UNK N   1      27.040  28.445  -3.087  0.00  0.00     0.113 C 
BRANCH  22  23
HETATM   23  C   UNK N   1      28.260  28.251  -3.927  0.00  0.00     0.172 C 
HETATM   24  O   UNK N   1      28.762  29.206  -4.491  0.00  0.00    -0.648 OA
HETATM   25  O   UNK N   1      28.817  27.031  -4.049  0.00  0.00    -0.648 OA
ENDBRANCH  22  23
ENDBRANCH  21  22
ENDBRANCH  20  21
ENDBRANCH  19  20
ENDBRANCH  18  19
ENDBRANCH  16  18
ENDBRANCH   1  14
TORSDOF 10
ENDMDL
MODEL 9
REMARK VINA RESULT:      -6.2      8.546     11.757
REMARK  10 active torsions:
REMARK  status: ('A' for Active; 'I' for Inactive)
REMARK    1  A    between atoms: C_1  and  C_12 
REMARK    2  A    between atoms: C_3  and  N_4 
REMARK    3  A    between atoms: C_7  and  O_8 
REMARK    4  A    between atoms: C_12  and  C_13 
REMARK       I    between atoms: C_13  and  N_15 
REMARK    5  A    between atoms: N_15  and  C_16 
REMARK    6  A    between atoms: C_16  and  C_17 
REMARK    7  A    between atoms: C_17  and  C_18 
REMARK    8  A    between atoms: C_18  and  C_19 
REMARK    9  A    between atoms: C_19  and  C_20 
REMARK   10  A    between atoms: C_20  and  C_21 
ROOT
HETATM    1  C   UNK N   1      21.352  18.028   5.531  0.00  0.00     0.141 C 
ENDROOT
BRANCH   1   2
HETATM    2  C   UNK N   1      21.239  17.969   4.045  0.00  0.00    -0.046 A 
HETATM    3  C   UNK N   1      21.247  19.150   3.301  0.00  0.00     0.046 A 
HETATM    4  C   UNK N   1      20.897  19.142   1.940  0.00  0.00     0.137 A 
HETATM    5  C   UNK N   1      20.516  17.915   1.340  0.00  0.00     0.115 A 
HETATM    6  C   UNK N   1      20.520  16.734   2.097  0.00  0.00     0.042 A 
HETATM    7  I   UNK N   1      19.914  14.890   1.270  0.00  0.00    -0.042 I 
HETATM    8  C   UNK N   1      20.874  16.767   3.441  0.00  0.00     0.028 A 
BRANCH   4   9
HETATM    9  N   UNK N   1      20.891  20.370   1.209  0.00  0.00    -0.113 N 
HETATM   10  O   UNK N   1      20.817  21.528   1.828  0.00  0.00    -0.532 OA
HETATM   11  O   UNK N   1      20.975  20.355   0.015  0.00  0.00    -0.532 OA
ENDBRANCH   4   9
BRANCH   5  12
HETATM   12  O   UNK N   1      20.132  17.866   0.052  0.00  0.00    -0.357 OA
HETATM   13  H   UNK N   1      20.573  17.354  -0.597  0.00  0.00     0.217 HD
ENDBRANCH   5  12
ENDBRANCH   1   2
BRANCH   1  14
HETATM   14  C   UNK N   1      22.396  17.016   5.969  0.00  0.00     0.221 C 
HETATM   15  O   UNK N   1      23.529  17.070   5.512  0.00  0.00    -0.273 OA
HETATM   16  N   UNK N   1      22.112  16.044   6.860  0.00  0.00    -0.361 N 
HETATM   17  H   UNK N   1      22.777  15.335   7.012  0.00  0.00     0.162 HD
BRANCH  16  18
HETATM   18  C   UNK N   1      20.880  16.002   7.596  0.00  0.00     0.122 C 
BRANCH  18  19
HETATM   19  C   UNK N   1      20.637  14.556   7.989  0.00  0.00     0.020 C 
BRANCH  19  20
HETATM   20  C   UNK N   1      20.236  14.477   9.460  0.00  0.00     0.002 C 
BRANCH  20  21
HETATM   21  C   UNK N   1      20.919  13.305  10.142  0.00  0.00     0.010 C 
BRANCH  21  22
HETATM   22  C   UNK N   1      22.413  13.408   9.904  0.00  0.00     0.113 C 
BRANCH  22  23
HETATM   23  C   UNK N   1      23.165  12.483  10.806  0.00  0.00     0.172 C 
HETATM   24  O   UNK N   1      22.601  11.982  11.762  0.00  0.00    -0.648 OA
HETATM   25  O   UNK N   1      24.454  12.186  10.557  0.00  0.00    -0.648 OA
ENDBRANCH  22  23
ENDBRANCH  21  22
ENDBRANCH  20  21
ENDBRANCH  19  20
ENDBRANCH  18  19
ENDBRANCH  16  18
ENDBRANCH   1  14
TORSDOF 10
ENDMDL
