MODEL 1
REMARK VINA RESULT:      -7.3      0.000      0.000
REMARK  4 active torsions:
REMARK  status: ('A' for Active; 'I' for Inactive)
REMARK    1  A    between atoms: C_1  and  C_15 
REMARK    2  A    between atoms: C_7  and  O_8 
REMARK    3  A    between atoms: C_9  and  C_15 
REMARK    4  A    between atoms: C_15  and  C_16 
ROOT
HETATM    1  C   UNK N   1      33.305  17.130   8.139  0.00  0.00     0.060 A 
HETATM    2  C   UNK N   1      34.397  17.927   8.590  0.00  0.00     0.297 A 
HETATM    3  O   UNK N   1      34.534  19.075   8.221  0.00  0.00    -0.259 OA
HETATM    4  O   UNK N   1      35.273  17.439   9.465  0.00  0.00    -0.279 OA
HETATM    5  C   UNK N   1      35.203  16.214   9.965  0.00  0.00     0.066 A 
HETATM    6  C   UNK N   1      34.169  15.350   9.568  0.00  0.00     0.006 A 
HETATM    7  C   UNK N   1      33.214  15.819   8.658  0.00  0.00     0.087 A 
HETATM    8  C   UNK N   1      36.216  15.811  10.995  0.00  0.00     0.066 C 
HETATM    9  C   UNK N   1      37.079  14.647  10.537  0.00  0.00     0.006 C 
HETATM   10  C   UNK N   1      36.378  13.319  10.777  0.00  0.00     0.001 C 
HETATM   11  C   UNK N   1      35.252  13.100   9.779  0.00  0.00     0.005 C 
HETATM   12  C   UNK N   1      34.045  13.961  10.129  0.00  0.00     0.044 C 
ENDROOT
BRANCH   1  13
HETATM   13  C   UNK N   1      32.182  17.649   7.204  0.00  0.00     0.060 C 
BRANCH  13  14
HETATM   14  C   UNK N   1      30.792  17.768   7.811  0.00  0.00    -0.049 A 
HETATM   15  C   UNK N   1      30.653  18.428   9.045  0.00  0.00     0.008 A 
HETATM   16  C   UNK N   1      29.403  18.533   9.659  0.00  0.00     0.001 A 
HETATM   17  C   UNK N   1      28.277  17.984   9.045  0.00  0.00     0.000 A 
HETATM   18  C   UNK N   1      28.399  17.335   7.813  0.00  0.00     0.001 A 
HETATM   19  C   UNK N   1      29.651  17.225   7.197  0.00  0.00     0.008 A 
ENDBRANCH  13  14
BRANCH  13  20
HETATM   20  C   UNK N   1      32.065  16.957   5.832  0.00  0.00     0.010 C 
HETATM   21  C   UNK N   1      33.035  17.516   4.795  0.00  0.00     0.006 C 
ENDBRANCH  13  20
ENDBRANCH   1  13
BRANCH   7  22
HETATM   22  O   UNK N   1      32.192  15.014   8.303  0.00  0.00    -0.359 OA
HETATM   23  H   UNK N   1      31.853  14.947   7.432  0.00  0.00     0.217 HD
ENDBRANCH   7  22
TORSDOF 4
ENDMDL
MODEL 2
REMARK VINA RESULT:      -7.1      0.889      2.348
REMARK  4 active torsions:
REMARK  status: ('A' for Active; 'I' for Inactive)
REMARK    1  A    between atoms: C_1  and  C_15 
REMARK    2  A    between atoms: C_7  and  O_8 
REMARK    3  A    between atoms: C_9  and  C_15 
REMARK    4  A    between atoms: C_15  and  C_16 
ROOT
HETATM    1  C   UNK N   1      32.930  16.068   8.190  0.00  0.00     0.060 A 
HETATM    2  C   UNK N   1      32.680  14.673   8.046  0.00  0.00     0.297 A 
HETATM    3  O   UNK N   1      31.794  14.263   7.324  0.00  0.00    -0.259 OA
HETATM    4  O   UNK N   1      33.443  13.782   8.674  0.00  0.00    -0.279 OA
HETATM    5  C   UNK N   1      34.459  14.111   9.458  0.00  0.00     0.066 A 
HETATM    6  C   UNK N   1      34.774  15.463   9.671  0.00  0.00     0.006 A 
HETATM    7  C   UNK N   1      34.008  16.441   9.025  0.00  0.00     0.087 A 
HETATM    8  C   UNK N   1      35.282  13.006  10.051  0.00  0.00     0.066 C 
HETATM    9  C   UNK N   1      35.232  12.997  11.571  0.00  0.00     0.006 C 
HETATM   10  C   UNK N   1      36.226  13.987  12.157  0.00  0.00     0.001 C 
HETATM   11  C   UNK N   1      35.749  15.420  11.979  0.00  0.00     0.005 C 
HETATM   12  C   UNK N   1      35.931  15.875  10.537  0.00  0.00     0.044 C 
ENDROOT
BRANCH   1  13
HETATM   13  C   UNK N   1      32.160  17.171   7.419  0.00  0.00     0.060 C 
BRANCH  13  14
HETATM   14  C   UNK N   1      30.761  17.500   7.920  0.00  0.00    -0.049 A 
HETATM   15  C   UNK N   1      30.631  18.271   9.090  0.00  0.00     0.008 A 
HETATM   16  C   UNK N   1      29.370  18.570   9.608  0.00  0.00     0.001 A 
HETATM   17  C   UNK N   1      28.223  18.108   8.961  0.00  0.00     0.000 A 
HETATM   18  C   UNK N   1      28.337  17.352   7.792  0.00  0.00     0.001 A 
HETATM   19  C   UNK N   1      29.600  17.046   7.272  0.00  0.00     0.008 A 
ENDBRANCH  13  14
BRANCH  13  20
HETATM   20  C   UNK N   1      32.114  17.024   5.886  0.00  0.00     0.010 C 
HETATM   21  C   UNK N   1      33.407  17.459   5.204  0.00  0.00     0.006 C 
ENDBRANCH  13  20
ENDBRANCH   1  13
BRANCH   7  22
HETATM   22  O   UNK N   1      34.327  17.741   9.187  0.00  0.00    -0.359 OA
HETATM   23  H   UNK N   1      34.261  18.202  10.001  0.00  0.00     0.217 HD
ENDBRANCH   7  22
TORSDOF 4
ENDMDL
MODEL 3
REMARK VINA RESULT:      -6.8      5.476      8.410
REMARK  4 active torsions:
REMARK  status: ('A' for Active; 'I' for Inactive)
REMARK    1  A    between atoms: C_1  and  C_15 
REMARK    2  A    between atoms: C_7  and  O_8 
REMARK    3  A    between atoms: C_9  and  C_15 
REMARK    4  A    between atoms: C_15  and  C_16 
ROOT
HETATM    1  C   UNK N   1      36.075  12.514  13.454  0.00  0.00     0.060 A 
HETATM    2  C   UNK N   1      37.310  11.805  13.404  0.00  0.00     0.297 A 
HETATM    3  O   UNK N   1      37.805  11.330  14.405  0.00  0.00    -0.259 OA
HETATM    4  O   UNK N   1      37.930  11.610  12.242  0.00  0.00    -0.279 OA
HETATM    5  C   UNK N   1      37.465  12.050  11.082  0.00  0.00     0.066 A 
HETATM    6  C   UNK N   1      36.261  12.772  11.034  0.00  0.00     0.006 A 
HETATM    7  C   UNK N   1      35.563  12.994  12.228  0.00  0.00     0.087 A 
HETATM    8  C   UNK N   1      38.227  11.704   9.837  0.00  0.00     0.066 C 
HETATM    9  C   UNK N   1      38.749  12.936   9.115  0.00  0.00     0.006 C 
HETATM   10  C   UNK N   1      37.674  13.547   8.229  0.00  0.00     0.001 C 
HETATM   11  C   UNK N   1      36.620  14.267   9.055  0.00  0.00     0.005 C 
HETATM   12  C   UNK N   1      35.692  13.269   9.735  0.00  0.00     0.044 C 
ENDROOT
BRANCH   1  13
HETATM   13  C   UNK N   1      35.234  12.698  14.744  0.00  0.00     0.060 C 
BRANCH  13  14
HETATM   14  C   UNK N   1      35.781  13.670  15.780  0.00  0.00    -0.049 A 
HETATM   15  C   UNK N   1      35.172  13.715  17.046  0.00  0.00     0.008 A 
HETATM   16  C   UNK N   1      35.616  14.615  18.018  0.00  0.00     0.001 A 
HETATM   17  C   UNK N   1      36.677  15.476  17.737  0.00  0.00     0.000 A 
HETATM   18  C   UNK N   1      37.299  15.433  16.486  0.00  0.00     0.001 A 
HETATM   19  C   UNK N   1      36.854  14.536  15.509  0.00  0.00     0.008 A 
ENDBRANCH  13  14
BRANCH  13  20
HETATM   20  C   UNK N   1      34.796  11.407  15.461  0.00  0.00     0.010 C 
HETATM   21  C   UNK N   1      33.761  10.607  14.676  0.00  0.00     0.006 C 
ENDBRANCH  13  20
ENDBRANCH   1  13
BRANCH   7  22
HETATM   22  O   UNK N   1      34.384  13.648  12.190  0.00  0.00    -0.359 OA
HETATM   23  H   UNK N   1      33.591  13.326  12.572  0.00  0.00     0.217 HD
ENDBRANCH   7  22
TORSDOF 4
ENDMDL
MODEL 4
REMARK VINA RESULT:      -6.8     10.241     12.215
REMARK  4 active torsions:
REMARK  status: ('A' for Active; 'I' for Inactive)
REMARK    1  A    between atoms: C_1  and  C_15 
REMARK    2  A    between atoms: C_7  and  O_8 
REMARK    3  A    between atoms: C_9  and  C_15 
REMARK    4  A    between atoms: C_15  and  C_16 
ROOT
HETATM    1  C   UNK N   1      21.396  16.963   5.456  0.00  0.00     0.060 A 
HETATM    2  C   UNK N   1      21.147  17.641   6.683  0.00  0.00     0.297 A 
HETATM    3  O   UNK N   1      21.150  18.853   6.745  0.00  0.00    -0.259 OA
HETATM    4  O   UNK N   1      20.862  16.955   7.787  0.00  0.00    -0.279 OA
HETATM    5  C   UNK N   1      20.795  15.633   7.830  0.00  0.00     0.066 A 
HETATM    6  C   UNK N   1      21.040  14.877   6.672  0.00  0.00     0.006 A 
HETATM    7  C   UNK N   1      21.332  15.551   5.480  0.00  0.00     0.087 A 
HETATM    8  C   UNK N   1      20.397  14.986   9.124  0.00  0.00     0.066 C 
HETATM    9  C   UNK N   1      21.489  14.089   9.685  0.00  0.00     0.006 C 
HETATM   10  C   UNK N   1      21.451  12.712   9.041  0.00  0.00     0.001 C 
HETATM   11  C   UNK N   1      21.978  12.754   7.615  0.00  0.00     0.005 C 
HETATM   12  C   UNK N   1      20.953  13.377   6.677  0.00  0.00     0.044 C 
ENDROOT
BRANCH   1  13
HETATM   13  C   UNK N   1      21.634  17.681   4.102  0.00  0.00     0.060 C 
BRANCH  13  14
HETATM   14  C   UNK N   1      22.900  18.519   3.989  0.00  0.00    -0.049 A 
HETATM   15  C   UNK N   1      22.847  19.722   3.264  0.00  0.00     0.008 A 
HETATM   16  C   UNK N   1      23.990  20.508   3.103  0.00  0.00     0.001 A 
HETATM   17  C   UNK N   1      25.199  20.102   3.671  0.00  0.00     0.000 A 
HETATM   18  C   UNK N   1      25.263  18.914   4.404  0.00  0.00     0.001 A 
HETATM   19  C   UNK N   1      24.119  18.123   4.563  0.00  0.00     0.008 A 
ENDBRANCH  13  14
BRANCH  13  20
HETATM   20  C   UNK N   1      20.450  18.497   3.547  0.00  0.00     0.010 C 
HETATM   21  C   UNK N   1      19.835  17.883   2.293  0.00  0.00     0.006 C 
ENDBRANCH  13  20
ENDBRANCH   1  13
BRANCH   7  22
HETATM   22  O   UNK N   1      21.527  14.839   4.352  0.00  0.00    -0.359 OA
HETATM   23  H   UNK N   1      20.878  14.720   3.686  0.00  0.00     0.217 HD
ENDBRANCH   7  22
TORSDOF 4
ENDMDL
MODEL 5
REMARK VINA RESULT:      -6.7      3.866      5.968
REMARK  4 active torsions:
REMARK  status: ('A' for Active; 'I' for Inactive)
REMARK    1  A    between atoms: C_1  and  C_15 
REMARK    2  A    between atoms: C_7  and  O_8 
REMARK    3  A    between atoms: C_9  and  C_15 
REMARK    4  A    between atoms: C_15  and  C_16 
ROOT
HETATM    1  C   UNK N   1      28.984  17.062   4.913  0.00  0.00     0.060 A 
HETATM    2  C   UNK N   1      28.637  17.058   6.294  0.00  0.00     0.297 A 
HETATM    3  O   UNK N   1      27.481  17.138   6.654  0.00  0.00    -0.259 OA
HETATM    4  O   UNK N   1      29.578  16.924   7.226  0.00  0.00    -0.279 OA
HETATM    5  C   UNK N   1      30.867  16.792   6.950  0.00  0.00     0.066 A 
HETATM    6  C   UNK N   1      31.306  16.799   5.616  0.00  0.00     0.006 A 
HETATM    7  C   UNK N   1      30.355  16.925   4.596  0.00  0.00     0.087 A 
HETATM    8  C   UNK N   1      31.817  16.581   8.092  0.00  0.00     0.066 C 
HETATM    9  C   UNK N   1      32.839  17.700   8.212  0.00  0.00     0.006 C 
HETATM   10  C   UNK N   1      34.006  17.478   7.263  0.00  0.00     0.001 C 
HETATM   11  C   UNK N   1      33.610  17.763   5.823  0.00  0.00     0.005 C 
HETATM   12  C   UNK N   1      32.757  16.631   5.264  0.00  0.00     0.044 C 
ENDROOT
BRANCH   1  13
HETATM   13  C   UNK N   1      27.947  17.110   3.759  0.00  0.00     0.060 C 
BRANCH  13  14
HETATM   14  C   UNK N   1      26.947  18.257   3.791  0.00  0.00    -0.049 A 
HETATM   15  C   UNK N   1      25.577  17.955   3.703  0.00  0.00     0.008 A 
HETATM   16  C   UNK N   1      24.622  18.974   3.694  0.00  0.00     0.001 A 
HETATM   17  C   UNK N   1      25.026  20.307   3.778  0.00  0.00     0.000 A 
HETATM   18  C   UNK N   1      26.385  20.621   3.879  0.00  0.00     0.001 A 
HETATM   19  C   UNK N   1      27.343  19.601   3.884  0.00  0.00     0.008 A 
ENDBRANCH  13  14
BRANCH  13  20
HETATM   20  C   UNK N   1      27.190  15.800   3.470  0.00  0.00     0.010 C 
HETATM   21  C   UNK N   1      27.703  15.071   2.232  0.00  0.00     0.006 C 
ENDBRANCH  13  20
ENDBRANCH   1  13
BRANCH   7  22
HETATM   22  O   UNK N   1      30.758  16.890   3.311  0.00  0.00    -0.359 OA
HETATM   23  H   UNK N   1      30.462  17.483   2.649  0.00  0.00     0.217 HD
ENDBRANCH   7  22
TORSDOF 4
ENDMDL
MODEL 6
REMARK VINA RESULT:      -6.6      8.639     11.986
REMARK  4 active torsions:
REMARK  status: ('A' for Active; 'I' for Inactive)
REMARK    1  A    between atoms: C_1  and  C_15 
REMARK    2  A    between atoms: C_7  and  O_8 
REMARK    3  A    between atoms: C_9  and  C_15 
REMARK    4  A    between atoms: C_15  and  C_16 
ROOT
HETATM    1  C   UNK N   1      35.757  11.065  18.189  0.00  0.00     0.060 A 
HETATM    2  C   UNK N   1      35.344  12.428  18.172  0.00  0.00     0.297 A 
HETATM    3  O   UNK N   1      34.890  12.961  19.163  0.00  0.00    -0.259 OA
HETATM    4  O   UNK N   1      35.486  13.163  17.072  0.00  0.00    -0.279 OA
HETATM    5  C   UNK N   1      36.002  12.698  15.943  0.00  0.00     0.066 A 
HETATM    6  C   UNK N   1      36.425  11.362  15.860  0.00  0.00     0.006 A 
HETATM    7  C   UNK N   1      36.308  10.549  16.994  0.00  0.00     0.087 A 
HETATM    8  C   UNK N   1      36.169  13.651  14.796  0.00  0.00     0.066 C 
HETATM    9  C   UNK N   1      35.351  13.246  13.581  0.00  0.00     0.006 C 
HETATM   10  C   UNK N   1      36.080  12.199  12.754  0.00  0.00     0.001 C 
HETATM   11  C   UNK N   1      36.056  10.841  13.437  0.00  0.00     0.005 C 
HETATM   12  C   UNK N   1      37.034  10.805  14.604  0.00  0.00     0.044 C 
ENDROOT
BRANCH   1  13
HETATM   13  C   UNK N   1      35.725  10.166  19.452  0.00  0.00     0.060 C 
BRANCH  13  14
HETATM   14  C   UNK N   1      34.349   9.776  19.974  0.00  0.00    -0.049 A 
HETATM   15  C   UNK N   1      33.925  10.300  21.208  0.00  0.00     0.008 A 
HETATM   16  C   UNK N   1      32.686   9.945  21.744  0.00  0.00     0.001 A 
HETATM   17  C   UNK N   1      31.853   9.066  21.051  0.00  0.00     0.000 A 
HETATM   18  C   UNK N   1      32.257   8.547  19.818  0.00  0.00     0.001 A 
HETATM   19  C   UNK N   1      33.500   8.898  19.280  0.00  0.00     0.008 A 
ENDBRANCH  13  14
BRANCH  13  20
HETATM   20  C   UNK N   1      36.591  10.627  20.639  0.00  0.00     0.010 C 
HETATM   21  C   UNK N   1      37.876   9.818  20.793  0.00  0.00     0.006 C 
ENDBRANCH  13  20
ENDBRANCH   1  13
BRANCH   7  22
HETATM   22  O   UNK N   1      36.751   9.276  16.941  0.00  0.00    -0.359 OA
HETATM   23  H   UNK N   1      37.656   9.033  16.944  0.00  0.00     0.217 HD
ENDBRANCH   7  22
TORSDOF 4
ENDMDL
MODEL 7
REMARK VINA RESULT:      -6.5     14.222     17.943
REMARK  4 active torsions:
REMARK  status: ('A' for Active; 'I' for Inactive)
REMARK    1  A    between atoms: C_1  and  C_15 
REMARK    2  A    between atoms: C_7  and  O_8 
REMARK    3  A    between atoms: C_9  and  C_15 
REMARK    4  A    between atoms: C_15  and  C_16 
ROOT
HETATM    1  C   UNK N   1      28.049  25.155  -5.335  0.00  0.00     0.060 A 
HETATM    2  C   UNK N   1      28.982  25.861  -6.148  0.00  0.00     0.297 A 
HETATM    3  O   UNK N   1      29.882  25.282  -6.720  0.00  0.00    -0.259 OA
HETATM    4  O   UNK N   1      28.860  27.173  -6.331  0.00  0.00    -0.279 OA
HETATM    5  C   UNK N   1      27.897  27.902  -5.787  0.00  0.00     0.066 A 
HETATM    6  C   UNK N   1      26.938  27.296  -4.958  0.00  0.00     0.006 A 
HETATM    7  C   UNK N   1      27.014  25.915  -4.742  0.00  0.00     0.087 A 
HETATM    8  C   UNK N   1      27.835  29.361  -6.129  0.00  0.00     0.066 C 
HETATM    9  C   UNK N   1      28.017  30.252  -4.911  0.00  0.00     0.006 C 
HETATM   10  C   UNK N   1      26.707  30.422  -4.157  0.00  0.00     0.001 C 
HETATM   11  C   UNK N   1      26.341  29.159  -3.393  0.00  0.00     0.005 C 
HETATM   12  C   UNK N   1      25.820  28.086  -4.340  0.00  0.00     0.044 C 
ENDROOT
BRANCH   1  13
HETATM   13  C   UNK N   1      28.052  23.615  -5.149  0.00  0.00     0.060 C 
BRANCH  13  14
HETATM   14  C   UNK N   1      29.227  23.026  -4.382  0.00  0.00    -0.049 A 
HETATM   15  C   UNK N   1      29.903  21.923  -4.933  0.00  0.00     0.008 A 
HETATM   16  C   UNK N   1      30.966  21.326  -4.251  0.00  0.00     0.001 A 
HETATM   17  C   UNK N   1      31.368  21.827  -3.013  0.00  0.00     0.000 A 
HETATM   18  C   UNK N   1      30.712  22.930  -2.458  0.00  0.00     0.001 A 
HETATM   19  C   UNK N   1      29.644  23.527  -3.138  0.00  0.00     0.008 A 
ENDBRANCH  13  14
BRANCH  13  20
HETATM   20  C   UNK N   1      27.819  22.775  -6.419  0.00  0.00     0.010 C 
HETATM   21  C   UNK N   1      26.369  22.797  -6.894  0.00  0.00     0.006 C 
ENDBRANCH  13  20
ENDBRANCH   1  13
BRANCH   7  22
HETATM   22  O   UNK N   1      26.075  25.314  -3.984  0.00  0.00    -0.359 OA
HETATM   23  H   UNK N   1      26.133  25.215  -3.054  0.00  0.00     0.217 HD
ENDBRANCH   7  22
TORSDOF 4
ENDMDL
MODEL 8
REMARK VINA RESULT:      -6.5     15.974     18.845
REMARK  4 active torsions:
REMARK  status: ('A' for Active; 'I' for Inactive)
REMARK    1  A    between atoms: C_1  and  C_15 
REMARK    2  A    between atoms: C_7  and  O_8 
REMARK    3  A    between atoms: C_9  and  C_15 
REMARK    4  A    between atoms: C_15  and  C_16 
ROOT
HETATM    1  C   UNK N   1      27.206  24.544  -6.705  0.00  0.00     0.060 A 
HETATM    2  C   UNK N   1      28.244  25.341  -7.268  0.00  0.00     0.297 A 
HETATM    3  O   UNK N   1      29.115  24.847  -7.955  0.00  0.00    -0.259 OA
HETATM    4  O   UNK N   1      28.259  26.659  -7.085  0.00  0.00    -0.279 OA
HETATM    5  C   UNK N   1      27.342  27.310  -6.385  0.00  0.00     0.066 A 
HETATM    6  C   UNK N   1      26.287  26.608  -5.780  0.00  0.00     0.006 A 
HETATM    7  C   UNK N   1      26.219  25.220  -5.951  0.00  0.00     0.087 A 
HETATM    8  C   UNK N   1      27.438  28.806  -6.312  0.00  0.00     0.066 C 
HETATM    9  C   UNK N   1      27.639  29.307  -4.891  0.00  0.00     0.006 C 
HETATM   10  C   UNK N   1      26.313  29.404  -4.153  0.00  0.00     0.001 C 
HETATM   11  C   UNK N   1      25.788  28.028  -3.776  0.00  0.00     0.005 C 
HETATM   12  C   UNK N   1      25.218  27.315  -4.996  0.00  0.00     0.044 C 
ENDROOT
BRANCH   1  13
HETATM   13  C   UNK N   1      27.052  23.021  -6.951  0.00  0.00     0.060 C 
BRANCH  13  14
HETATM   14  C   UNK N   1      28.281  22.162  -6.687  0.00  0.00    -0.049 A 
HETATM   15  C   UNK N   1      28.584  21.128  -7.591  0.00  0.00     0.008 A 
HETATM   16  C   UNK N   1      29.682  20.292  -7.374  0.00  0.00     0.001 A 
HETATM   17  C   UNK N   1      30.492  20.483  -6.254  0.00  0.00     0.000 A 
HETATM   18  C   UNK N   1      30.209  21.514  -5.354  0.00  0.00     0.001 A 
HETATM   19  C   UNK N   1      29.108  22.351  -5.567  0.00  0.00     0.008 A 
ENDBRANCH  13  14
BRANCH  13  20
HETATM   20  C   UNK N   1      26.441  22.608  -8.303  0.00  0.00     0.010 C 
HETATM   21  C   UNK N   1      25.049  21.997  -8.170  0.00  0.00     0.006 C 
ENDBRANCH  13  20
ENDBRANCH   1  13
BRANCH   7  22
HETATM   22  O   UNK N   1      25.188  24.539  -5.412  0.00  0.00    -0.359 OA
HETATM   23  H   UNK N   1      25.204  23.622  -5.223  0.00  0.00     0.217 HD
ENDBRANCH   7  22
TORSDOF 4
ENDMDL
MODEL 9
REMARK VINA RESULT:      -6.4     13.818     17.524
REMARK  4 active torsions:
REMARK  status: ('A' for Active; 'I' for Inactive)
REMARK    1  A    between atoms: C_1  and  C_15 
REMARK    2  A    between atoms: C_7  and  O_8 
REMARK    3  A    between atoms: C_9  and  C_15 
REMARK    4  A    between atoms: C_15  and  C_16 
ROOT
HETATM    1  C   UNK N   1      27.833  24.718  -4.627  0.00  0.00     0.060 A 
HETATM    2  C   UNK N   1      26.857  24.979  -3.623  0.00  0.00     0.297 A 
HETATM    3  O   UNK N   1      26.239  24.078  -3.096  0.00  0.00    -0.259 OA
HETATM    4  O   UNK N   1      26.631  26.224  -3.210  0.00  0.00    -0.279 OA
HETATM    5  C   UNK N   1      27.271  27.281  -3.687  0.00  0.00     0.066 A 
HETATM    6  C   UNK N   1      28.241  27.123  -4.690  0.00  0.00     0.006 A 
HETATM    7  C   UNK N   1      28.526  25.833  -5.152  0.00  0.00     0.087 A 
HETATM    8  C   UNK N   1      26.968  28.622  -3.086  0.00  0.00     0.066 C 
HETATM    9  C   UNK N   1      26.384  29.594  -4.099  0.00  0.00     0.006 C 
HETATM   10  C   UNK N   1      27.481  30.260  -4.914  0.00  0.00     0.001 C 
HETATM   11  C   UNK N   1      28.080  29.297  -5.927  0.00  0.00     0.005 C 
HETATM   12  C   UNK N   1      29.001  28.296  -5.242  0.00  0.00     0.044 C 
ENDROOT
BRANCH   1  13
HETATM   13  C   UNK N   1      28.235  23.295  -5.095  0.00  0.00     0.060 C 
BRANCH  13  14
HETATM   14  C   UNK N   1      29.499  22.709  -4.481  0.00  0.00    -0.049 A 
HETATM   15  C   UNK N   1      30.181  21.700  -5.184  0.00  0.00     0.008 A 
HETATM   16  C   UNK N   1      31.326  21.108  -4.646  0.00  0.00     0.001 A 
HETATM   17  C   UNK N   1      31.805  21.520  -3.402  0.00  0.00     0.000 A 
HETATM   18  C   UNK N   1      31.143  22.530  -2.698  0.00  0.00     0.001 A 
HETATM   19  C   UNK N   1      29.993  23.123  -3.233  0.00  0.00     0.008 A 
ENDBRANCH  13  14
BRANCH  13  20
HETATM   20  C   UNK N   1      28.272  23.063  -6.618  0.00  0.00     0.010 C 
HETATM   21  C   UNK N   1      26.937  22.591  -7.184  0.00  0.00     0.006 C 
ENDBRANCH  13  20
ENDBRANCH   1  13
BRANCH   7  22
HETATM   22  O   UNK N   1      29.485  25.663  -6.084  0.00  0.00    -0.359 OA
HETATM   23  H   UNK N   1      30.123  24.977  -6.064  0.00  0.00     0.217 HD
ENDBRANCH   7  22
TORSDOF 4
ENDMDL
