MODEL 1
REMARK VINA RESULT:      -6.8      0.000      0.000
REMARK  16 active torsions:
REMARK  status: ('A' for Active; 'I' for Inactive)
REMARK       I    between atoms: N_1  and  C_2 
REMARK    1  A    between atoms: C_15  and  N_1 
REMARK    2  A    between atoms: C_2  and  C_4 
REMARK    3  A    between atoms: C_4  and  C_5 
REMARK    4  A    between atoms: C_5  and  C_6 
REMARK    5  A    between atoms: C_6  and  C_7 
REMARK    6  A    between atoms: C_7  and  C_8 
REMARK    7  A    between atoms: C_8  and  C_9 
REMARK    8  A    between atoms: C_9  and  C_10 
REMARK    9  A    between atoms: C_10  and  C_11 
REMARK   10  A    between atoms: C_11  and  C_12 
REMARK   11  A    between atoms: C_12  and  C_13 
REMARK   12  A    between atoms: C_15  and  C_16 
REMARK   13  A    between atoms: C_15  and  C_24 
REMARK   14  A    between atoms: C_16  and  C_17 
REMARK   15  A    between atoms: C_20  and  O_23 
REMARK   16  A    between atoms: C_24  and  O_25 
ROOT
HETATM    1  N   UNK N   1      34.273  16.197   9.218  0.00  0.00    -0.346 N 
HETATM    2  C   UNK N   1      35.240  16.229  10.166  0.00  0.00     0.218 C 
HETATM    3  O   UNK N   1      35.571  17.288  10.688  0.00  0.00    -0.274 OA
HETATM    4  H   UNK N   1      34.044  15.317   8.839  0.00  0.00     0.163 HD
ENDROOT
BRANCH   1   5
HETATM    5  C   UNK N   1      33.547  17.347   8.713  0.00  0.00     0.186 C 
BRANCH   5   6
HETATM    6  C   UNK N   1      32.381  16.779   7.895  0.00  0.00     0.074 C 
BRANCH   6   7
HETATM    7  C   UNK N   1      31.056  17.473   8.018  0.00  0.00    -0.056 A 
HETATM    8  C   UNK N   1      30.782  18.202   9.181  0.00  0.00     0.010 A 
HETATM    9  C   UNK N   1      29.523  18.777   9.373  0.00  0.00     0.037 A 
HETATM   10  C   UNK N   1      28.528  18.621   8.403  0.00  0.00     0.065 A 
HETATM   11  C   UNK N   1      28.798  17.901   7.235  0.00  0.00     0.037 A 
HETATM   12  C   UNK N   1      30.058  17.322   7.046  0.00  0.00     0.010 A 
BRANCH  10  13
HETATM   13  O   UNK N   1      27.312  19.155   8.598  0.00  0.00    -0.361 OA
HETATM   14  H   UNK N   1      26.553  18.624   8.746  0.00  0.00     0.217 HD
ENDBRANCH  10  13
ENDBRANCH   6   7
ENDBRANCH   5   6
BRANCH   5  15
HETATM   15  C   UNK N   1      34.450  18.224   7.864  0.00  0.00     0.163 C 
HETATM   16  O   UNK N   1      34.475  18.087   6.652  0.00  0.00    -0.648 OA
BRANCH  15  17
HETATM   17  O   UNK N   1      35.228  19.167   8.432  0.00  0.00    -0.775 OA
HETATM   18  H   UNK N   1      35.224  20.104   8.467  0.00  0.00     0.167 HD
ENDBRANCH  15  17
ENDBRANCH   5  15
ENDBRANCH   1   5
BRANCH   2  19
HETATM   19  C   UNK N   1      35.870  14.934  10.595  0.00  0.00     0.103 C 
BRANCH  19  20
HETATM   20  C   UNK N   1      35.296  14.399  11.901  0.00  0.00     0.009 C 
BRANCH  20  21
HETATM   21  C   UNK N   1      36.217  14.705  13.076  0.00  0.00     0.000 C 
BRANCH  21  22
HETATM   22  C   UNK N   1      35.917  13.834  14.292  0.00  0.00     0.000 C 
BRANCH  22  23
HETATM   23  C   UNK N   1      36.768  12.573  14.291  0.00  0.00     0.000 C 
BRANCH  23  24
HETATM   24  C   UNK N   1      36.564  11.807  15.582  0.00  0.00     0.000 C 
BRANCH  24  25
HETATM   25  C   UNK N   1      35.093  11.814  15.943  0.00  0.00     0.000 C 
BRANCH  25  26
HETATM   26  C   UNK N   1      34.474  10.495  15.536  0.00  0.00     0.000 C 
BRANCH  26  27
HETATM   27  C   UNK N   1      33.686  10.680  14.255  0.00  0.00    -0.000 C 
BRANCH  27  28
HETATM   28  C   UNK N   1      34.339   9.920  13.120  0.00  0.00    -0.005 C 
HETATM   29  C   UNK N   1      34.470  10.833  11.920  0.00  0.00     0.005 C 
ENDBRANCH  27  28
ENDBRANCH  26  27
ENDBRANCH  25  26
ENDBRANCH  24  25
ENDBRANCH  23  24
ENDBRANCH  22  23
ENDBRANCH  21  22
ENDBRANCH  20  21
ENDBRANCH  19  20
ENDBRANCH   2  19
TORSDOF 16
ENDMDL
MODEL 2
REMARK VINA RESULT:      -6.7      0.852      1.728
REMARK  16 active torsions:
REMARK  status: ('A' for Active; 'I' for Inactive)
REMARK       I    between atoms: N_1  and  C_2 
REMARK    1  A    between atoms: C_15  and  N_1 
REMARK    2  A    between atoms: C_2  and  C_4 
REMARK    3  A    between atoms: C_4  and  C_5 
REMARK    4  A    between atoms: C_5  and  C_6 
REMARK    5  A    between atoms: C_6  and  C_7 
REMARK    6  A    between atoms: C_7  and  C_8 
REMARK    7  A    between atoms: C_8  and  C_9 
REMARK    8  A    between atoms: C_9  and  C_10 
REMARK    9  A    between atoms: C_10  and  C_11 
REMARK   10  A    between atoms: C_11  and  C_12 
REMARK   11  A    between atoms: C_12  and  C_13 
REMARK   12  A    between atoms: C_15  and  C_16 
REMARK   13  A    between atoms: C_15  and  C_24 
REMARK   14  A    between atoms: C_16  and  C_17 
REMARK   15  A    between atoms: C_20  and  O_23 
REMARK   16  A    between atoms: C_24  and  O_25 
ROOT
HETATM    1  N   UNK N   1      34.246  16.213   9.140  0.00  0.00    -0.346 N 
HETATM    2  C   UNK N   1      35.229  16.259  10.071  0.00  0.00     0.218 C 
HETATM    3  O   UNK N   1      35.549  17.322  10.591  0.00  0.00    -0.274 OA
HETATM    4  H   UNK N   1      34.026  15.330   8.761  0.00  0.00     0.163 HD
ENDROOT
BRANCH   1   5
HETATM    5  C   UNK N   1      33.490  17.351   8.652  0.00  0.00     0.186 C 
BRANCH   5   6
HETATM    6  C   UNK N   1      32.327  16.766   7.843  0.00  0.00     0.074 C 
BRANCH   6   7
HETATM    7  C   UNK N   1      30.970  17.369   8.058  0.00  0.00    -0.056 A 
HETATM    8  C   UNK N   1      29.989  17.190   7.075  0.00  0.00     0.010 A 
HETATM    9  C   UNK N   1      28.748  17.821   7.195  0.00  0.00     0.037 A 
HETATM   10  C   UNK N   1      28.482  18.639   8.297  0.00  0.00     0.065 A 
HETATM   11  C   UNK N   1      29.455  18.814   9.287  0.00  0.00     0.037 A 
HETATM   12  C   UNK N   1      30.699  18.186   9.164  0.00  0.00     0.010 A 
BRANCH  10  13
HETATM   13  O   UNK N   1      27.298  19.261   8.401  0.00  0.00    -0.361 OA
HETATM   14  H   UNK N   1      27.176  20.009   8.954  0.00  0.00     0.217 HD
ENDBRANCH  10  13
ENDBRANCH   6   7
ENDBRANCH   5   6
BRANCH   5  15
HETATM   15  C   UNK N   1      34.364  18.254   7.799  0.00  0.00     0.163 C 
HETATM   16  O   UNK N   1      34.432  18.082   6.594  0.00  0.00    -0.648 OA
BRANCH  15  17
HETATM   17  O   UNK N   1      35.071  19.257   8.358  0.00  0.00    -0.775 OA
HETATM   18  H   UNK N   1      35.848  19.317   8.878  0.00  0.00     0.167 HD
ENDBRANCH  15  17
ENDBRANCH   5  15
ENDBRANCH   1   5
BRANCH   2  19
HETATM   19  C   UNK N   1      35.890  14.974  10.484  0.00  0.00     0.103 C 
BRANCH  19  20
HETATM   20  C   UNK N   1      35.012  14.120  11.389  0.00  0.00     0.009 C 
BRANCH  20  21
HETATM   21  C   UNK N   1      35.691  12.800  11.732  0.00  0.00     0.000 C 
BRANCH  21  22
HETATM   22  C   UNK N   1      36.604  12.915  12.948  0.00  0.00     0.000 C 
BRANCH  22  23
HETATM   23  C   UNK N   1      35.919  13.659  14.085  0.00  0.00     0.000 C 
BRANCH  23  24
HETATM   24  C   UNK N   1      36.786  13.628  15.325  0.00  0.00     0.000 C 
BRANCH  24  25
HETATM   25  C   UNK N   1      35.907  13.728  16.555  0.00  0.00     0.000 C 
BRANCH  25  26
HETATM   26  C   UNK N   1      34.861  12.636  16.509  0.00  0.00     0.000 C 
BRANCH  26  27
HETATM   27  C   UNK N   1      35.512  11.300  16.801  0.00  0.00    -0.000 C 
BRANCH  27  28
HETATM   28  C   UNK N   1      34.644  10.167  16.293  0.00  0.00    -0.005 C 
HETATM   29  C   UNK N   1      34.509  10.280  14.789  0.00  0.00     0.005 C 
ENDBRANCH  27  28
ENDBRANCH  26  27
ENDBRANCH  25  26
ENDBRANCH  24  25
ENDBRANCH  23  24
ENDBRANCH  22  23
ENDBRANCH  21  22
ENDBRANCH  20  21
ENDBRANCH  19  20
ENDBRANCH   2  19
TORSDOF 16
ENDMDL
MODEL 3
REMARK VINA RESULT:      -6.5      0.886      2.097
REMARK  16 active torsions:
REMARK  status: ('A' for Active; 'I' for Inactive)
REMARK       I    between atoms: N_1  and  C_2 
REMARK    1  A    between atoms: C_15  and  N_1 
REMARK    2  A    between atoms: C_2  and  C_4 
REMARK    3  A    between atoms: C_4  and  C_5 
REMARK    4  A    between atoms: C_5  and  C_6 
REMARK    5  A    between atoms: C_6  and  C_7 
REMARK    6  A    between atoms: C_7  and  C_8 
REMARK    7  A    between atoms: C_8  and  C_9 
REMARK    8  A    between atoms: C_9  and  C_10 
REMARK    9  A    between atoms: C_10  and  C_11 
REMARK   10  A    between atoms: C_11  and  C_12 
REMARK   11  A    between atoms: C_12  and  C_13 
REMARK   12  A    between atoms: C_15  and  C_16 
REMARK   13  A    between atoms: C_15  and  C_24 
REMARK   14  A    between atoms: C_16  and  C_17 
REMARK   15  A    between atoms: C_20  and  O_23 
REMARK   16  A    between atoms: C_24  and  O_25 
ROOT
HETATM    1  N   UNK N   1      34.352  16.141   9.268  0.00  0.00    -0.346 N 
HETATM    2  C   UNK N   1      35.137  16.141  10.373  0.00  0.00     0.218 C 
HETATM    3  O   UNK N   1      35.229  17.141  11.075  0.00  0.00    -0.274 OA
HETATM    4  H   UNK N   1      34.310  15.307   8.746  0.00  0.00     0.163 HD
ENDROOT
BRANCH   1   5
HETATM    5  C   UNK N   1      33.568  17.264   8.788  0.00  0.00     0.186 C 
BRANCH   5   6
HETATM    6  C   UNK N   1      32.392  16.655   8.016  0.00  0.00     0.074 C 
BRANCH   6   7
HETATM    7  C   UNK N   1      31.086  17.391   8.065  0.00  0.00    -0.056 A 
HETATM    8  C   UNK N   1      30.764  18.119   9.217  0.00  0.00     0.010 A 
HETATM    9  C   UNK N   1      29.515  18.734   9.337  0.00  0.00     0.037 A 
HETATM   10  C   UNK N   1      28.578  18.621   8.305  0.00  0.00     0.065 A 
HETATM   11  C   UNK N   1      28.897  17.903   7.148  0.00  0.00     0.037 A 
HETATM   12  C   UNK N   1      30.146  17.284   7.031  0.00  0.00     0.010 A 
BRANCH  10  13
HETATM   13  O   UNK N   1      27.371  19.194   8.430  0.00  0.00    -0.361 OA
HETATM   14  H   UNK N   1      26.620  18.713   8.720  0.00  0.00     0.217 HD
ENDBRANCH  10  13
ENDBRANCH   6   7
ENDBRANCH   5   6
BRANCH   5  15
HETATM   15  C   UNK N   1      34.408  18.168   7.903  0.00  0.00     0.163 C 
HETATM   16  O   UNK N   1      35.026  19.101   8.389  0.00  0.00    -0.648 OA
BRANCH  15  17
HETATM   17  O   UNK N   1      34.489  17.952   6.575  0.00  0.00    -0.775 OA
HETATM   18  H   UNK N   1      34.278  17.241   6.000  0.00  0.00     0.167 HD
ENDBRANCH  15  17
ENDBRANCH   5  15
ENDBRANCH   1   5
BRANCH   2  19
HETATM   19  C   UNK N   1      35.858  14.876  10.743  0.00  0.00     0.103 C 
BRANCH  19  20
HETATM   20  C   UNK N   1      35.345  14.258  12.037  0.00  0.00     0.009 C 
BRANCH  20  21
HETATM   21  C   UNK N   1      34.981  12.792  11.843  0.00  0.00     0.000 C 
BRANCH  21  22
HETATM   22  C   UNK N   1      36.117  11.853  12.236  0.00  0.00     0.000 C 
BRANCH  22  23
HETATM   23  C   UNK N   1      35.619  10.729  13.133  0.00  0.00     0.000 C 
BRANCH  23  24
HETATM   24  C   UNK N   1      34.108  10.769  13.229  0.00  0.00     0.000 C 
BRANCH  24  25
HETATM   25  C   UNK N   1      33.696  10.720  14.686  0.00  0.00     0.000 C 
BRANCH  25  26
HETATM   26  C   UNK N   1      34.860  10.225  15.516  0.00  0.00     0.000 C 
BRANCH  26  27
HETATM   27  C   UNK N   1      35.011  11.098  16.745  0.00  0.00    -0.000 C 
BRANCH  27  28
HETATM   28  C   UNK N   1      35.121  12.555  16.347  0.00  0.00    -0.005 C 
HETATM   29  C   UNK N   1      35.104  13.414  17.594  0.00  0.00     0.005 C 
ENDBRANCH  27  28
ENDBRANCH  26  27
ENDBRANCH  25  26
ENDBRANCH  24  25
ENDBRANCH  23  24
ENDBRANCH  22  23
ENDBRANCH  21  22
ENDBRANCH  20  21
ENDBRANCH  19  20
ENDBRANCH   2  19
TORSDOF 16
ENDMDL
MODEL 4
REMARK VINA RESULT:      -6.1     17.216     20.143
REMARK  16 active torsions:
REMARK  status: ('A' for Active; 'I' for Inactive)
REMARK       I    between atoms: N_1  and  C_2 
REMARK    1  A    between atoms: C_15  and  N_1 
REMARK    2  A    between atoms: C_2  and  C_4 
REMARK    3  A    between atoms: C_4  and  C_5 
REMARK    4  A    between atoms: C_5  and  C_6 
REMARK    5  A    between atoms: C_6  and  C_7 
REMARK    6  A    between atoms: C_7  and  C_8 
REMARK    7  A    between atoms: C_8  and  C_9 
REMARK    8  A    between atoms: C_9  and  C_10 
REMARK    9  A    between atoms: C_10  and  C_11 
REMARK   10  A    between atoms: C_11  and  C_12 
REMARK   11  A    between atoms: C_12  and  C_13 
REMARK   12  A    between atoms: C_15  and  C_16 
REMARK   13  A    between atoms: C_15  and  C_24 
REMARK   14  A    between atoms: C_16  and  C_17 
REMARK   15  A    between atoms: C_20  and  O_23 
REMARK   16  A    between atoms: C_24  and  O_25 
ROOT
HETATM    1  N   UNK N   1      27.781  22.737  -6.708  0.00  0.00    -0.346 N 
HETATM    2  C   UNK N   1      29.045  23.116  -7.012  0.00  0.00     0.218 C 
HETATM    3  O   UNK N   1      29.265  24.204  -7.534  0.00  0.00    -0.274 OA
HETATM    4  H   UNK N   1      27.665  21.855  -6.285  0.00  0.00     0.163 HD
ENDROOT
BRANCH   1   5
HETATM    5  C   UNK N   1      26.582  23.516  -6.956  0.00  0.00     0.186 C 
BRANCH   5   6
HETATM    6  C   UNK N   1      25.932  23.732  -5.584  0.00  0.00     0.074 C 
BRANCH   6   7
HETATM    7  C   UNK N   1      25.873  25.139  -5.067  0.00  0.00    -0.056 A 
HETATM    8  C   UNK N   1      26.437  25.423  -3.818  0.00  0.00     0.010 A 
HETATM    9  C   UNK N   1      26.313  26.699  -3.261  0.00  0.00     0.037 A 
HETATM   10  C   UNK N   1      25.618  27.697  -3.950  0.00  0.00     0.065 A 
HETATM   11  C   UNK N   1      25.060  27.423  -5.202  0.00  0.00     0.037 A 
HETATM   12  C   UNK N   1      25.182  26.144  -5.757  0.00  0.00     0.010 A 
BRANCH  10  13
HETATM   13  O   UNK N   1      25.480  28.917  -3.405  0.00  0.00    -0.361 OA
HETATM   14  H   UNK N   1      24.896  29.558  -3.762  0.00  0.00     0.217 HD
ENDBRANCH  10  13
ENDBRANCH   6   7
ENDBRANCH   5   6
BRANCH   5  15
HETATM   15  C   UNK N   1      25.650  22.786  -7.907  0.00  0.00     0.163 C 
HETATM   16  O   UNK N   1      25.768  21.584  -8.079  0.00  0.00    -0.648 OA
BRANCH  15  17
HETATM   17  O   UNK N   1      24.680  23.449  -8.567  0.00  0.00    -0.775 OA
HETATM   18  H   UNK N   1      23.768  23.307  -8.732  0.00  0.00     0.167 HD
ENDBRANCH  15  17
ENDBRANCH   5  15
ENDBRANCH   1   5
BRANCH   2  19
HETATM   19  C   UNK N   1      30.178  22.195  -6.657  0.00  0.00     0.103 C 
BRANCH  19  20
HETATM   20  C   UNK N   1      29.949  21.450  -5.349  0.00  0.00     0.009 C 
BRANCH  20  21
HETATM   21  C   UNK N   1      30.872  21.963  -4.251  0.00  0.00     0.000 C 
BRANCH  21  22
HETATM   22  C   UNK N   1      30.114  22.354  -2.988  0.00  0.00     0.000 C 
BRANCH  22  23
HETATM   23  C   UNK N   1      29.545  23.762  -3.097  0.00  0.00     0.000 C 
BRANCH  23  24
HETATM   24  C   UNK N   1      30.610  24.715  -3.596  0.00  0.00     0.000 C 
BRANCH  24  25
HETATM   25  C   UNK N   1      29.975  25.743  -4.510  0.00  0.00     0.000 C 
BRANCH  25  26
HETATM   26  C   UNK N   1      29.963  27.087  -3.816  0.00  0.00     0.000 C 
BRANCH  26  27
HETATM   27  C   UNK N   1      29.454  28.145  -4.774  0.00  0.00    -0.000 C 
BRANCH  27  28
HETATM   28  C   UNK N   1      28.996  27.507  -6.070  0.00  0.00    -0.005 C 
HETATM   29  C   UNK N   1      28.025  28.437  -6.766  0.00  0.00     0.005 C 
ENDBRANCH  27  28
ENDBRANCH  26  27
ENDBRANCH  25  26
ENDBRANCH  24  25
ENDBRANCH  23  24
ENDBRANCH  22  23
ENDBRANCH  21  22
ENDBRANCH  20  21
ENDBRANCH  19  20
ENDBRANCH   2  19
TORSDOF 16
ENDMDL
MODEL 5
REMARK VINA RESULT:      -6.0      5.109      8.370
REMARK  16 active torsions:
REMARK  status: ('A' for Active; 'I' for Inactive)
REMARK       I    between atoms: N_1  and  C_2 
REMARK    1  A    between atoms: C_15  and  N_1 
REMARK    2  A    between atoms: C_2  and  C_4 
REMARK    3  A    between atoms: C_4  and  C_5 
REMARK    4  A    between atoms: C_5  and  C_6 
REMARK    5  A    between atoms: C_6  and  C_7 
REMARK    6  A    between atoms: C_7  and  C_8 
REMARK    7  A    between atoms: C_8  and  C_9 
REMARK    8  A    between atoms: C_9  and  C_10 
REMARK    9  A    between atoms: C_10  and  C_11 
REMARK   10  A    between atoms: C_11  and  C_12 
REMARK   11  A    between atoms: C_12  and  C_13 
REMARK   12  A    between atoms: C_15  and  C_16 
REMARK   13  A    between atoms: C_15  and  C_24 
REMARK   14  A    between atoms: C_16  and  C_17 
REMARK   15  A    between atoms: C_20  and  O_23 
REMARK   16  A    between atoms: C_24  and  O_25 
ROOT
HETATM    1  N   UNK N   1      34.182  16.412   6.875  0.00  0.00    -0.346 N 
HETATM    2  C   UNK N   1      33.683  15.278   6.328  0.00  0.00     0.218 C 
HETATM    3  O   UNK N   1      32.686  14.742   6.797  0.00  0.00    -0.274 OA
HETATM    4  H   UNK N   1      34.981  16.803   6.452  0.00  0.00     0.163 HD
ENDROOT
BRANCH   1   5
HETATM    5  C   UNK N   1      33.641  17.100   8.033  0.00  0.00     0.186 C 
BRANCH   5   6
HETATM    6  C   UNK N   1      32.584  18.068   7.489  0.00  0.00     0.074 C 
BRANCH   6   7
HETATM    7  C   UNK N   1      31.199  17.961   8.056  0.00  0.00    -0.056 A 
HETATM    8  C   UNK N   1      30.228  17.255   7.336  0.00  0.00     0.010 A 
HETATM    9  C   UNK N   1      28.905  17.219   7.783  0.00  0.00     0.037 A 
HETATM   10  C   UNK N   1      28.544  17.893   8.954  0.00  0.00     0.065 A 
HETATM   11  C   UNK N   1      29.511  18.592   9.683  0.00  0.00     0.037 A 
HETATM   12  C   UNK N   1      30.835  18.632   9.231  0.00  0.00     0.010 A 
BRANCH  10  13
HETATM   13  O   UNK N   1      27.269  17.876   9.372  0.00  0.00    -0.361 OA
HETATM   14  H   UNK N   1      26.569  18.217   8.849  0.00  0.00     0.217 HD
ENDBRANCH  10  13
ENDBRANCH   6   7
ENDBRANCH   5   6
BRANCH   5  15
HETATM   15  C   UNK N   1      34.737  17.836   8.784  0.00  0.00     0.163 C 
HETATM   16  O   UNK N   1      35.263  17.323   9.758  0.00  0.00    -0.648 OA
BRANCH  15  17
HETATM   17  O   UNK N   1      35.147  19.056   8.385  0.00  0.00    -0.775 OA
HETATM   18  H   UNK N   1      35.614  19.395   7.646  0.00  0.00     0.167 HD
ENDBRANCH  15  17
ENDBRANCH   5  15
ENDBRANCH   1   5
BRANCH   2  19
HETATM   19  C   UNK N   1      34.352  14.714   5.107  0.00  0.00     0.103 C 
BRANCH  19  20
HETATM   20  C   UNK N   1      33.443  14.703   3.884  0.00  0.00     0.009 C 
BRANCH  20  21
HETATM   21  C   UNK N   1      33.321  16.093   3.273  0.00  0.00     0.000 C 
BRANCH  21  22
HETATM   22  C   UNK N   1      32.100  16.849   3.787  0.00  0.00     0.000 C 
BRANCH  22  23
HETATM   23  C   UNK N   1      30.854  15.976   3.749  0.00  0.00     0.000 C 
BRANCH  23  24
HETATM   24  C   UNK N   1      29.658  16.794   3.310  0.00  0.00     0.000 C 
BRANCH  24  25
HETATM   25  C   UNK N   1      28.442  16.374   4.109  0.00  0.00     0.000 C 
BRANCH  25  26
HETATM   26  C   UNK N   1      27.420  17.490   4.084  0.00  0.00     0.000 C 
BRANCH  26  27
HETATM   27  C   UNK N   1      28.066  18.776   4.556  0.00  0.00    -0.000 C 
BRANCH  27  28
HETATM   28  C   UNK N   1      27.048  19.650   5.259  0.00  0.00    -0.005 C 
HETATM   29  C   UNK N   1      27.744  20.458   6.334  0.00  0.00     0.005 C 
ENDBRANCH  27  28
ENDBRANCH  26  27
ENDBRANCH  25  26
ENDBRANCH  24  25
ENDBRANCH  23  24
ENDBRANCH  22  23
ENDBRANCH  21  22
ENDBRANCH  20  21
ENDBRANCH  19  20
ENDBRANCH   2  19
TORSDOF 16
ENDMDL
MODEL 6
REMARK VINA RESULT:      -5.9      4.918      9.023
REMARK  16 active torsions:
REMARK  status: ('A' for Active; 'I' for Inactive)
REMARK       I    between atoms: N_1  and  C_2 
REMARK    1  A    between atoms: C_15  and  N_1 
REMARK    2  A    between atoms: C_2  and  C_4 
REMARK    3  A    between atoms: C_4  and  C_5 
REMARK    4  A    between atoms: C_5  and  C_6 
REMARK    5  A    between atoms: C_6  and  C_7 
REMARK    6  A    between atoms: C_7  and  C_8 
REMARK    7  A    between atoms: C_8  and  C_9 
REMARK    8  A    between atoms: C_9  and  C_10 
REMARK    9  A    between atoms: C_10  and  C_11 
REMARK   10  A    between atoms: C_11  and  C_12 
REMARK   11  A    between atoms: C_12  and  C_13 
REMARK   12  A    between atoms: C_15  and  C_16 
REMARK   13  A    between atoms: C_15  and  C_24 
REMARK   14  A    between atoms: C_16  and  C_17 
REMARK   15  A    between atoms: C_20  and  O_23 
REMARK   16  A    between atoms: C_24  and  O_25 
ROOT
HETATM    1  N   UNK N   1      33.402  17.466   6.668  0.00  0.00    -0.346 N 
HETATM    2  C   UNK N   1      33.748  17.056   5.424  0.00  0.00     0.218 C 
HETATM    3  O   UNK N   1      34.554  16.146   5.266  0.00  0.00    -0.274 OA
HETATM    4  H   UNK N   1      32.746  18.196   6.735  0.00  0.00     0.163 HD
ENDROOT
BRANCH   1   5
HETATM    5  C   UNK N   1      33.918  16.921   7.911  0.00  0.00     0.186 C 
BRANCH   5   6
HETATM    6  C   UNK N   1      32.693  16.441   8.698  0.00  0.00     0.074 C 
BRANCH   6   7
HETATM    7  C   UNK N   1      31.364  17.028   8.323  0.00  0.00    -0.056 A 
HETATM    8  C   UNK N   1      30.927  18.183   8.983  0.00  0.00     0.010 A 
HETATM    9  C   UNK N   1      29.653  18.699   8.732  0.00  0.00     0.037 A 
HETATM   10  C   UNK N   1      28.807  18.060   7.820  0.00  0.00     0.065 A 
HETATM   11  C   UNK N   1      29.242  16.913   7.150  0.00  0.00     0.037 A 
HETATM   12  C   UNK N   1      30.515  16.394   7.406  0.00  0.00     0.010 A 
BRANCH  10  13
HETATM   13  O   UNK N   1      27.575  18.545   7.594  0.00  0.00    -0.361 OA
HETATM   14  H   UNK N   1      26.817  17.993   7.590  0.00  0.00     0.217 HD
ENDBRANCH  10  13
ENDBRANCH   6   7
ENDBRANCH   5   6
BRANCH   5  15
HETATM   15  C   UNK N   1      34.698  17.974   8.679  0.00  0.00     0.163 C 
HETATM   16  O   UNK N   1      34.822  19.098   8.224  0.00  0.00    -0.648 OA
BRANCH  15  17
HETATM   17  O   UNK N   1      35.257  17.685   9.871  0.00  0.00    -0.775 OA
HETATM   18  H   UNK N   1      35.138  17.018  10.520  0.00  0.00     0.167 HD
ENDBRANCH  15  17
ENDBRANCH   5  15
ENDBRANCH   1   5
BRANCH   2  19
HETATM   19  C   UNK N   1      33.092  17.712   4.243  0.00  0.00     0.103 C 
BRANCH  19  20
HETATM   20  C   UNK N   1      31.593  17.448   4.174  0.00  0.00     0.009 C 
BRANCH  20  21
HETATM   21  C   UNK N   1      31.277  16.305   3.218  0.00  0.00     0.000 C 
BRANCH  21  22
HETATM   22  C   UNK N   1      29.839  16.352   2.710  0.00  0.00     0.000 C 
BRANCH  22  23
HETATM   23  C   UNK N   1      28.883  15.701   3.699  0.00  0.00     0.000 C 
BRANCH  23  24
HETATM   24  C   UNK N   1      27.450  15.976   3.296  0.00  0.00     0.000 C 
BRANCH  24  25
HETATM   25  C   UNK N   1      26.764  16.770   4.389  0.00  0.00     0.000 C 
BRANCH  25  26
HETATM   26  C   UNK N   1      26.342  18.114   3.838  0.00  0.00     0.000 C 
BRANCH  26  27
HETATM   27  C   UNK N   1      27.435  19.131   4.098  0.00  0.00    -0.000 C 
BRANCH  27  28
HETATM   28  C   UNK N   1      26.863  20.534   4.088  0.00  0.00    -0.005 C 
HETATM   29  C   UNK N   1      26.451  20.913   5.495  0.00  0.00     0.005 C 
ENDBRANCH  27  28
ENDBRANCH  26  27
ENDBRANCH  25  26
ENDBRANCH  24  25
ENDBRANCH  23  24
ENDBRANCH  22  23
ENDBRANCH  21  22
ENDBRANCH  20  21
ENDBRANCH  19  20
ENDBRANCH   2  19
TORSDOF 16
ENDMDL
MODEL 7
REMARK VINA RESULT:      -5.8     17.061     19.857
REMARK  16 active torsions:
REMARK  status: ('A' for Active; 'I' for Inactive)
REMARK       I    between atoms: N_1  and  C_2 
REMARK    1  A    between atoms: C_15  and  N_1 
REMARK    2  A    between atoms: C_2  and  C_4 
REMARK    3  A    between atoms: C_4  and  C_5 
REMARK    4  A    between atoms: C_5  and  C_6 
REMARK    5  A    between atoms: C_6  and  C_7 
REMARK    6  A    between atoms: C_7  and  C_8 
REMARK    7  A    between atoms: C_8  and  C_9 
REMARK    8  A    between atoms: C_9  and  C_10 
REMARK    9  A    between atoms: C_10  and  C_11 
REMARK   10  A    between atoms: C_11  and  C_12 
REMARK   11  A    between atoms: C_12  and  C_13 
REMARK   12  A    between atoms: C_15  and  C_16 
REMARK   13  A    between atoms: C_15  and  C_24 
REMARK   14  A    between atoms: C_16  and  C_17 
REMARK   15  A    between atoms: C_20  and  O_23 
REMARK   16  A    between atoms: C_24  and  O_25 
ROOT
HETATM    1  N   UNK N   1      27.522  23.984  -7.496  0.00  0.00    -0.346 N 
HETATM    2  C   UNK N   1      28.191  25.054  -7.990  0.00  0.00     0.218 C 
HETATM    3  O   UNK N   1      27.588  26.062  -8.340  0.00  0.00    -0.274 OA
HETATM    4  H   UNK N   1      28.058  23.204  -7.224  0.00  0.00     0.163 HD
ENDROOT
BRANCH   1   5
HETATM    5  C   UNK N   1      26.083  23.888  -7.336  0.00  0.00     0.186 C 
BRANCH   5   6
HETATM    6  C   UNK N   1      25.832  23.845  -5.824  0.00  0.00     0.074 C 
BRANCH   6   7
HETATM    7  C   UNK N   1      25.752  25.160  -5.105  0.00  0.00    -0.056 A 
HETATM    8  C   UNK N   1      25.133  26.241  -5.743  0.00  0.00     0.010 A 
HETATM    9  C   UNK N   1      25.129  27.505  -5.146  0.00  0.00     0.037 A 
HETATM   10  C   UNK N   1      25.750  27.695  -3.907  0.00  0.00     0.065 A 
HETATM   11  C   UNK N   1      26.361  26.616  -3.260  0.00  0.00     0.037 A 
HETATM   12  C   UNK N   1      26.368  25.353  -3.861  0.00  0.00     0.010 A 
BRANCH  10  13
HETATM   13  O   UNK N   1      25.764  28.913  -3.344  0.00  0.00    -0.361 OA
HETATM   14  H   UNK N   1      26.434  29.541  -3.535  0.00  0.00     0.217 HD
ENDBRANCH  10  13
ENDBRANCH   6   7
ENDBRANCH   5   6
BRANCH   5  15
HETATM   15  C   UNK N   1      25.544  22.647  -8.026  0.00  0.00     0.163 C 
HETATM   16  O   UNK N   1      24.356  22.555  -8.283  0.00  0.00    -0.648 OA
BRANCH  15  17
HETATM   17  O   UNK N   1      26.368  21.636  -8.369  0.00  0.00    -0.775 OA
HETATM   18  H   UNK N   1      27.253  21.400  -8.170  0.00  0.00     0.167 HD
ENDBRANCH  15  17
ENDBRANCH   5  15
ENDBRANCH   1   5
BRANCH   2  19
HETATM   19  C   UNK N   1      29.690  24.995  -8.059  0.00  0.00     0.103 C 
BRANCH  19  20
HETATM   20  C   UNK N   1      30.346  24.943  -6.685  0.00  0.00     0.009 C 
BRANCH  20  21
HETATM   21  C   UNK N   1      30.111  26.234  -5.911  0.00  0.00     0.000 C 
BRANCH  21  22
HETATM   22  C   UNK N   1      29.831  25.983  -4.433  0.00  0.00     0.000 C 
BRANCH  22  23
HETATM   23  C   UNK N   1      30.599  24.772  -3.923  0.00  0.00     0.000 C 
BRANCH  23  24
HETATM   24  C   UNK N   1      29.722  23.952  -3.000  0.00  0.00     0.000 C 
BRANCH  24  25
HETATM   25  C   UNK N   1      30.514  22.773  -2.473  0.00  0.00     0.000 C 
BRANCH  25  26
HETATM   26  C   UNK N   1      31.385  22.222  -3.581  0.00  0.00     0.000 C 
BRANCH  26  27
HETATM   27  C   UNK N   1      30.959  20.804  -3.901  0.00  0.00    -0.000 C 
BRANCH  27  28
HETATM   28  C   UNK N   1      30.834  20.617  -5.399  0.00  0.00    -0.005 C 
HETATM   29  C   UNK N   1      29.717  21.497  -5.919  0.00  0.00     0.005 C 
ENDBRANCH  27  28
ENDBRANCH  26  27
ENDBRANCH  25  26
ENDBRANCH  24  25
ENDBRANCH  23  24
ENDBRANCH  22  23
ENDBRANCH  21  22
ENDBRANCH  20  21
ENDBRANCH  19  20
ENDBRANCH   2  19
TORSDOF 16
ENDMDL
MODEL 8
REMARK VINA RESULT:      -5.8     16.141     20.159
REMARK  16 active torsions:
REMARK  status: ('A' for Active; 'I' for Inactive)
REMARK       I    between atoms: N_1  and  C_2 
REMARK    1  A    between atoms: C_15  and  N_1 
REMARK    2  A    between atoms: C_2  and  C_4 
REMARK    3  A    between atoms: C_4  and  C_5 
REMARK    4  A    between atoms: C_5  and  C_6 
REMARK    5  A    between atoms: C_6  and  C_7 
REMARK    6  A    between atoms: C_7  and  C_8 
REMARK    7  A    between atoms: C_8  and  C_9 
REMARK    8  A    between atoms: C_9  and  C_10 
REMARK    9  A    between atoms: C_10  and  C_11 
REMARK   10  A    between atoms: C_11  and  C_12 
REMARK   11  A    between atoms: C_12  and  C_13 
REMARK   12  A    between atoms: C_15  and  C_16 
REMARK   13  A    between atoms: C_15  and  C_24 
REMARK   14  A    between atoms: C_16  and  C_17 
REMARK   15  A    between atoms: C_20  and  O_23 
REMARK   16  A    between atoms: C_24  and  O_25 
ROOT
HETATM    1  N   UNK N   1      30.656  25.203  -3.298  0.00  0.00    -0.346 N 
HETATM    2  C   UNK N   1      30.909  26.118  -4.264  0.00  0.00     0.218 C 
HETATM    3  O   UNK N   1      30.669  25.869  -5.441  0.00  0.00    -0.274 OA
HETATM    4  H   UNK N   1      30.862  25.461  -2.370  0.00  0.00     0.163 HD
ENDROOT
BRANCH   1   5
HETATM    5  C   UNK N   1      30.108  23.877  -3.512  0.00  0.00     0.186 C 
BRANCH   5   6
HETATM    6  C   UNK N   1      28.597  24.005  -3.286  0.00  0.00     0.074 C 
BRANCH   6   7
HETATM    7  C   UNK N   1      27.718  23.989  -4.502  0.00  0.00    -0.056 A 
HETATM    8  C   UNK N   1      26.398  24.440  -4.385  0.00  0.00     0.010 A 
HETATM    9  C   UNK N   1      25.522  24.346  -5.470  0.00  0.00     0.037 A 
HETATM   10  C   UNK N   1      25.961  23.794  -6.677  0.00  0.00     0.065 A 
HETATM   11  C   UNK N   1      27.281  23.350  -6.803  0.00  0.00     0.037 A 
HETATM   12  C   UNK N   1      28.156  23.441  -5.715  0.00  0.00     0.010 A 
BRANCH  10  13
HETATM   13  O   UNK N   1      25.114  23.684  -7.713  0.00  0.00    -0.361 OA
HETATM   14  H   UNK N   1      24.689  22.876  -7.924  0.00  0.00     0.217 HD
ENDBRANCH  10  13
ENDBRANCH   6   7
ENDBRANCH   5   6
BRANCH   5  15
HETATM   15  C   UNK N   1      30.732  22.874  -2.557  0.00  0.00     0.163 C 
HETATM   16  O   UNK N   1      30.511  22.948  -1.360  0.00  0.00    -0.648 OA
BRANCH  15  17
HETATM   17  O   UNK N   1      31.532  21.890  -3.016  0.00  0.00    -0.775 OA
HETATM   18  H   UNK N   1      32.445  21.687  -2.951  0.00  0.00     0.167 HD
ENDBRANCH  15  17
ENDBRANCH   5  15
ENDBRANCH   1   5
BRANCH   2  19
HETATM   19  C   UNK N   1      31.450  27.460  -3.861  0.00  0.00     0.103 C 
BRANCH  19  20
HETATM   20  C   UNK N   1      30.412  28.571  -3.954  0.00  0.00     0.009 C 
BRANCH  20  21
HETATM   21  C   UNK N   1      30.257  29.296  -2.623  0.00  0.00     0.000 C 
BRANCH  21  22
HETATM   22  C   UNK N   1      29.041  30.215  -2.599  0.00  0.00     0.000 C 
BRANCH  22  23
HETATM   23  C   UNK N   1      27.792  29.468  -2.154  0.00  0.00     0.000 C 
BRANCH  23  24
HETATM   24  C   UNK N   1      26.750  29.495  -3.251  0.00  0.00     0.000 C 
BRANCH  24  25
HETATM   25  C   UNK N   1      26.480  28.081  -3.722  0.00  0.00     0.000 C 
BRANCH  25  26
HETATM   26  C   UNK N   1      26.280  28.084  -5.222  0.00  0.00     0.000 C 
BRANCH  26  27
HETATM   27  C   UNK N   1      27.365  28.918  -5.873  0.00  0.00    -0.000 C 
BRANCH  27  28
HETATM   28  C   UNK N   1      28.138  28.087  -6.876  0.00  0.00    -0.005 C 
HETATM   29  C   UNK N   1      27.197  27.103  -7.538  0.00  0.00     0.005 C 
ENDBRANCH  27  28
ENDBRANCH  26  27
ENDBRANCH  25  26
ENDBRANCH  24  25
ENDBRANCH  23  24
ENDBRANCH  22  23
ENDBRANCH  21  22
ENDBRANCH  20  21
ENDBRANCH  19  20
ENDBRANCH   2  19
TORSDOF 16
ENDMDL
MODEL 9
REMARK VINA RESULT:      -5.8     16.592     20.389
REMARK  16 active torsions:
REMARK  status: ('A' for Active; 'I' for Inactive)
REMARK       I    between atoms: N_1  and  C_2 
REMARK    1  A    between atoms: C_15  and  N_1 
REMARK    2  A    between atoms: C_2  and  C_4 
REMARK    3  A    between atoms: C_4  and  C_5 
REMARK    4  A    between atoms: C_5  and  C_6 
REMARK    5  A    between atoms: C_6  and  C_7 
REMARK    6  A    between atoms: C_7  and  C_8 
REMARK    7  A    between atoms: C_8  and  C_9 
REMARK    8  A    between atoms: C_9  and  C_10 
REMARK    9  A    between atoms: C_10  and  C_11 
REMARK   10  A    between atoms: C_11  and  C_12 
REMARK   11  A    between atoms: C_12  and  C_13 
REMARK   12  A    between atoms: C_15  and  C_16 
REMARK   13  A    between atoms: C_15  and  C_24 
REMARK   14  A    between atoms: C_16  and  C_17 
REMARK   15  A    between atoms: C_20  and  O_23 
REMARK   16  A    between atoms: C_24  and  O_25 
ROOT
HETATM    1  N   UNK N   1      25.441  24.021  -6.537  0.00  0.00    -0.346 N 
HETATM    2  C   UNK N   1      25.521  24.741  -5.393  0.00  0.00     0.218 C 
HETATM    3  O   UNK N   1      25.919  24.224  -4.355  0.00  0.00    -0.274 OA
HETATM    4  H   UNK N   1      25.121  24.490  -7.342  0.00  0.00     0.163 HD
ENDROOT
BRANCH   1   5
HETATM    5  C   UNK N   1      25.783  22.618  -6.679  0.00  0.00     0.186 C 
BRANCH   5   6
HETATM    6  C   UNK N   1      26.942  22.569  -7.682  0.00  0.00     0.074 C 
BRANCH   6   7
HETATM    7  C   UNK N   1      28.148  21.765  -7.297  0.00  0.00    -0.056 A 
HETATM    8  C   UNK N   1      29.109  22.348  -6.463  0.00  0.00     0.010 A 
HETATM    9  C   UNK N   1      30.292  21.666  -6.165  0.00  0.00     0.037 A 
HETATM   10  C   UNK N   1      30.522  20.397  -6.705  0.00  0.00     0.065 A 
HETATM   11  C   UNK N   1      29.562  19.805  -7.530  0.00  0.00     0.037 A 
HETATM   12  C   UNK N   1      28.380  20.491  -7.832  0.00  0.00     0.010 A 
BRANCH  10  13
HETATM   13  O   UNK N   1      31.668  19.751  -6.435  0.00  0.00    -0.361 OA
HETATM   14  H   UNK N   1      32.236  20.016  -5.738  0.00  0.00     0.217 HD
ENDBRANCH  10  13
ENDBRANCH   6   7
ENDBRANCH   5   6
BRANCH   5  15
HETATM   15  C   UNK N   1      24.588  21.818  -7.167  0.00  0.00     0.163 C 
HETATM   16  O   UNK N   1      24.042  22.110  -8.218  0.00  0.00    -0.648 OA
BRANCH  15  17
HETATM   17  O   UNK N   1      24.119  20.775  -6.453  0.00  0.00    -0.775 OA
HETATM   18  H   UNK N   1      23.363  20.222  -6.498  0.00  0.00     0.167 HD
ENDBRANCH  15  17
ENDBRANCH   5  15
ENDBRANCH   1   5
BRANCH   2  19
HETATM   19  C   UNK N   1      25.154  26.197  -5.432  0.00  0.00     0.103 C 
BRANCH  19  20
HETATM   20  C   UNK N   1      25.631  26.896  -6.698  0.00  0.00     0.009 C 
BRANCH  20  21
HETATM   21  C   UNK N   1      27.089  27.324  -6.578  0.00  0.00     0.000 C 
BRANCH  21  22
HETATM   22  C   UNK N   1      27.348  28.162  -5.331  0.00  0.00     0.000 C 
BRANCH  22  23
HETATM   23  C   UNK N   1      28.663  27.775  -4.668  0.00  0.00     0.000 C 
BRANCH  23  24
HETATM   24  C   UNK N   1      28.852  26.274  -4.726  0.00  0.00     0.000 C 
BRANCH  24  25
HETATM   25  C   UNK N   1      30.332  25.952  -4.670  0.00  0.00     0.000 C 
BRANCH  25  26
HETATM   26  C   UNK N   1      30.563  24.845  -3.665  0.00  0.00     0.000 C 
BRANCH  26  27
HETATM   27  C   UNK N   1      29.239  24.195  -3.316  0.00  0.00    -0.000 C 
BRANCH  27  28
HETATM   28  C   UNK N   1      29.468  22.927  -2.521  0.00  0.00    -0.005 C 
HETATM   29  C   UNK N   1      30.934  22.556  -2.586  0.00  0.00     0.005 C 
ENDBRANCH  27  28
ENDBRANCH  26  27
ENDBRANCH  25  26
ENDBRANCH  24  25
ENDBRANCH  23  24
ENDBRANCH  22  23
ENDBRANCH  21  22
ENDBRANCH  20  21
ENDBRANCH  19  20
ENDBRANCH   2  19
TORSDOF 16
ENDMDL
