REMARK  12 active torsions:
REMARK  status: ('A' for Active; 'I' for Inactive)
REMARK    1  A    between atoms: Be_1  and  O_8 
REMARK    2  A    between atoms: P_5  and  O_7 
REMARK    3  A    between atoms: P_5  and  O_8 
REMARK    4  A    between atoms: P_5  and  O_9 
REMARK    5  A    between atoms: P_10  and  O_9 
REMARK    6  A    between atoms: P_10  and  O_11 
REMARK    7  A    between atoms: P_10  and  O_13 
REMARK    8  A    between atoms: O_13  and  C_16 
REMARK    9  A    between atoms: N_14  and  C_15 
REMARK   10  A    between atoms: N_14  and  C_17 
REMARK   11  A    between atoms: C_15  and  C_16 
REMARK   12  A    between atoms: C_22  and  N_23 
ROOT
HETATM    1  P   UNK N   1      -2.031   0.293   0.396  0.00  0.00     0.401 P 
HETATM    2  O   UNK N   1      -1.738   1.803   0.623  0.00  0.00    -0.631 OA
ENDROOT
BRANCH   1   3
HETATM    3  O   UNK N   1      -3.343   0.188  -0.749  0.00  0.00    -0.194 OA
BRANCH   3   4
HETATM    4  P   UNK N   1      -4.800   0.010   0.179  0.00  0.00     0.430 P 
HETATM    5  O   UNK N   1      -4.636  -1.411  -0.426  0.00  0.00    -0.630 OA
BRANCH   4   6
HETATM    6  O   UNK N   1      -5.002   1.160  -1.106  0.00  0.00    -0.305 OA
HETATM    7  H   UNK N   1      -4.501   1.578  -1.824  0.00  0.00     0.222 HD
ENDBRANCH   4   6
BRANCH   4   8
HETATM    8  O   UNK N   1      -6.327  -0.218  -0.618  0.00  0.00    -0.121 OA
BRANCH   8   9
HETATM    9 Be   UNK N   1      -7.436   0.907   0.036  0.00  0.00     0.000 Be
HETATM   10  F   UNK N   1      -8.304   1.582  -1.225  0.00  0.00     0.000 F 
HETATM   11  F   UNK N   1      -8.495   0.105   1.055  0.00  0.00     0.000 F 
HETATM   12  F   UNK N   1      -6.691   2.146   0.895  0.00  0.00     0.000 F 
ENDBRANCH   8   9
ENDBRANCH   4   8
ENDBRANCH   3   4
ENDBRANCH   1   3
BRANCH   1  13
HETATM   13  O   UNK N   1      -2.399  -0.432   1.932  0.00  0.00    -0.307 OA
HETATM   14  H   UNK N   1      -2.851  -0.456   2.790  0.00  0.00     0.222 HD
ENDBRANCH   1  13
BRANCH   1  15
HETATM   15  O   UNK N   1      -0.624  -0.463  -0.294  0.00  0.00    -0.295 OA
BRANCH  15  16
HETATM   16  C   UNK N   1       0.489   0.185   0.243  0.00  0.00     0.200 C 
BRANCH  16  17
HETATM   17  C   UNK N   1       1.320   0.716  -0.908  0.00  0.00     0.149 C 
BRANCH  17  18
HETATM   18  N   UNK N   1       2.654   1.057  -0.489  0.00  0.00    -0.381 N 
HETATM   19  C   UNK N   1       2.969   2.467  -0.506  0.00  0.00     0.150 C 
BRANCH  18  20
HETATM   20  C   UNK N   1       3.638   0.114   0.006  0.00  0.00     0.063 A 
HETATM   21  C   UNK N   1       4.824   0.662   0.542  0.00  0.00     0.032 A 
HETATM   22  C   UNK N   1       5.820  -0.125   1.109  0.00  0.00     0.002 A 
HETATM   23  C   UNK N   1       5.654  -1.498   1.186  0.00  0.00     0.003 A 
HETATM   24  C   UNK N   1       4.507  -2.086   0.666  0.00  0.00     0.038 A 
HETATM   25  C   UNK N   1       3.492  -1.330   0.049  0.00  0.00     0.129 A 
BRANCH  25  26
HETATM   26  N   UNK N   1       2.405  -2.074  -0.510  0.00  0.00    -0.113 N 
HETATM   27  O   UNK N   1       2.217  -3.319  -0.126  0.00  0.00    -0.532 OA
HETATM   28  O   UNK N   1       1.872  -1.705  -1.511  0.00  0.00    -0.532 OA
ENDBRANCH  25  26
ENDBRANCH  18  20
ENDBRANCH  17  18
ENDBRANCH  16  17
ENDBRANCH  15  16
ENDBRANCH   1  15
TORSDOF 12
