MODEL 1
REMARK VINA RESULT:      -7.5      0.000      0.000
REMARK  5 active torsions:
REMARK  status: ('A' for Active; 'I' for Inactive)
REMARK    1  A    between atoms: C_1  and  O_16 
REMARK    2  A    between atoms: C_7  and  N_19 
REMARK    3  A    between atoms: C_11  and  S_24 
REMARK    4  A    between atoms: C_14  and  O_16 
REMARK    5  A    between atoms: C_14  and  C_17 
REMARK       I    between atoms: C_17  and  N_19 
ROOT
HETATM    1  C   UNK N   1      34.574  15.763  10.669  0.00  0.00     0.252 C 
HETATM    2  O   UNK N   1      34.988  16.742  11.373  0.00  0.00    -0.270 OA
HETATM    3  N   UNK N   1      33.698  16.056   9.875  0.00  0.00    -0.353 N 
HETATM    4  H   UNK N   1      32.797  16.340  10.151  0.00  0.00     0.163 HD
ENDROOT
BRANCH   3   5
HETATM    5  C   UNK N   1      34.090  15.952   8.527  0.00  0.00     0.092 C 
HETATM    6  C   UNK N   1      33.893  17.458   7.791  0.00  0.00     0.011 C 
HETATM    7  C   UNK N   1      32.685  18.112   8.342  0.00  0.00     0.032 C 
HETATM    8  C   UNK N   1      33.657  17.430   6.230  0.00  0.00     0.011 C 
HETATM    9  C   UNK N   1      31.506  17.192   8.142  0.00  0.00     0.065 C 
HETATM   10  C   UNK N   1      31.791  15.636   8.401  0.00  0.00     0.032 C 
HETATM   11  C   UNK N   1      31.332  16.884   6.686  0.00  0.00     0.030 C 
HETATM   12  C   UNK N   1      33.295  15.095   7.780  0.00  0.00     0.011 C 
HETATM   13  C   UNK N   1      33.260  15.077   6.325  0.00  0.00     0.011 C 
HETATM   14  C   UNK N   1      32.592  16.361   5.960  0.00  0.00    -0.012 C 
BRANCH   9  15
HETATM   15  S   UNK N   1      30.171  18.416   8.808  0.00  0.00     0.149 S 
HETATM   16  C   UNK N   1      28.452  18.087   9.254  0.00  0.00     0.162 C 
HETATM   17  O   UNK N   1      29.445  18.147   7.494  0.00  0.00    -0.227 OA
HETATM   18  O   UNK N   1      29.874  17.187   9.662  0.00  0.00    -0.227 OA
ENDBRANCH   9  15
ENDBRANCH   3   5
BRANCH   1  19
HETATM   19  C   UNK N   1      35.350  14.535  10.527  0.00  0.00     0.135 C 
HETATM   20  C   UNK N   1      36.656  14.852   9.850  0.00  0.00     0.056 C 
HETATM   21  C   UNK N   1      34.602  13.289   9.964  0.00  0.00     0.056 C 
BRANCH  19  22
HETATM   22  O   UNK N   1      35.579  14.004  11.685  0.00  0.00    -0.357 OA
BRANCH  22  23
HETATM   23  C   UNK N   1      36.654  13.678  12.382  0.00  0.00     0.191 C 
HETATM   24  C   UNK N   1      37.129  12.291  12.408  0.00  0.00     0.047 C 
HETATM   25 Cl   UNK N   1      37.872  11.052  11.343  0.00  0.00    -0.086 Cl
HETATM   26  C   UNK N   1      36.601  11.566  13.395  0.00  0.00     0.064 C 
HETATM   27  C   UNK N   1      35.884  12.124  14.389  0.00  0.00     0.117 C 
HETATM   28  C   UNK N   1      35.853  13.514  14.555  0.00  0.00     0.041 C 
HETATM   29  F   UNK N   1      35.441  11.277  15.306  0.00  0.00    -0.206 F 
HETATM   30  C   UNK N   1      36.403  14.305  13.569  0.00  0.00     0.013 C 
ENDBRANCH  22  23
ENDBRANCH  19  22
ENDBRANCH   1  19
TORSDOF 5
ENDMDL
MODEL 2
REMARK VINA RESULT:      -7.5      2.711      3.799
REMARK  5 active torsions:
REMARK  status: ('A' for Active; 'I' for Inactive)
REMARK    1  A    between atoms: C_1  and  O_16 
REMARK    2  A    between atoms: C_7  and  N_19 
REMARK    3  A    between atoms: C_11  and  S_24 
REMARK    4  A    between atoms: C_14  and  O_16 
REMARK    5  A    between atoms: C_14  and  C_17 
REMARK       I    between atoms: C_17  and  N_19 
ROOT
HETATM    1  C   UNK N   1      34.987  13.537  12.393  0.00  0.00     0.252 C 
HETATM    2  O   UNK N   1      35.392  14.659  12.844  0.00  0.00    -0.270 OA
HETATM    3  N   UNK N   1      34.459  13.601  11.298  0.00  0.00    -0.353 N 
HETATM    4  H   UNK N   1      33.603  14.061  11.140  0.00  0.00     0.163 HD
ENDROOT
BRANCH   3   5
HETATM    5  C   UNK N   1      35.184  12.958  10.276  0.00  0.00     0.092 C 
HETATM    6  C   UNK N   1      36.159  14.100   9.506  0.00  0.00     0.011 C 
HETATM    7  C   UNK N   1      35.435  15.389   9.439  0.00  0.00     0.032 C 
HETATM    8  C   UNK N   1      36.540  13.776   8.009  0.00  0.00     0.011 C 
HETATM    9  C   UNK N   1      34.116  15.164   8.741  0.00  0.00     0.065 C 
HETATM   10  C   UNK N   1      33.352  13.808   9.126  0.00  0.00     0.032 C 
HETATM   11  C   UNK N   1      34.346  14.606   7.369  0.00  0.00     0.030 C 
HETATM   12  C   UNK N   1      34.384  12.447   9.264  0.00  0.00     0.011 C 
HETATM   13  C   UNK N   1      34.881  12.059   7.951  0.00  0.00     0.011 C 
HETATM   14  C   UNK N   1      35.247  13.353   7.302  0.00  0.00    -0.012 C 
BRANCH   9  15
HETATM   15  S   UNK N   1      33.578  17.017   8.710  0.00  0.00     0.149 S 
HETATM   16  C   UNK N   1      34.524  18.463   8.182  0.00  0.00     0.162 C 
HETATM   17  O   UNK N   1      34.656  17.220   9.771  0.00  0.00    -0.227 OA
HETATM   18  O   UNK N   1      34.353  16.929   7.398  0.00  0.00    -0.227 OA
ENDBRANCH   9  15
ENDBRANCH   3   5
BRANCH   1  19
HETATM   19  C   UNK N   1      35.479  12.271  12.928  0.00  0.00     0.135 C 
HETATM   20  C   UNK N   1      36.883  12.041  12.441  0.00  0.00     0.056 C 
HETATM   21  C   UNK N   1      34.531  11.040  12.809  0.00  0.00     0.056 C 
BRANCH  19  22
HETATM   22  O   UNK N   1      35.466  12.287  14.223  0.00  0.00    -0.357 OA
BRANCH  22  23
HETATM   23  C   UNK N   1      36.378  12.286  15.179  0.00  0.00     0.191 C 
HETATM   24  C   UNK N   1      36.879  11.021  15.726  0.00  0.00     0.047 C 
HETATM   25 Cl   UNK N   1      37.868   9.597  15.262  0.00  0.00    -0.086 Cl
HETATM   26  C   UNK N   1      36.176  10.576  16.768  0.00  0.00     0.064 C 
HETATM   27  C   UNK N   1      35.249  11.336  17.383  0.00  0.00     0.117 C 
HETATM   28  C   UNK N   1      35.141  12.702  17.099  0.00  0.00     0.041 C 
HETATM   29  F   UNK N   1      34.648  10.762  18.414  0.00  0.00    -0.206 F 
HETATM   30  C   UNK N   1      35.863  13.212  16.041  0.00  0.00     0.013 C 
ENDBRANCH  22  23
ENDBRANCH  19  22
ENDBRANCH   1  19
TORSDOF 5
ENDMDL
MODEL 3
REMARK VINA RESULT:      -7.4     11.889     13.458
REMARK  5 active torsions:
REMARK  status: ('A' for Active; 'I' for Inactive)
REMARK    1  A    between atoms: C_1  and  O_16 
REMARK    2  A    between atoms: C_7  and  N_19 
REMARK    3  A    between atoms: C_11  and  S_24 
REMARK    4  A    between atoms: C_14  and  O_16 
REMARK    5  A    between atoms: C_14  and  C_17 
REMARK       I    between atoms: C_17  and  N_19 
ROOT
HETATM    1  C   UNK N   1      21.880  14.946   6.439  0.00  0.00     0.252 C 
HETATM    2  O   UNK N   1      22.856  15.719   6.714  0.00  0.00    -0.270 OA
HETATM    3  N   UNK N   1      21.069  15.421   5.665  0.00  0.00    -0.353 N 
HETATM    4  H   UNK N   1      20.498  16.190   5.891  0.00  0.00     0.163 HD
ENDROOT
BRANCH   3   5
HETATM    5  C   UNK N   1      21.024  14.773   4.416  0.00  0.00     0.092 C 
HETATM    6  C   UNK N   1      22.086  15.556   3.363  0.00  0.00     0.011 C 
HETATM    7  C   UNK N   1      22.057  17.010   3.638  0.00  0.00     0.032 C 
HETATM    8  C   UNK N   1      21.743  15.431   1.827  0.00  0.00     0.011 C 
HETATM    9  C   UNK N   1      20.633  17.494   3.517  0.00  0.00     0.065 C 
HETATM   10  C   UNK N   1      19.516  16.517   4.124  0.00  0.00     0.032 C 
HETATM   11  C   UNK N   1      20.101  17.196   2.148  0.00  0.00     0.030 C 
HETATM   12  C   UNK N   1      19.790  14.859   3.789  0.00  0.00     0.011 C 
HETATM   13  C   UNK N   1      19.575  14.592   2.373  0.00  0.00     0.011 C 
HETATM   14  C   UNK N   1      20.247  15.730   1.681  0.00  0.00    -0.012 C 
BRANCH   9  15
HETATM   15  S   UNK N   1      21.027  19.366   3.771  0.00  0.00     0.149 S 
HETATM   16  C   UNK N   1      21.567  20.586   2.553  0.00  0.00     0.162 C 
HETATM   17  O   UNK N   1      22.460  18.986   3.408  0.00  0.00    -0.227 OA
HETATM   18  O   UNK N   1      20.299  19.413   2.431  0.00  0.00    -0.227 OA
ENDBRANCH   9  15
ENDBRANCH   3   5
BRANCH   1  19
HETATM   19  C   UNK N   1      21.946  13.508   6.684  0.00  0.00     0.135 C 
HETATM   20  C   UNK N   1      23.301  13.000   6.275  0.00  0.00     0.056 C 
HETATM   21  C   UNK N   1      20.744  12.652   6.184  0.00  0.00     0.056 C 
BRANCH  19  22
HETATM   22  O   UNK N   1      21.745  13.249   7.936  0.00  0.00    -0.357 OA
BRANCH  22  23
HETATM   23  C   UNK N   1      22.071  13.814   9.085  0.00  0.00     0.191 C 
HETATM   24  C   UNK N   1      22.932  13.110  10.041  0.00  0.00     0.047 C 
HETATM   25 Cl   UNK N   1      24.624  12.545  10.239  0.00  0.00    -0.086 Cl
HETATM   26  C   UNK N   1      22.257  12.359  10.912  0.00  0.00     0.064 C 
HETATM   27  C   UNK N   1      20.918  12.431  11.033  0.00  0.00     0.117 C 
HETATM   28  C   UNK N   1      20.198  13.457  10.409  0.00  0.00     0.041 C 
HETATM   29  F   UNK N   1      20.394  11.636  11.954  0.00  0.00    -0.206 F 
HETATM   30  C   UNK N   1      20.857  14.271   9.513  0.00  0.00     0.013 C 
ENDBRANCH  22  23
ENDBRANCH  19  22
ENDBRANCH   1  19
TORSDOF 5
ENDMDL
MODEL 4
REMARK VINA RESULT:      -7.4     15.763     18.547
REMARK  5 active torsions:
REMARK  status: ('A' for Active; 'I' for Inactive)
REMARK    1  A    between atoms: C_1  and  O_16 
REMARK    2  A    between atoms: C_7  and  N_19 
REMARK    3  A    between atoms: C_11  and  S_24 
REMARK    4  A    between atoms: C_14  and  O_16 
REMARK    5  A    between atoms: C_14  and  C_17 
REMARK       I    between atoms: C_17  and  N_19 
ROOT
HETATM    1  C   UNK N   1      29.847  24.548  -5.361  0.00  0.00     0.252 C 
HETATM    2  O   UNK N   1      30.741  25.454  -5.433  0.00  0.00    -0.270 OA
HETATM    3  N   UNK N   1      28.807  24.914  -4.843  0.00  0.00    -0.353 N 
HETATM    4  H   UNK N   1      28.740  25.165  -3.894  0.00  0.00     0.163 HD
ENDROOT
BRANCH   3   5
HETATM    5  C   UNK N   1      27.710  24.944  -5.726  0.00  0.00     0.092 C 
HETATM    6  C   UNK N   1      27.569  26.504  -6.355  0.00  0.00     0.011 C 
HETATM    7  C   UNK N   1      27.923  27.485  -5.305  0.00  0.00     0.032 C 
HETATM    8  C   UNK N   1      26.121  26.924  -6.823  0.00  0.00     0.011 C 
HETATM    9  C   UNK N   1      27.040  27.244  -4.105  0.00  0.00     0.065 C 
HETATM   10  C   UNK N   1      26.772  25.706  -3.740  0.00  0.00     0.032 C 
HETATM   11  C   UNK N   1      25.598  27.369  -4.491  0.00  0.00     0.030 C 
HETATM   12  C   UNK N   1      26.491  24.710  -5.106  0.00  0.00     0.011 C 
HETATM   13  C   UNK N   1      25.201  25.027  -5.701  0.00  0.00     0.011 C 
HETATM   14  C   UNK N   1      25.156  26.519  -5.703  0.00  0.00    -0.012 C 
BRANCH   9  15
HETATM   15  S   UNK N   1      27.670  28.752  -3.078  0.00  0.00     0.149 S 
HETATM   16  C   UNK N   1      27.095  30.464  -3.110  0.00  0.00     0.162 C 
HETATM   17  O   UNK N   1      28.123  29.319  -4.420  0.00  0.00    -0.227 OA
HETATM   18  O   UNK N   1      26.165  29.005  -3.052  0.00  0.00    -0.227 OA
ENDBRANCH   9  15
ENDBRANCH   3   5
BRANCH   1  19
HETATM   19  C   UNK N   1      29.906  23.344  -6.183  0.00  0.00     0.135 C 
HETATM   20  C   UNK N   1      30.527  23.682  -7.511  0.00  0.00     0.056 C 
HETATM   21  C   UNK N   1      28.610  22.481  -6.263  0.00  0.00     0.056 C 
BRANCH  19  22
HETATM   22  O   UNK N   1      30.606  22.425  -5.598  0.00  0.00    -0.357 OA
BRANCH  22  23
HETATM   23  C   UNK N   1      30.396  21.541  -4.639  0.00  0.00     0.191 C 
HETATM   24  C   UNK N   1      30.511  21.931  -3.230  0.00  0.00     0.047 C 
HETATM   25 Cl   UNK N   1      29.696  22.945  -1.994  0.00  0.00    -0.086 Cl
HETATM   26  C   UNK N   1      31.739  21.775  -2.734  0.00  0.00     0.064 C 
HETATM   27  C   UNK N   1      32.703  21.114  -3.402  0.00  0.00     0.117 C 
HETATM   28  C   UNK N   1      32.396  20.367  -4.546  0.00  0.00     0.041 C 
HETATM   29  F   UNK N   1      33.864  21.026  -2.771  0.00  0.00    -0.206 F 
HETATM   30  C   UNK N   1      31.133  20.481  -5.086  0.00  0.00     0.013 C 
ENDBRANCH  22  23
ENDBRANCH  19  22
ENDBRANCH   1  19
TORSDOF 5
ENDMDL
MODEL 5
REMARK VINA RESULT:      -7.3      4.784      8.621
REMARK  5 active torsions:
REMARK  status: ('A' for Active; 'I' for Inactive)
REMARK    1  A    between atoms: C_1  and  O_16 
REMARK    2  A    between atoms: C_7  and  N_19 
REMARK    3  A    between atoms: C_11  and  S_24 
REMARK    4  A    between atoms: C_14  and  O_16 
REMARK    5  A    between atoms: C_14  and  C_17 
REMARK       I    between atoms: C_17  and  N_19 
ROOT
HETATM    1  C   UNK N   1      31.314  17.029   7.505  0.00  0.00     0.252 C 
HETATM    2  O   UNK N   1      30.690  17.086   8.616  0.00  0.00    -0.270 OA
HETATM    3  N   UNK N   1      32.482  16.701   7.605  0.00  0.00    -0.353 N 
HETATM    4  H   UNK N   1      33.161  17.261   8.047  0.00  0.00     0.163 HD
ENDROOT
BRANCH   3   5
HETATM    5  C   UNK N   1      32.775  15.448   7.034  0.00  0.00     0.092 C 
HETATM    6  C   UNK N   1      32.785  14.286   8.259  0.00  0.00     0.011 C 
HETATM    7  C   UNK N   1      33.352  14.884   9.488  0.00  0.00     0.032 C 
HETATM    8  C   UNK N   1      33.675  13.012   7.985  0.00  0.00     0.011 C 
HETATM    9  C   UNK N   1      34.724  15.427   9.171  0.00  0.00     0.065 C 
HETATM   10  C   UNK N   1      34.865  16.166   7.755  0.00  0.00     0.032 C 
HETATM   11  C   UNK N   1      35.605  14.333   8.650  0.00  0.00     0.030 C 
HETATM   12  C   UNK N   1      34.043  15.373   6.477  0.00  0.00     0.011 C 
HETATM   13  C   UNK N   1      34.715  14.125   6.146  0.00  0.00     0.011 C 
HETATM   14  C   UNK N   1      35.028  13.516   7.472  0.00  0.00    -0.012 C 
BRANCH   9  15
HETATM   15  S   UNK N   1      35.166  15.943  10.977  0.00  0.00     0.149 S 
HETATM   16  C   UNK N   1      35.951  14.964  12.276  0.00  0.00     0.162 C 
HETATM   17  O   UNK N   1      34.132  14.904  11.396  0.00  0.00    -0.227 OA
HETATM   18  O   UNK N   1      36.399  15.122  10.611  0.00  0.00    -0.227 OA
ENDBRANCH   9  15
ENDBRANCH   3   5
BRANCH   1  19
HETATM   19  C   UNK N   1      30.607  16.947   6.231  0.00  0.00     0.135 C 
HETATM   20  C   UNK N   1      30.024  15.569   6.076  0.00  0.00     0.056 C 
HETATM   21  C   UNK N   1      31.353  17.491   4.975  0.00  0.00     0.056 C 
BRANCH  19  22
HETATM   22  O   UNK N   1      29.659  17.828   6.177  0.00  0.00    -0.357 OA
BRANCH  22  23
HETATM   23  C   UNK N   1      28.338  17.798   6.168  0.00  0.00     0.191 C 
HETATM   24  C   UNK N   1      27.601  17.891   4.903  0.00  0.00     0.047 C 
HETATM   25 Cl   UNK N   1      27.284  16.958   3.404  0.00  0.00    -0.086 Cl
HETATM   26  C   UNK N   1      27.306  19.143   4.551  0.00  0.00     0.064 C 
HETATM   27  C   UNK N   1      27.473  20.182   5.391  0.00  0.00     0.117 C 
HETATM   28  C   UNK N   1      27.750  19.968   6.746  0.00  0.00     0.041 C 
HETATM   29  F   UNK N   1      27.118  21.361   4.902  0.00  0.00    -0.206 F 
HETATM   30  C   UNK N   1      28.044  18.687   7.163  0.00  0.00     0.013 C 
ENDBRANCH  22  23
ENDBRANCH  19  22
ENDBRANCH   1  19
TORSDOF 5
ENDMDL
MODEL 6
REMARK VINA RESULT:      -7.3     16.676     19.171
REMARK  5 active torsions:
REMARK  status: ('A' for Active; 'I' for Inactive)
REMARK    1  A    between atoms: C_1  and  O_16 
REMARK    2  A    between atoms: C_7  and  N_19 
REMARK    3  A    between atoms: C_11  and  S_24 
REMARK    4  A    between atoms: C_14  and  O_16 
REMARK    5  A    between atoms: C_14  and  C_17 
REMARK       I    between atoms: C_17  and  N_19 
ROOT
HETATM    1  C   UNK N   1      29.836  24.733  -3.526  0.00  0.00     0.252 C 
HETATM    2  O   UNK N   1      30.754  25.605  -3.674  0.00  0.00    -0.270 OA
HETATM    3  N   UNK N   1      28.722  25.127  -3.818  0.00  0.00    -0.353 N 
HETATM    4  H   UNK N   1      28.249  25.825  -3.309  0.00  0.00     0.163 HD
ENDROOT
BRANCH   3   5
HETATM    5  C   UNK N   1      28.171  24.497  -4.950  0.00  0.00     0.092 C 
HETATM    6  C   UNK N   1      28.048  25.633  -6.193  0.00  0.00     0.011 C 
HETATM    7  C   UNK N   1      27.689  26.946  -5.614  0.00  0.00     0.032 C 
HETATM    8  C   UNK N   1      26.929  25.349  -7.270  0.00  0.00     0.011 C 
HETATM    9  C   UNK N   1      26.414  26.791  -4.821  0.00  0.00     0.065 C 
HETATM   10  C   UNK N   1      26.300  25.449  -3.952  0.00  0.00     0.032 C 
HETATM   11  C   UNK N   1      25.317  26.274  -5.701  0.00  0.00     0.030 C 
HETATM   12  C   UNK N   1      26.871  24.050  -4.760  0.00  0.00     0.011 C 
HETATM   13  C   UNK N   1      25.967  23.692  -5.844  0.00  0.00     0.011 C 
HETATM   14  C   UNK N   1      25.651  24.994  -6.501  0.00  0.00    -0.012 C 
BRANCH   9  15
HETATM   15  S   UNK N   1      26.207  28.661  -4.393  0.00  0.00     0.149 S 
HETATM   16  C   UNK N   1      26.942  29.602  -3.038  0.00  0.00     0.162 C 
HETATM   17  O   UNK N   1      25.520  28.168  -3.123  0.00  0.00    -0.227 OA
HETATM   18  O   UNK N   1      27.695  28.474  -4.114  0.00  0.00    -0.227 OA
ENDBRANCH   9  15
ENDBRANCH   3   5
BRANCH   1  19
HETATM   19  C   UNK N   1      30.138  23.308  -3.430  0.00  0.00     0.135 C 
HETATM   20  C   UNK N   1      29.281  22.692  -2.359  0.00  0.00     0.056 C 
HETATM   21  C   UNK N   1      31.644  22.909  -3.377  0.00  0.00     0.056 C 
BRANCH  19  22
HETATM   22  O   UNK N   1      29.914  22.716  -4.560  0.00  0.00    -0.357 OA
BRANCH  22  23
HETATM   23  C   UNK N   1      30.657  22.227  -5.536  0.00  0.00     0.191 C 
HETATM   24  C   UNK N   1      31.160  23.104  -6.599  0.00  0.00     0.047 C 
HETATM   25 Cl   UNK N   1      32.319  24.449  -6.863  0.00  0.00    -0.086 Cl
HETATM   26  C   UNK N   1      30.335  23.204  -7.641  0.00  0.00     0.064 C 
HETATM   27  C   UNK N   1      29.265  22.399  -7.787  0.00  0.00     0.117 C 
HETATM   28  C   UNK N   1      29.099  21.275  -6.969  0.00  0.00     0.041 C 
HETATM   29  F   UNK N   1      28.552  22.608  -8.884  0.00  0.00    -0.206 F 
HETATM   30  C   UNK N   1      29.940  21.119  -5.889  0.00  0.00     0.013 C 
ENDBRANCH  22  23
ENDBRANCH  19  22
ENDBRANCH   1  19
TORSDOF 5
ENDMDL
MODEL 7
REMARK VINA RESULT:      -7.2      3.479      7.306
REMARK  5 active torsions:
REMARK  status: ('A' for Active; 'I' for Inactive)
REMARK    1  A    between atoms: C_1  and  O_16 
REMARK    2  A    between atoms: C_7  and  N_19 
REMARK    3  A    between atoms: C_11  and  S_24 
REMARK    4  A    between atoms: C_14  and  O_16 
REMARK    5  A    between atoms: C_14  and  C_17 
REMARK       I    between atoms: C_17  and  N_19 
ROOT
HETATM    1  C   UNK N   1      33.823  14.889   8.548  0.00  0.00     0.252 C 
HETATM    2  O   UNK N   1      32.831  14.757   9.338  0.00  0.00    -0.270 OA
HETATM    3  N   UNK N   1      34.909  14.758   9.084  0.00  0.00    -0.353 N 
HETATM    4  H   UNK N   1      35.257  15.391   9.753  0.00  0.00     0.163 HD
ENDROOT
BRANCH   3   5
HETATM    5  C   UNK N   1      35.620  13.619   8.662  0.00  0.00     0.092 C 
HETATM    6  C   UNK N   1      35.363  12.379   9.779  0.00  0.00     0.011 C 
HETATM    7  C   UNK N   1      35.292  12.958  11.138  0.00  0.00     0.032 C 
HETATM    8  C   UNK N   1      36.503  11.290   9.865  0.00  0.00     0.011 C 
HETATM    9  C   UNK N   1      36.558  13.739  11.395  0.00  0.00     0.065 C 
HETATM   10  C   UNK N   1      37.101  14.602  10.159  0.00  0.00     0.032 C 
HETATM   11  C   UNK N   1      37.753  12.846  11.254  0.00  0.00     0.030 C 
HETATM   12  C   UNK N   1      36.996  13.794   8.651  0.00  0.00     0.011 C 
HETATM   13  C   UNK N   1      37.956  12.701   8.600  0.00  0.00     0.011 C 
HETATM   14  C   UNK N   1      37.835  12.046   9.935  0.00  0.00    -0.012 C 
BRANCH   9  15
HETATM   15  S   UNK N   1      36.165  14.172  13.235  0.00  0.00     0.149 S 
HETATM   16  C   UNK N   1      35.630  13.076  14.567  0.00  0.00     0.162 C 
HETATM   17  O   UNK N   1      34.733  13.770  12.894  0.00  0.00    -0.227 OA
HETATM   18  O   UNK N   1      36.896  12.844  13.410  0.00  0.00    -0.227 OA
ENDBRANCH   9  15
ENDBRANCH   3   5
BRANCH   1  19
HETATM   19  C   UNK N   1      33.672  14.785   7.100  0.00  0.00     0.135 C 
HETATM   20  C   UNK N   1      33.340  13.363   6.740  0.00  0.00     0.056 C 
HETATM   21  C   UNK N   1      34.782  15.443   6.226  0.00  0.00     0.056 C 
BRANCH  19  22
HETATM   22  O   UNK N   1      32.731  15.569   6.681  0.00  0.00    -0.357 OA
BRANCH  22  23
HETATM   23  C   UNK N   1      32.592  16.871   6.506  0.00  0.00     0.191 C 
HETATM   24  C   UNK N   1      33.081  17.814   7.518  0.00  0.00     0.047 C 
HETATM   25 Cl   UNK N   1      34.610  18.427   8.228  0.00  0.00    -0.086 Cl
HETATM   26  C   UNK N   1      32.172  18.116   8.446  0.00  0.00     0.064 C 
HETATM   27  C   UNK N   1      30.878  17.762   8.324  0.00  0.00     0.117 C 
HETATM   28  C   UNK N   1      30.386  17.261   7.113  0.00  0.00     0.041 C 
HETATM   29  F   UNK N   1      30.095  18.150   9.318  0.00  0.00    -0.206 F 
HETATM   30  C   UNK N   1      31.285  16.951   6.116  0.00  0.00     0.013 C 
ENDBRANCH  22  23
ENDBRANCH  19  22
ENDBRANCH   1  19
TORSDOF 5
ENDMDL
MODEL 8
REMARK VINA RESULT:      -7.2      1.893      2.354
REMARK  5 active torsions:
REMARK  status: ('A' for Active; 'I' for Inactive)
REMARK    1  A    between atoms: C_1  and  O_16 
REMARK    2  A    between atoms: C_7  and  N_19 
REMARK    3  A    between atoms: C_11  and  S_24 
REMARK    4  A    between atoms: C_14  and  O_16 
REMARK    5  A    between atoms: C_14  and  C_17 
REMARK       I    between atoms: C_17  and  N_19 
ROOT
HETATM    1  C   UNK N   1      34.689  14.671  11.411  0.00  0.00     0.252 C 
HETATM    2  O   UNK N   1      34.976  15.864  11.758  0.00  0.00    -0.270 OA
HETATM    3  N   UNK N   1      33.927  14.596  10.465  0.00  0.00    -0.353 N 
HETATM    4  H   UNK N   1      32.989  14.893  10.506  0.00  0.00     0.163 HD
ENDROOT
BRANCH   3   5
HETATM    5  C   UNK N   1      34.508  14.048   9.305  0.00  0.00     0.092 C 
HETATM    6  C   UNK N   1      34.981  15.312   8.291  0.00  0.00     0.011 C 
HETATM    7  C   UNK N   1      33.989  16.406   8.385  0.00  0.00     0.032 C 
HETATM    8  C   UNK N   1      35.051  14.965   6.753  0.00  0.00     0.011 C 
HETATM    9  C   UNK N   1      32.627  15.850   8.049  0.00  0.00     0.065 C 
HETATM   10  C   UNK N   1      32.308  14.395   8.641  0.00  0.00     0.032 C 
HETATM   11  C   UNK N   1      32.638  15.252   6.675  0.00  0.00     0.030 C 
HETATM   12  C   UNK N   1      33.625  13.303   8.539  0.00  0.00     0.011 C 
HETATM   13  C   UNK N   1      33.862  12.932   7.151  0.00  0.00     0.011 C 
HETATM   14  C   UNK N   1      33.757  14.221   6.406  0.00  0.00    -0.012 C 
BRANCH   9  15
HETATM   15  S   UNK N   1      31.692  17.537   8.119  0.00  0.00     0.149 S 
HETATM   16  C   UNK N   1      29.913  17.847   8.107  0.00  0.00     0.162 C 
HETATM   17  O   UNK N   1      31.219  17.193   6.710  0.00  0.00    -0.227 OA
HETATM   18  O   UNK N   1      30.808  16.689   9.030  0.00  0.00    -0.227 OA
ENDBRANCH   9  15
ENDBRANCH   3   5
BRANCH   1  19
HETATM   19  C   UNK N   1      35.508  13.534  11.822  0.00  0.00     0.135 C 
HETATM   20  C   UNK N   1      36.910  13.726  11.313  0.00  0.00     0.056 C 
HETATM   21  C   UNK N   1      34.911  12.114  11.585  0.00  0.00     0.056 C 
BRANCH  19  22
HETATM   22  O   UNK N   1      35.525  13.426  13.111  0.00  0.00    -0.357 OA
BRANCH  22  23
HETATM   23  C   UNK N   1      35.843  12.480  13.978  0.00  0.00     0.191 C 
HETATM   24  C   UNK N   1      34.802  11.822  14.774  0.00  0.00     0.047 C 
HETATM   25 Cl   UNK N   1      33.410  10.703  14.596  0.00  0.00    -0.086 Cl
HETATM   26  C   UNK N   1      34.557  12.428  15.936  0.00  0.00     0.064 C 
HETATM   27  C   UNK N   1      35.350  13.407  16.414  0.00  0.00     0.117 C 
HETATM   28  C   UNK N   1      36.590  13.675  15.823  0.00  0.00     0.041 C 
HETATM   29  F   UNK N   1      34.987  13.899  17.589  0.00  0.00    -0.206 F 
HETATM   30  C   UNK N   1      36.896  13.058  14.629  0.00  0.00     0.013 C 
ENDBRANCH  22  23
ENDBRANCH  19  22
ENDBRANCH   1  19
TORSDOF 5
ENDMDL
MODEL 9
REMARK VINA RESULT:      -7.0      5.146      8.621
REMARK  5 active torsions:
REMARK  status: ('A' for Active; 'I' for Inactive)
REMARK    1  A    between atoms: C_1  and  O_16 
REMARK    2  A    between atoms: C_7  and  N_19 
REMARK    3  A    between atoms: C_11  and  S_24 
REMARK    4  A    between atoms: C_14  and  O_16 
REMARK    5  A    between atoms: C_14  and  C_17 
REMARK       I    between atoms: C_17  and  N_19 
ROOT
HETATM    1  C   UNK N   1      30.385  15.032   5.657  0.00  0.00     0.252 C 
HETATM    2  O   UNK N   1      30.928  14.054   5.045  0.00  0.00    -0.270 OA
HETATM    3  N   UNK N   1      30.906  15.304   6.724  0.00  0.00    -0.353 N 
HETATM    4  H   UNK N   1      30.881  14.702   7.502  0.00  0.00     0.163 HD
ENDROOT
BRANCH   3   5
HETATM    5  C   UNK N   1      31.547  16.557   6.742  0.00  0.00     0.092 C 
HETATM    6  C   UNK N   1      33.152  16.348   6.262  0.00  0.00     0.011 C 
HETATM    7  C   UNK N   1      33.652  15.059   6.790  0.00  0.00     0.032 C 
HETATM    8  C   UNK N   1      34.173  17.425   6.802  0.00  0.00     0.011 C 
HETATM    9  C   UNK N   1      33.472  15.050   8.288  0.00  0.00     0.065 C 
HETATM   10  C   UNK N   1      32.101  15.684   8.824  0.00  0.00     0.032 C 
HETATM   11  C   UNK N   1      34.207  16.203   8.904  0.00  0.00     0.030 C 
HETATM   12  C   UNK N   1      31.636  17.118   8.008  0.00  0.00     0.011 C 
HETATM   13  C   UNK N   1      32.537  18.208   8.355  0.00  0.00     0.011 C 
HETATM   14  C   UNK N   1      33.894  17.591   8.300  0.00  0.00    -0.012 C 
BRANCH   9  15
HETATM   15  S   UNK N   1      34.351  13.359   8.593  0.00  0.00     0.149 S 
HETATM   16  C   UNK N   1      33.664  11.829   9.263  0.00  0.00     0.162 C 
HETATM   17  O   UNK N   1      34.093  13.632  10.072  0.00  0.00    -0.227 OA
HETATM   18  O   UNK N   1      33.005  12.882   8.057  0.00  0.00    -0.227 OA
ENDBRANCH   9  15
ENDBRANCH   3   5
BRANCH   1  19
HETATM   19  C   UNK N   1      29.518  15.983   4.968  0.00  0.00     0.135 C 
HETATM   20  C   UNK N   1      28.409  15.234   4.282  0.00  0.00     0.056 C 
HETATM   21  C   UNK N   1      30.217  17.069   4.096  0.00  0.00     0.056 C 
BRANCH  19  22
HETATM   22  O   UNK N   1      29.015  16.832   5.806  0.00  0.00    -0.357 OA
BRANCH  22  23
HETATM   23  C   UNK N   1      27.798  17.190   6.176  0.00  0.00     0.191 C 
HETATM   24  C   UNK N   1      26.974  18.033   5.303  0.00  0.00     0.047 C 
HETATM   25 Cl   UNK N   1      26.104  17.983   3.734  0.00  0.00    -0.086 Cl
HETATM   26  C   UNK N   1      27.132  19.339   5.522  0.00  0.00     0.064 C 
HETATM   27  C   UNK N   1      27.807  19.810   6.588  0.00  0.00     0.117 C 
HETATM   28  C   UNK N   1      28.178  18.956   7.633  0.00  0.00     0.041 C 
HETATM   29  F   UNK N   1      27.861  21.130   6.678  0.00  0.00    -0.206 F 
HETATM   30  C   UNK N   1      28.018  17.598   7.461  0.00  0.00     0.013 C 
ENDBRANCH  22  23
ENDBRANCH  19  22
ENDBRANCH   1  19
TORSDOF 5
ENDMDL
