REMARK  5 active torsions:
REMARK  status: ('A' for Active; 'I' for Inactive)
REMARK    1  A    between atoms: C_1  and  O_16 
REMARK    2  A    between atoms: C_7  and  N_19 
REMARK    3  A    between atoms: C_11  and  S_24 
REMARK    4  A    between atoms: C_14  and  O_16 
REMARK    5  A    between atoms: C_14  and  C_17 
REMARK       I    between atoms: C_17  and  N_19 
ROOT
HETATM    1  C   UNK N   1       0.364  -2.159   0.050  0.00  0.00     0.252 C 
HETATM    2  O   UNK N   1       1.397  -2.656  -0.508  0.00  0.00    -0.270 OA
HETATM    3  N   UNK N   1       0.605  -1.259   0.834  0.00  0.00    -0.353 N 
HETATM    4  H   UNK N   1       1.090  -1.399   1.679  0.00  0.00     0.163 HD
ENDROOT
BRANCH   3   5
HETATM    5  C   UNK N   1       0.128   0.000   0.422  0.00  0.00     0.092 C 
HETATM    6  C   UNK N   1       0.878   0.410  -1.034  0.00  0.00     0.011 C 
HETATM    7  C   UNK N   1       2.276  -0.074  -1.012  0.00  0.00     0.032 C 
HETATM    8  C   UNK N   1       0.993   1.956  -1.332  0.00  0.00     0.011 C 
HETATM    9  C   UNK N   1       2.967   0.506   0.198  0.00  0.00     0.065 C 
HETATM   10  C   UNK N   1       2.090   0.553   1.539  0.00  0.00     0.032 C 
HETATM   11  C   UNK N   1       2.918   2.003   0.153  0.00  0.00     0.030 C 
HETATM   12  C   UNK N   1       0.464   1.032   1.286  0.00  0.00     0.011 C 
HETATM   13  C   UNK N   1       0.406   2.443   0.931  0.00  0.00     0.011 C 
HETATM   14  C   UNK N   1       1.515   2.618  -0.052  0.00  0.00    -0.012 C 
BRANCH   9  15
HETATM   15  S   UNK N   1       4.719  -0.194  -0.208  0.00  0.00     0.149 S 
HETATM   16  C   UNK N   1       5.937  -0.919   0.911  0.00  0.00     0.162 C 
HETATM   17  O   UNK N   1       5.242   0.960   0.642  0.00  0.00    -0.227 OA
HETATM   18  O   UNK N   1       4.236  -1.223   0.810  0.00  0.00    -0.227 OA
ENDBRANCH   9  15
ENDBRANCH   3   5
BRANCH   1  19
HETATM   19  C   UNK N   1      -0.974  -2.351  -0.501  0.00  0.00     0.135 C 
HETATM   20  C   UNK N   1      -0.886  -2.415  -2.001  0.00  0.00     0.056 C 
HETATM   21  C   UNK N   1      -2.103  -1.430   0.053  0.00  0.00     0.056 C 
BRANCH  19  22
HETATM   22  O   UNK N   1      -1.501  -3.444  -0.050  0.00  0.00    -0.357 OA
BRANCH  22  23
HETATM   23  C   UNK N   1      -1.184  -4.340   0.868  0.00  0.00     0.191 C 
HETATM   24  C   UNK N   1       0.212  -4.748   1.057  0.00  0.00     0.047 C 
HETATM   25 Cl   UNK N   1       1.784  -4.108   1.640  0.00  0.00    -0.086 Cl
HETATM   26  C   UNK N   1       0.568  -5.790   0.305  0.00  0.00     0.064 C 
HETATM   27  C   UNK N   1      -0.333  -6.521  -0.379  0.00  0.00     0.117 C 
HETATM   28  C   UNK N   1      -1.705  -6.359  -0.152  0.00  0.00     0.041 C 
HETATM   29  F   UNK N   1       0.172  -7.535  -1.065  0.00  0.00    -0.206 F 
HETATM   30  C   UNK N   1      -2.121  -5.306   0.634  0.00  0.00     0.013 C 
ENDBRANCH  22  23
ENDBRANCH  19  22
ENDBRANCH   1  19
TORSDOF 5
