REMARK  5 active torsions:
REMARK  status: ('A' for Active; 'I' for Inactive)
REMARK    1  A    between atoms: C_13  and  O_14 
REMARK    2  A    between atoms: N_18  and  C_19 
REMARK    3  A    between atoms: C_19  and  C_20 
REMARK    4  A    between atoms: C_20  and  C_21 
REMARK    5  A    between atoms: C_26  and  C_27 
ROOT
HETATM    1  F   UNK N   1      -6.973   1.027   0.234  0.00  0.00    -0.206 F 
HETATM    2  C   UNK N   1      -5.803   0.361   0.079  0.00  0.00     0.117 A 
HETATM    3  C   UNK N   1      -4.594   1.051   0.161  0.00  0.00     0.058 A 
HETATM    4  C   UNK N   1      -3.376   0.376  -0.007  0.00  0.00     0.028 A 
HETATM    5  C   UNK N   1      -2.171   1.079   0.061  0.00  0.00     0.097 A 
HETATM    6  C   UNK N   1      -5.806  -1.012  -0.167  0.00  0.00     0.044 A 
HETATM    7  C   UNK N   1      -4.600  -1.696  -0.333  0.00  0.00     0.034 A 
HETATM    8  C   UNK N   1      -3.370  -1.014  -0.256  0.00  0.00     0.050 A 
HETATM    9  N   UNK N   1      -2.182  -1.678  -0.431  0.00  0.00    -0.313 N 
HETATM   10  C   UNK N   1      -0.977  -0.995  -0.371  0.00  0.00     0.265 A 
HETATM   11  O   UNK N   1       0.065  -1.599  -0.559  0.00  0.00    -0.267 OA
HETATM   12  C   UNK N   1      -0.944   0.402  -0.120  0.00  0.00     0.111 A 
ENDROOT
BRANCH  12  13
HETATM   13  C   UNK N   1       0.364   1.150  -0.068  0.00  0.00     0.134 A 
HETATM   14  N   UNK N   1       1.480   0.477  -0.022  0.00  0.00    -0.340 N 
HETATM   15  C   UNK N   1       2.824   0.965   0.018  0.00  0.00     0.057 A 
ATOM     16  HN  UNK N   1       1.381  -0.538  -0.014  1.00  0.00     0.167 HD
HETATM   17  C   UNK N   1       3.138   2.332  -0.028  0.00  0.00     0.106 A 
HETATM   18  C   UNK N   1       3.868   0.035   0.097  0.00  0.00     0.031 A 
HETATM   19  C   UNK N   1       4.467   2.763  -0.005  0.00  0.00     0.027 A 
HETATM   20  S   UNK N   1       1.822   3.488  -0.111  0.00  0.00     0.266 S 
HETATM   21  C   UNK N   1       5.499   1.825   0.070  0.00  0.00     0.002 A 
HETATM   22  C   UNK N   1       5.199   0.461   0.126  0.00  0.00     0.002 A 
HETATM   23  N   UNK N   1       0.350   2.575  -0.088  0.00  0.00    -0.265 N 
HETATM   24  O   UNK N   1       1.727   4.348  -1.380  0.00  0.00    -0.200 OA
HETATM   25  O   UNK N   1       1.682   4.460   1.069  0.00  0.00    -0.200 OA
HETATM   26  H   UNK N   1      -0.513   3.049  -0.088  0.00  0.00     0.180 HD
ENDBRANCH  12  13
BRANCH   5  27
HETATM   27  O   UNK N   1      -2.200   2.404   0.305  0.00  0.00    -0.359 OA
HETATM   28  H   UNK N   1      -1.412   2.882   0.475  0.00  0.00     0.217 HD
ENDBRANCH   5  27
BRANCH   9  29
HETATM   29  C   UNK N   1      -2.196  -3.121  -0.734  0.00  0.00     0.133 C 
BRANCH  29  30
HETATM   30  C   UNK N   1      -1.471  -3.946   0.323  0.00  0.00     0.025 C 
BRANCH  30  31
HETATM   31  C   UNK N   1      -0.127  -4.398  -0.225  0.00  0.00    -0.013 A 
HETATM   32  C   UNK N   1       0.602  -5.201   0.831  0.00  0.00     0.005 A 
HETATM   33  C   UNK N   1      -0.091  -5.908  -0.314  0.00  0.00     0.005 A 
ENDBRANCH  30  31
ENDBRANCH  29  30
ENDBRANCH   9  29
TORSDOF 5
