MODEL 1
REMARK VINA RESULT:      -7.6      0.000      0.000
REMARK  5 active torsions:
REMARK  status: ('A' for Active; 'I' for Inactive)
REMARK    1  A    between atoms: C_13  and  O_14 
REMARK    2  A    between atoms: N_18  and  C_19 
REMARK    3  A    between atoms: C_19  and  C_20 
REMARK    4  A    between atoms: C_20  and  C_21 
REMARK    5  A    between atoms: C_26  and  C_27 
ROOT
HETATM    1  F   UNK N   1      34.807  12.175  15.425  0.00  0.00    -0.206 F 
HETATM    2  C   UNK N   1      35.481  12.415  14.274  0.00  0.00     0.117 A 
HETATM    3  C   UNK N   1      34.929  13.257  13.309  0.00  0.00     0.058 A 
HETATM    4  C   UNK N   1      35.611  13.507  12.108  0.00  0.00     0.028 A 
HETATM    5  C   UNK N   1      35.043  14.338  11.141  0.00  0.00     0.097 A 
HETATM    6  C   UNK N   1      36.722  11.819  14.051  0.00  0.00     0.044 A 
HETATM    7  C   UNK N   1      37.412  12.062  12.862  0.00  0.00     0.034 A 
HETATM    8  C   UNK N   1      36.868  12.907  11.875  0.00  0.00     0.050 A 
HETATM    9  N   UNK N   1      37.535  13.140  10.699  0.00  0.00    -0.313 N 
HETATM   10  C   UNK N   1      36.984  13.960   9.726  0.00  0.00     0.265 A 
HETATM   11  O   UNK N   1      37.579  14.129   8.676  0.00  0.00    -0.267 OA
HETATM   12  C   UNK N   1      35.723  14.581   9.927  0.00  0.00     0.111 A 
ENDROOT
BRANCH  12  13
HETATM   13  C   UNK N   1      35.114  15.462   8.865  0.00  0.00     0.134 A 
HETATM   14  N   UNK N   1      34.931  14.979   7.667  0.00  0.00    -0.340 N 
HETATM   15  C   UNK N   1      34.365  15.616   6.518  0.00  0.00     0.057 A 
ATOM     16  HN  UNK N   1      35.232  14.014   7.531  1.00  0.00     0.167 HD
HETATM   17  C   UNK N   1      33.863  16.926   6.544  0.00  0.00     0.106 A 
HETATM   18  C   UNK N   1      34.302  14.893   5.320  0.00  0.00     0.031 A 
HETATM   19  C   UNK N   1      33.302  17.502   5.402  0.00  0.00     0.027 A 
HETATM   20  S   UNK N   1      33.962  17.827   8.046  0.00  0.00     0.266 S 
HETATM   21  C   UNK N   1      33.242  16.769   4.214  0.00  0.00     0.002 A 
HETATM   22  C   UNK N   1      33.746  15.466   4.173  0.00  0.00     0.002 A 
HETATM   23  N   UNK N   1      34.738  16.795   9.200  0.00  0.00    -0.265 N 
HETATM   24  O   UNK N   1      32.635  18.225   8.710  0.00  0.00    -0.200 OA
HETATM   25  O   UNK N   1      34.825  19.096   8.033  0.00  0.00    -0.200 OA
HETATM   26  H   UNK N   1      34.924  17.135  10.105  0.00  0.00     0.180 HD
ENDBRANCH  12  13
BRANCH   5  27
HETATM   27  O   UNK N   1      33.845  14.904  11.387  0.00  0.00    -0.359 OA
HETATM   28  H   UNK N   1      33.104  14.383  11.630  0.00  0.00     0.217 HD
ENDBRANCH   5  27
BRANCH   9  29
HETATM   29  C   UNK N   1      38.826  12.471  10.453  0.00  0.00     0.133 C 
BRANCH  29  30
HETATM   30  C   UNK N   1      38.676  11.200   9.625  0.00  0.00     0.025 C 
BRANCH  30  31
HETATM   31  C   UNK N   1      39.993  10.892   8.931  0.00  0.00    -0.013 A 
HETATM   32  C   UNK N   1      39.786  10.904   7.432  0.00  0.00     0.005 A 
HETATM   33  C   UNK N   1      40.435  12.088   8.116  0.00  0.00     0.005 A 
ENDBRANCH  30  31
ENDBRANCH  29  30
ENDBRANCH   9  29
TORSDOF 5
ENDMDL
MODEL 2
REMARK VINA RESULT:      -7.6      2.560      3.737
REMARK  5 active torsions:
REMARK  status: ('A' for Active; 'I' for Inactive)
REMARK    1  A    between atoms: C_13  and  O_14 
REMARK    2  A    between atoms: N_18  and  C_19 
REMARK    3  A    between atoms: C_19  and  C_20 
REMARK    4  A    between atoms: C_20  and  C_21 
REMARK    5  A    between atoms: C_26  and  C_27 
ROOT
HETATM    1  F   UNK N   1      33.226   8.208  10.935  0.00  0.00    -0.206 F 
HETATM    2  C   UNK N   1      33.844   9.413  10.999  0.00  0.00     0.117 A 
HETATM    3  C   UNK N   1      33.523  10.408  10.077  0.00  0.00     0.058 A 
HETATM    4  C   UNK N   1      34.161  11.656  10.125  0.00  0.00     0.028 A 
HETATM    5  C   UNK N   1      33.844  12.641   9.187  0.00  0.00     0.097 A 
HETATM    6  C   UNK N   1      34.802   9.657  11.982  0.00  0.00     0.044 A 
HETATM    7  C   UNK N   1      35.443  10.896  12.043  0.00  0.00     0.034 A 
HETATM    8  C   UNK N   1      35.132  11.912  11.118  0.00  0.00     0.050 A 
HETATM    9  N   UNK N   1      35.767  13.128  11.164  0.00  0.00    -0.313 N 
HETATM   10  C   UNK N   1      35.468  14.115  10.238  0.00  0.00     0.265 A 
HETATM   11  O   UNK N   1      36.065  15.177  10.279  0.00  0.00    -0.267 OA
HETATM   12  C   UNK N   1      34.495  13.895   9.228  0.00  0.00     0.111 A 
ENDROOT
BRANCH  12  13
HETATM   13  C   UNK N   1      34.177  14.961   8.211  0.00  0.00     0.134 A 
HETATM   14  N   UNK N   1      33.978  14.617   6.969  0.00  0.00    -0.340 N 
HETATM   15  C   UNK N   1      33.654  15.443   5.847  0.00  0.00     0.057 A 
ATOM     16  HN  UNK N   1      34.065  13.620   6.770  1.00  0.00     0.167 HD
HETATM   17  C   UNK N   1      33.458  16.828   5.955  0.00  0.00     0.106 A 
HETATM   18  C   UNK N   1      33.518  14.837   4.592  0.00  0.00     0.031 A 
HETATM   19  C   UNK N   1      33.124  17.594   4.834  0.00  0.00     0.027 A 
HETATM   20  S   UNK N   1      33.646  17.578   7.529  0.00  0.00     0.266 S 
HETATM   21  C   UNK N   1      32.987  16.977   3.589  0.00  0.00     0.002 A 
HETATM   22  C   UNK N   1      33.189  15.599   3.467  0.00  0.00     0.002 A 
HETATM   23  N   UNK N   1      34.086  16.319   8.634  0.00  0.00    -0.265 N 
HETATM   24  O   UNK N   1      32.397  18.222   8.149  0.00  0.00    -0.200 OA
HETATM   25  O   UNK N   1      34.770  18.614   7.669  0.00  0.00    -0.200 OA
HETATM   26  H   UNK N   1      34.277  16.545   9.573  0.00  0.00     0.180 HD
ENDBRANCH  12  13
BRANCH   5  27
HETATM   27  O   UNK N   1      32.910  12.377   8.252  0.00  0.00    -0.359 OA
HETATM   28  H   UNK N   1      31.996  12.442   8.450  0.00  0.00     0.217 HD
ENDBRANCH   5  27
BRANCH   9  29
HETATM   29  C   UNK N   1      36.810  13.362  12.179  0.00  0.00     0.133 C 
BRANCH  29  30
HETATM   30  C   UNK N   1      36.264  14.038  13.432  0.00  0.00     0.025 C 
BRANCH  30  31
HETATM   31  C   UNK N   1      36.887  13.398  14.662  0.00  0.00    -0.013 A 
HETATM   32  C   UNK N   1      36.999  14.430  15.764  0.00  0.00     0.005 A 
HETATM   33  C   UNK N   1      35.891  13.398  15.801  0.00  0.00     0.005 A 
ENDBRANCH  30  31
ENDBRANCH  29  30
ENDBRANCH   9  29
TORSDOF 5
ENDMDL
MODEL 3
REMARK VINA RESULT:      -7.4      2.420      2.994
REMARK  5 active torsions:
REMARK  status: ('A' for Active; 'I' for Inactive)
REMARK    1  A    between atoms: C_13  and  O_14 
REMARK    2  A    between atoms: N_18  and  C_19 
REMARK    3  A    between atoms: C_19  and  C_20 
REMARK    4  A    between atoms: C_20  and  C_21 
REMARK    5  A    between atoms: C_26  and  C_27 
ROOT
HETATM    1  F   UNK N   1      37.236  14.633  16.039  0.00  0.00    -0.206 F 
HETATM    2  C   UNK N   1      36.793  14.069  14.889  0.00  0.00     0.117 A 
HETATM    3  C   UNK N   1      36.430  14.879  13.813  0.00  0.00     0.058 A 
HETATM    4  C   UNK N   1      35.961  14.309  12.620  0.00  0.00     0.028 A 
HETATM    5  C   UNK N   1      35.584  15.129  11.553  0.00  0.00     0.097 A 
HETATM    6  C   UNK N   1      36.695  12.682  14.781  0.00  0.00     0.044 A 
HETATM    7  C   UNK N   1      36.232  12.103  13.598  0.00  0.00     0.034 A 
HETATM    8  C   UNK N   1      35.858  12.906  12.502  0.00  0.00     0.050 A 
HETATM    9  N   UNK N   1      35.391  12.343  11.342  0.00  0.00    -0.313 N 
HETATM   10  C   UNK N   1      35.009  13.142  10.275  0.00  0.00     0.265 A 
HETATM   11  O   UNK N   1      34.568  12.623   9.264  0.00  0.00    -0.267 OA
HETATM   12  C   UNK N   1      35.100  14.556  10.356  0.00  0.00     0.111 A 
ENDROOT
BRANCH  12  13
HETATM   13  C   UNK N   1      34.672  15.428   9.203  0.00  0.00     0.134 A 
HETATM   14  N   UNK N   1      34.601  14.912   8.007  0.00  0.00    -0.340 N 
HETATM   15  C   UNK N   1      34.212  15.535   6.780  0.00  0.00     0.057 A 
ATOM     16  HN  UNK N   1      34.859  13.928   7.938  1.00  0.00     0.167 HD
HETATM   17  C   UNK N   1      33.789  16.871   6.706  0.00  0.00     0.106 A 
HETATM   18  C   UNK N   1      34.247  14.773   5.606  0.00  0.00     0.031 A 
HETATM   19  C   UNK N   1      33.399  17.433   5.488  0.00  0.00     0.027 A 
HETATM   20  S   UNK N   1      33.764  17.821   8.180  0.00  0.00     0.266 S 
HETATM   21  C   UNK N   1      33.435  16.661   4.325  0.00  0.00     0.002 A 
HETATM   22  C   UNK N   1      33.864  15.332   4.383  0.00  0.00     0.002 A 
HETATM   23  N   UNK N   1      34.338  16.792   9.450  0.00  0.00    -0.265 N 
HETATM   24  O   UNK N   1      32.395  18.316   8.669  0.00  0.00    -0.200 OA
HETATM   25  O   UNK N   1      34.696  19.040   8.231  0.00  0.00    -0.200 OA
HETATM   26  H   UNK N   1      34.437  17.155  10.360  0.00  0.00     0.180 HD
ENDBRANCH  12  13
BRANCH   5  27
HETATM   27  O   UNK N   1      35.695  16.465  11.685  0.00  0.00    -0.359 OA
HETATM   28  H   UNK N   1      36.461  16.852  12.062  0.00  0.00     0.217 HD
ENDBRANCH   5  27
BRANCH   9  29
HETATM   29  C   UNK N   1      35.249  10.878  11.252  0.00  0.00     0.133 C 
BRANCH  29  30
HETATM   30  C   UNK N   1      33.841  10.406  11.596  0.00  0.00     0.025 C 
BRANCH  30  31
HETATM   31  C   UNK N   1      33.589   9.056  10.945  0.00  0.00    -0.013 A 
HETATM   32  C   UNK N   1      32.429   9.172   9.979  0.00  0.00     0.005 A 
HETATM   33  C   UNK N   1      33.849   9.147   9.457  0.00  0.00     0.005 A 
ENDBRANCH  30  31
ENDBRANCH  29  30
ENDBRANCH   9  29
TORSDOF 5
ENDMDL
MODEL 4
REMARK VINA RESULT:      -7.3      3.106      4.215
REMARK  5 active torsions:
REMARK  status: ('A' for Active; 'I' for Inactive)
REMARK    1  A    between atoms: C_13  and  O_14 
REMARK    2  A    between atoms: N_18  and  C_19 
REMARK    3  A    between atoms: C_19  and  C_20 
REMARK    4  A    between atoms: C_20  and  C_21 
REMARK    5  A    between atoms: C_26  and  C_27 
ROOT
HETATM    1  F   UNK N   1      37.405  15.351  16.598  0.00  0.00    -0.206 F 
HETATM    2  C   UNK N   1      36.798  14.545  15.693  0.00  0.00     0.117 A 
HETATM    3  C   UNK N   1      36.704  14.943  14.360  0.00  0.00     0.058 A 
HETATM    4  C   UNK N   1      36.070  14.123  13.414  0.00  0.00     0.028 A 
HETATM    5  C   UNK N   1      35.967  14.538  12.085  0.00  0.00     0.097 A 
HETATM    6  C   UNK N   1      36.264  13.320  16.093  0.00  0.00     0.044 A 
HETATM    7  C   UNK N   1      35.634  12.493  15.161  0.00  0.00     0.034 A 
HETATM    8  C   UNK N   1      35.528  12.881  13.811  0.00  0.00     0.050 A 
HETATM    9  N   UNK N   1      34.898  12.079  12.893  0.00  0.00    -0.313 N 
HETATM   10  C   UNK N   1      34.783  12.478  11.570  0.00  0.00     0.265 A 
HETATM   11  O   UNK N   1      34.193  11.763  10.777  0.00  0.00    -0.267 OA
HETATM   12  C   UNK N   1      35.318  13.718  11.134  0.00  0.00     0.111 A 
ENDROOT
BRANCH  12  13
HETATM   13  C   UNK N   1      35.182  14.161   9.700  0.00  0.00     0.134 A 
HETATM   14  N   UNK N   1      34.505  15.242   9.429  0.00  0.00    -0.340 N 
HETATM   15  C   UNK N   1      34.257  15.855   8.161  0.00  0.00     0.057 A 
ATOM     16  HN  UNK N   1      34.097  15.717  10.234  1.00  0.00     0.167 HD
HETATM   17  C   UNK N   1      34.781  15.353   6.959  0.00  0.00     0.106 A 
HETATM   18  C   UNK N   1      33.465  17.009   8.122  0.00  0.00     0.031 A 
HETATM   19  C   UNK N   1      34.527  15.995   5.744  0.00  0.00     0.027 A 
HETATM   20  S   UNK N   1      35.758  13.898   7.017  0.00  0.00     0.266 S 
HETATM   21  C   UNK N   1      33.739  17.148   5.720  0.00  0.00     0.002 A 
HETATM   22  C   UNK N   1      33.204  17.652   6.909  0.00  0.00     0.002 A 
HETATM   23  N   UNK N   1      35.811  13.396   8.675  0.00  0.00    -0.265 N 
HETATM   24  O   UNK N   1      37.231  14.029   6.602  0.00  0.00    -0.200 OA
HETATM   25  O   UNK N   1      35.216  12.672   6.269  0.00  0.00    -0.200 OA
HETATM   26  H   UNK N   1      36.285  12.567   8.913  0.00  0.00     0.180 HD
ENDBRANCH  12  13
BRANCH   5  27
HETATM   27  O   UNK N   1      36.497  15.725  11.727  0.00  0.00    -0.359 OA
HETATM   28  H   UNK N   1      36.828  16.320  12.371  0.00  0.00     0.217 HD
ENDBRANCH   5  27
BRANCH   9  29
HETATM   29  C   UNK N   1      34.298  10.806  13.333  0.00  0.00     0.133 C 
BRANCH  29  30
HETATM   30  C   UNK N   1      35.258   9.630  13.196  0.00  0.00     0.025 C 
BRANCH  30  31
HETATM   31  C   UNK N   1      35.441   8.968  14.552  0.00  0.00    -0.013 A 
HETATM   32  C   UNK N   1      36.138   7.636  14.371  0.00  0.00     0.005 A 
HETATM   33  C   UNK N   1      36.915   8.837  14.864  0.00  0.00     0.005 A 
ENDBRANCH  30  31
ENDBRANCH  29  30
ENDBRANCH   9  29
TORSDOF 5
ENDMDL
MODEL 5
REMARK VINA RESULT:      -7.3      1.887      4.076
REMARK  5 active torsions:
REMARK  status: ('A' for Active; 'I' for Inactive)
REMARK    1  A    between atoms: C_13  and  O_14 
REMARK    2  A    between atoms: N_18  and  C_19 
REMARK    3  A    between atoms: C_19  and  C_20 
REMARK    4  A    between atoms: C_20  and  C_21 
REMARK    5  A    between atoms: C_26  and  C_27 
ROOT
HETATM    1  F   UNK N   1      39.273   9.426   9.882  0.00  0.00    -0.206 F 
HETATM    2  C   UNK N   1      38.331  10.310  10.292  0.00  0.00     0.117 A 
HETATM    3  C   UNK N   1      37.827  11.253   9.398  0.00  0.00     0.058 A 
HETATM    4  C   UNK N   1      36.859  12.180   9.811  0.00  0.00     0.028 A 
HETATM    5  C   UNK N   1      36.372  13.132   8.912  0.00  0.00     0.097 A 
HETATM    6  C   UNK N   1      37.868  10.280  11.608  0.00  0.00     0.044 A 
HETATM    7  C   UNK N   1      36.902  11.195  12.031  0.00  0.00     0.034 A 
HETATM    8  C   UNK N   1      36.384  12.157  11.141  0.00  0.00     0.050 A 
HETATM    9  N   UNK N   1      35.445  13.067  11.554  0.00  0.00    -0.313 N 
HETATM   10  C   UNK N   1      34.954  14.021  10.676  0.00  0.00     0.265 A 
HETATM   11  O   UNK N   1      34.141  14.840  11.072  0.00  0.00    -0.267 OA
HETATM   12  C   UNK N   1      35.405  14.074   9.331  0.00  0.00     0.111 A 
ENDROOT
BRANCH  12  13
HETATM   13  C   UNK N   1      34.884  15.119   8.378  0.00  0.00     0.134 A 
HETATM   14  N   UNK N   1      34.610  14.779   7.149  0.00  0.00    -0.340 N 
HETATM   15  C   UNK N   1      34.098  15.586   6.085  0.00  0.00     0.057 A 
ATOM     16  HN  UNK N   1      34.784  13.802   6.914  1.00  0.00     0.167 HD
HETATM   17  C   UNK N   1      33.765  16.939   6.250  0.00  0.00     0.106 A 
HETATM   18  C   UNK N   1      33.913  14.994   4.830  0.00  0.00     0.031 A 
HETATM   19  C   UNK N   1      33.250  17.685   5.186  0.00  0.00     0.027 A 
HETATM   20  S   UNK N   1      34.016  17.674   7.822  0.00  0.00     0.266 S 
HETATM   21  C   UNK N   1      33.068  17.082   3.940  0.00  0.00     0.002 A 
HETATM   22  C   UNK N   1      33.404  15.737   3.761  0.00  0.00     0.002 A 
HETATM   23  N   UNK N   1      34.687  16.450   8.847  0.00  0.00    -0.265 N 
HETATM   24  O   UNK N   1      32.767  18.167   8.570  0.00  0.00    -0.200 OA
HETATM   25  O   UNK N   1      35.030  18.824   7.893  0.00  0.00    -0.200 OA
HETATM   26  H   UNK N   1      34.938  16.678   9.772  0.00  0.00     0.180 HD
ENDBRANCH  12  13
BRANCH   5  27
HETATM   27  O   UNK N   1      36.835  13.133   7.647  0.00  0.00    -0.359 OA
HETATM   28  H   UNK N   1      36.881  12.340   7.148  0.00  0.00     0.217 HD
ENDBRANCH   5  27
BRANCH   9  29
HETATM   29  C   UNK N   1      34.993  13.057  12.958  0.00  0.00     0.133 C 
BRANCH  29  30
HETATM   30  C   UNK N   1      35.882  13.901  13.863  0.00  0.00     0.025 C 
BRANCH  30  31
HETATM   31  C   UNK N   1      36.359  13.055  15.032  0.00  0.00    -0.013 A 
HETATM   32  C   UNK N   1      35.787  13.609  16.320  0.00  0.00     0.005 A 
HETATM   33  C   UNK N   1      35.177  12.376  15.689  0.00  0.00     0.005 A 
ENDBRANCH  30  31
ENDBRANCH  29  30
ENDBRANCH   9  29
TORSDOF 5
ENDMDL
MODEL 6
REMARK VINA RESULT:      -7.3      4.353      8.477
REMARK  5 active torsions:
REMARK  status: ('A' for Active; 'I' for Inactive)
REMARK    1  A    between atoms: C_13  and  O_14 
REMARK    2  A    between atoms: N_18  and  C_19 
REMARK    3  A    between atoms: C_19  and  C_20 
REMARK    4  A    between atoms: C_20  and  C_21 
REMARK    5  A    between atoms: C_26  and  C_27 
ROOT
HETATM    1  F   UNK N   1      27.457  20.027   7.473  0.00  0.00    -0.206 F 
HETATM    2  C   UNK N   1      28.099  18.879   7.147  0.00  0.00     0.117 A 
HETATM    3  C   UNK N   1      29.286  18.538   7.795  0.00  0.00     0.058 A 
HETATM    4  C   UNK N   1      29.965  17.357   7.462  0.00  0.00     0.028 A 
HETATM    5  C   UNK N   1      31.162  17.032   8.105  0.00  0.00     0.097 A 
HETATM    6  C   UNK N   1      27.578  18.040   6.162  0.00  0.00     0.044 A 
HETATM    7  C   UNK N   1      28.243  16.860   5.823  0.00  0.00     0.034 A 
HETATM    8  C   UNK N   1      29.444  16.502   6.466  0.00  0.00     0.050 A 
HETATM    9  N   UNK N   1      30.110  15.351   6.128  0.00  0.00    -0.313 N 
HETATM   10  C   UNK N   1      31.301  15.015   6.754  0.00  0.00     0.265 A 
HETATM   11  O   UNK N   1      31.891  14.003   6.418  0.00  0.00    -0.267 OA
HETATM   12  C   UNK N   1      31.853  15.849   7.762  0.00  0.00     0.111 A 
ENDROOT
BRANCH  12  13
HETATM   13  C   UNK N   1      33.155  15.494   8.434  0.00  0.00     0.134 A 
HETATM   14  N   UNK N   1      34.125  14.994   7.719  0.00  0.00    -0.340 N 
HETATM   15  C   UNK N   1      35.436  14.600   8.132  0.00  0.00     0.057 A 
ATOM     16  HN  UNK N   1      33.919  14.867   6.729  1.00  0.00     0.167 HD
HETATM   17  C   UNK N   1      35.894  14.747   9.451  0.00  0.00     0.106 A 
HETATM   18  C   UNK N   1      36.300  14.054   7.175  0.00  0.00     0.031 A 
HETATM   19  C   UNK N   1      37.191  14.366   9.805  0.00  0.00     0.027 A 
HETATM   20  S   UNK N   1      34.799  15.418  10.645  0.00  0.00     0.266 S 
HETATM   21  C   UNK N   1      38.043  13.826   8.840  0.00  0.00     0.002 A 
HETATM   22  C   UNK N   1      37.596  13.665   7.526  0.00  0.00     0.002 A 
HETATM   23  N   UNK N   1      33.301  15.731   9.832  0.00  0.00    -0.265 N 
HETATM   24  O   UNK N   1      35.190  16.765  11.272  0.00  0.00    -0.200 OA
HETATM   25  O   UNK N   1      34.410  14.504  11.815  0.00  0.00    -0.200 OA
HETATM   26  H   UNK N   1      32.536  16.077  10.345  0.00  0.00     0.180 HD
ENDBRANCH  12  13
BRANCH   5  27
HETATM   27  O   UNK N   1      31.638  17.860   9.056  0.00  0.00    -0.359 OA
HETATM   28  H   UNK N   1      32.034  18.679   8.831  0.00  0.00     0.217 HD
ENDBRANCH   5  27
BRANCH   9  29
HETATM   29  C   UNK N   1      29.575  14.492   5.055  0.00  0.00     0.133 C 
BRANCH  29  30
HETATM   30  C   UNK N   1      30.169  14.824   3.692  0.00  0.00     0.025 C 
BRANCH  30  31
HETATM   31  C   UNK N   1      29.062  15.289   2.759  0.00  0.00    -0.013 A 
HETATM   32  C   UNK N   1      28.804  14.224   1.715  0.00  0.00     0.005 A 
HETATM   33  C   UNK N   1      27.863  14.376   2.891  0.00  0.00     0.005 A 
ENDBRANCH  30  31
ENDBRANCH  29  30
ENDBRANCH   9  29
TORSDOF 5
ENDMDL
MODEL 7
REMARK VINA RESULT:      -7.2      3.060      3.873
REMARK  5 active torsions:
REMARK  status: ('A' for Active; 'I' for Inactive)
REMARK    1  A    between atoms: C_13  and  O_14 
REMARK    2  A    between atoms: N_18  and  C_19 
REMARK    3  A    between atoms: C_19  and  C_20 
REMARK    4  A    between atoms: C_20  and  C_21 
REMARK    5  A    between atoms: C_26  and  C_27 
ROOT
HETATM    1  F   UNK N   1      37.276  14.991  15.596  0.00  0.00    -0.206 F 
HETATM    2  C   UNK N   1      36.775  14.283  14.555  0.00  0.00     0.117 A 
HETATM    3  C   UNK N   1      36.143  14.946  13.504  0.00  0.00     0.058 A 
HETATM    4  C   UNK N   1      35.611  14.225  12.424  0.00  0.00     0.028 A 
HETATM    5  C   UNK N   1      34.966  14.897  11.384  0.00  0.00     0.097 A 
HETATM    6  C   UNK N   1      36.885  12.892  14.536  0.00  0.00     0.044 A 
HETATM    7  C   UNK N   1      36.363  12.164  13.466  0.00  0.00     0.034 A 
HETATM    8  C   UNK N   1      35.719  12.817  12.397  0.00  0.00     0.050 A 
HETATM    9  N   UNK N   1      35.192  12.106  11.348  0.00  0.00    -0.313 N 
HETATM   10  C   UNK N   1      34.544  12.756  10.309  0.00  0.00     0.265 A 
HETATM   11  O   UNK N   1      34.057  12.103   9.403  0.00  0.00    -0.267 OA
HETATM   12  C   UNK N   1      34.419  14.171  10.302  0.00  0.00     0.111 A 
ENDROOT
BRANCH  12  13
HETATM   13  C   UNK N   1      33.704  14.880   9.181  0.00  0.00     0.134 A 
HETATM   14  N   UNK N   1      32.588  15.506   9.433  0.00  0.00    -0.340 N 
HETATM   15  C   UNK N   1      31.752  16.250   8.543  0.00  0.00     0.057 A 
ATOM     16  HN  UNK N   1      32.267  15.458  10.400  1.00  0.00     0.167 HD
HETATM   17  C   UNK N   1      32.069  16.449   7.190  0.00  0.00     0.106 A 
HETATM   18  C   UNK N   1      30.573  16.812   9.049  0.00  0.00     0.031 A 
HETATM   19  C   UNK N   1      31.231  17.199   6.361  0.00  0.00     0.027 A 
HETATM   20  S   UNK N   1      33.540  15.728   6.564  0.00  0.00     0.266 S 
HETATM   21  C   UNK N   1      30.061  17.757   6.879  0.00  0.00     0.002 A 
HETATM   22  C   UNK N   1      29.729  17.559   8.222  0.00  0.00     0.002 A 
HETATM   23  N   UNK N   1      34.273  14.865   7.874  0.00  0.00    -0.265 N 
HETATM   24  O   UNK N   1      34.632  16.688   6.070  0.00  0.00    -0.200 OA
HETATM   25  O   UNK N   1      33.375  14.672   5.461  0.00  0.00    -0.200 OA
HETATM   26  H   UNK N   1      35.099  14.353   7.714  0.00  0.00     0.180 HD
ENDBRANCH  12  13
BRANCH   5  27
HETATM   27  O   UNK N   1      34.879  16.241  11.428  0.00  0.00    -0.359 OA
HETATM   28  H   UNK N   1      35.306  16.775  10.787  0.00  0.00     0.217 HD
ENDBRANCH   5  27
BRANCH   9  29
HETATM   29  C   UNK N   1      35.274  10.634  11.357  0.00  0.00     0.133 C 
BRANCH  29  30
HETATM   30  C   UNK N   1      34.017   9.982  11.921  0.00  0.00     0.025 C 
BRANCH  30  31
HETATM   31  C   UNK N   1      33.831   8.613  11.286  0.00  0.00    -0.013 A 
HETATM   32  C   UNK N   1      32.689   8.670  10.294  0.00  0.00     0.005 A 
HETATM   33  C   UNK N   1      34.121   8.691   9.803  0.00  0.00     0.005 A 
ENDBRANCH  30  31
ENDBRANCH  29  30
ENDBRANCH   9  29
TORSDOF 5
ENDMDL
MODEL 8
REMARK VINA RESULT:      -6.9      6.343      9.443
REMARK  5 active torsions:
REMARK  status: ('A' for Active; 'I' for Inactive)
REMARK    1  A    between atoms: C_13  and  O_14 
REMARK    2  A    between atoms: N_18  and  C_19 
REMARK    3  A    between atoms: C_19  and  C_20 
REMARK    4  A    between atoms: C_20  and  C_21 
REMARK    5  A    between atoms: C_26  and  C_27 
ROOT
HETATM    1  F   UNK N   1      34.334  14.666   2.121  0.00  0.00    -0.206 F 
HETATM    2  C   UNK N   1      33.591  15.121   3.159  0.00  0.00     0.117 A 
HETATM    3  C   UNK N   1      32.327  15.661   2.925  0.00  0.00     0.058 A 
HETATM    4  C   UNK N   1      31.551  16.144   3.989  0.00  0.00     0.028 A 
HETATM    5  C   UNK N   1      30.293  16.699   3.743  0.00  0.00     0.097 A 
HETATM    6  C   UNK N   1      34.090  15.053   4.460  0.00  0.00     0.044 A 
HETATM    7  C   UNK N   1      33.326  15.528   5.528  0.00  0.00     0.034 A 
HETATM    8  C   UNK N   1      32.049  16.079   5.309  0.00  0.00     0.050 A 
HETATM    9  N   UNK N   1      31.298  16.559   6.353  0.00  0.00    -0.313 N 
HETATM   10  C   UNK N   1      30.049  17.117   6.126  0.00  0.00     0.265 A 
HETATM   11  O   UNK N   1      29.412  17.564   7.064  0.00  0.00    -0.267 OA
HETATM   12  C   UNK N   1      29.516  17.197   4.813  0.00  0.00     0.111 A 
ENDROOT
BRANCH  12  13
HETATM   13  C   UNK N   1      28.164  17.815   4.561  0.00  0.00     0.134 A 
HETATM   14  N   UNK N   1      27.112  17.046   4.512  0.00  0.00    -0.340 N 
HETATM   15  C   UNK N   1      25.744  17.405   4.303  0.00  0.00     0.057 A 
ATOM     16  HN  UNK N   1      27.290  16.050   4.642  1.00  0.00     0.167 HD
HETATM   17  C   UNK N   1      25.322  18.734   4.148  0.00  0.00     0.106 A 
HETATM   18  C   UNK N   1      24.786  16.384   4.260  0.00  0.00     0.031 A 
HETATM   19  C   UNK N   1      23.971  19.041   3.964  0.00  0.00     0.027 A 
HETATM   20  S   UNK N   1      26.532  20.003   4.187  0.00  0.00     0.266 S 
HETATM   21  C   UNK N   1      23.026  18.014   3.927  0.00  0.00     0.002 A 
HETATM   22  C   UNK N   1      23.434  16.685   4.070  0.00  0.00     0.002 A 
HETATM   23  N   UNK N   1      28.066  19.227   4.399  0.00  0.00    -0.265 N 
HETATM   24  O   UNK N   1      26.445  21.016   5.339  0.00  0.00    -0.200 OA
HETATM   25  O   UNK N   1      26.702  20.834   2.907  0.00  0.00    -0.200 OA
HETATM   26  H   UNK N   1      28.886  19.772   4.407  0.00  0.00     0.180 HD
ENDBRANCH  12  13
BRANCH   5  27
HETATM   27  O   UNK N   1      29.836  16.746   2.476  0.00  0.00    -0.359 OA
HETATM   28  H   UNK N   1      28.919  16.704   2.291  0.00  0.00     0.217 HD
ENDBRANCH   5  27
BRANCH   9  29
HETATM   29  C   UNK N   1      31.851  16.524   7.720  0.00  0.00     0.133 C 
BRANCH  29  30
HETATM   30  C   UNK N   1      32.472  17.853   8.132  0.00  0.00     0.025 C 
BRANCH  30  31
HETATM   31  C   UNK N   1      33.881  17.948   7.569  0.00  0.00    -0.013 A 
HETATM   32  C   UNK N   1      34.752  18.737   8.523  0.00  0.00     0.005 A 
HETATM   33  C   UNK N   1      34.848  17.227   8.483  0.00  0.00     0.005 A 
ENDBRANCH  30  31
ENDBRANCH  29  30
ENDBRANCH   9  29
TORSDOF 5
ENDMDL
MODEL 9
REMARK VINA RESULT:      -6.8      2.689      4.785
REMARK  5 active torsions:
REMARK  status: ('A' for Active; 'I' for Inactive)
REMARK    1  A    between atoms: C_13  and  O_14 
REMARK    2  A    between atoms: N_18  and  C_19 
REMARK    3  A    between atoms: C_19  and  C_20 
REMARK    4  A    between atoms: C_20  and  C_21 
REMARK    5  A    between atoms: C_26  and  C_27 
ROOT
HETATM    1  F   UNK N   1      39.319  10.274   8.281  0.00  0.00    -0.206 F 
HETATM    2  C   UNK N   1      38.442  10.912   9.092  0.00  0.00     0.117 A 
HETATM    3  C   UNK N   1      37.657  11.949   8.589  0.00  0.00     0.058 A 
HETATM    4  C   UNK N   1      36.752  12.625   9.420  0.00  0.00     0.028 A 
HETATM    5  C   UNK N   1      35.983  13.674   8.911  0.00  0.00     0.097 A 
HETATM    6  C   UNK N   1      38.325  10.536  10.430  0.00  0.00     0.044 A 
HETATM    7  C   UNK N   1      37.425  11.199  11.267  0.00  0.00     0.034 A 
HETATM    8  C   UNK N   1      36.627  12.251  10.776  0.00  0.00     0.050 A 
HETATM    9  N   UNK N   1      35.750  12.915  11.597  0.00  0.00    -0.313 N 
HETATM   10  C   UNK N   1      34.982  13.961  11.109  0.00  0.00     0.265 A 
HETATM   11  O   UNK N   1      34.231  14.556  11.862  0.00  0.00    -0.267 OA
HETATM   12  C   UNK N   1      35.079  14.363   9.751  0.00  0.00     0.111 A 
ENDROOT
BRANCH  12  13
HETATM   13  C   UNK N   1      34.255  15.509   9.220  0.00  0.00     0.134 A 
HETATM   14  N   UNK N   1      32.982  15.560   9.500  0.00  0.00    -0.340 N 
HETATM   15  C   UNK N   1      32.017  16.546   9.123  0.00  0.00     0.057 A 
ATOM     16  HN  UNK N   1      32.626  14.790  10.066  1.00  0.00     0.167 HD
HETATM   17  C   UNK N   1      32.349  17.689   8.380  0.00  0.00     0.106 A 
HETATM   18  C   UNK N   1      30.688  16.363   9.523  0.00  0.00     0.031 A 
HETATM   19  C   UNK N   1      31.376  18.636   8.050  0.00  0.00     0.027 A 
HETATM   20  S   UNK N   1      34.014  17.899   7.871  0.00  0.00     0.266 S 
HETATM   21  C   UNK N   1      30.054  18.444   8.458  0.00  0.00     0.002 A 
HETATM   22  C   UNK N   1      29.709  17.305   9.191  0.00  0.00     0.002 A 
HETATM   23  N   UNK N   1      34.891  16.518   8.440  0.00  0.00    -0.265 N 
HETATM   24  O   UNK N   1      34.772  19.106   8.445  0.00  0.00    -0.200 OA
HETATM   25  O   UNK N   1      34.276  17.916   6.359  0.00  0.00    -0.200 OA
HETATM   26  H   UNK N   1      35.846  16.428   8.221  0.00  0.00     0.180 HD
ENDBRANCH  12  13
BRANCH   5  27
HETATM   27  O   UNK N   1      36.114  14.010   7.613  0.00  0.00    -0.359 OA
HETATM   28  H   UNK N   1      36.436  13.395   6.984  0.00  0.00     0.217 HD
ENDBRANCH   5  27
BRANCH   9  29
HETATM   29  C   UNK N   1      35.665  12.540  13.020  0.00  0.00     0.133 C 
BRANCH  29  30
HETATM   30  C   UNK N   1      36.287  13.587  13.937  0.00  0.00     0.025 C 
BRANCH  30  31
HETATM   31  C   UNK N   1      36.636  12.946  15.271  0.00  0.00    -0.013 A 
HETATM   32  C   UNK N   1      36.467  13.964  16.378  0.00  0.00     0.005 A 
HETATM   33  C   UNK N   1      35.410  12.903  16.156  0.00  0.00     0.005 A 
ENDBRANCH  30  31
ENDBRANCH  29  30
ENDBRANCH   9  29
TORSDOF 5
ENDMDL
