MODEL 1
REMARK VINA RESULT:      -7.7      0.000      0.000
REMARK  6 active torsions:
REMARK  status: ('A' for Active; 'I' for Inactive)
REMARK    1  A    between atoms: C_7  and  C_23 
REMARK       I    between atoms: C_7  and  N_15 
REMARK    2  A    between atoms: C_9  and  O_25 
REMARK    3  A    between atoms: C_11  and  O_27 
REMARK    4  A    between atoms: C_16  and  N_15 
REMARK    5  A    between atoms: C_19  and  C_20 
REMARK       I    between atoms: C_20  and  N_22 
REMARK    6  A    between atoms: C_23  and  O_25 
ROOT
HETATM    1  C   UNK N   1      35.720  13.284  11.903  0.00  0.00     0.252 C 
HETATM    2  O   UNK N   1      35.893  12.223  11.309  0.00  0.00    -0.270 OA
HETATM    3  N   UNK N   1      35.480  13.275  13.248  0.00  0.00    -0.353 N 
HETATM    4  H   UNK N   1      35.314  14.127  13.712  0.00  0.00     0.163 HD
ENDROOT
BRANCH   3   5
HETATM    5  C   UNK N   1      35.464  12.033  14.014  0.00  0.00     0.092 C 
HETATM    6  C   UNK N   1      34.180  11.919  14.861  0.00  0.00     0.010 C 
HETATM    7  C   UNK N   1      34.178  12.949  16.010  0.00  0.00     0.026 C 
HETATM    8  C   UNK N   1      34.133  10.506  15.462  0.00  0.00     0.011 C 
HETATM    9  C   UNK N   1      35.395  12.722  16.936  0.00  0.00     0.042 C 
HETATM   10  C   UNK N   1      36.670  12.905  16.088  0.00  0.00     0.026 C 
HETATM   11  C   UNK N   1      35.344  11.285  17.491  0.00  0.00     0.024 C 
HETATM   12  C   UNK N   1      36.700  11.880  14.935  0.00  0.00     0.010 C 
HETATM   13  C   UNK N   1      36.659  10.464  15.541  0.00  0.00     0.011 C 
HETATM   14  C   UNK N   1      35.365  10.270  16.349  0.00  0.00    -0.013 C 
BRANCH   9  15
HETATM   15  C   UNK N   1      35.409  13.670  18.113  0.00  0.00     0.224 C 
HETATM   16  O   UNK N   1      35.767  14.828  17.955  0.00  0.00    -0.273 OA
HETATM   17  N   UNK N   1      35.058  13.250  19.346  0.00  0.00    -0.369 N 
HETATM   18  H   UNK N   1      34.423  12.557  19.639  0.00  0.00     0.159 HD
HETATM   19  H   UNK N   1      35.516  13.719  20.081  0.00  0.00     0.159 HD
ENDBRANCH   9  15
ENDBRANCH   3   5
BRANCH   1  20
HETATM   20  C   UNK N   1      35.772  14.573  11.094  0.00  0.00     0.141 C 
HETATM   21  C   UNK N   1      35.880  15.756  12.049  0.00  0.00     0.057 C 
HETATM   22  C   UNK N   1      36.991  14.611  10.187  0.00  0.00     0.057 C 
BRANCH  20  23
HETATM   23  O   UNK N   1      34.634  14.689  10.296  0.00  0.00    -0.331 OA
BRANCH  23  24
HETATM   24  C   UNK N   1      34.570  15.495   9.205  0.00  0.00     0.070 A 
HETATM   25  C   UNK N   1      34.459  16.886   9.337  0.00  0.00     0.039 A 
HETATM   26  C   UNK N   1      34.290  17.684   8.198  0.00  0.00     0.039 A 
HETATM   27  C   UNK N   1      34.215  17.099   6.927  0.00  0.00     0.068 A 
HETATM   28  C   UNK N   1      34.357  15.706   6.802  0.00  0.00     0.039 A 
HETATM   29  C   UNK N   1      34.541  14.914   7.935  0.00  0.00     0.039 A 
BRANCH  27  30
HETATM   30  O   UNK N   1      33.989  17.884   5.848  0.00  0.00    -0.356 OA
HETATM   31  C   UNK N   1      33.146  17.523   4.820  0.00  0.00     0.210 C 
ENDBRANCH  27  30
ENDBRANCH  23  24
ENDBRANCH  20  23
ENDBRANCH   1  20
TORSDOF 6
ENDMDL
MODEL 2
REMARK VINA RESULT:      -7.5      7.371     10.915
REMARK  6 active torsions:
REMARK  status: ('A' for Active; 'I' for Inactive)
REMARK    1  A    between atoms: C_7  and  C_23 
REMARK       I    between atoms: C_7  and  N_15 
REMARK    2  A    between atoms: C_9  and  O_25 
REMARK    3  A    between atoms: C_11  and  O_27 
REMARK    4  A    between atoms: C_16  and  N_15 
REMARK    5  A    between atoms: C_19  and  C_20 
REMARK       I    between atoms: C_20  and  N_22 
REMARK    6  A    between atoms: C_23  and  O_25 
ROOT
HETATM    1  C   UNK N   1      29.270  17.018   4.755  0.00  0.00     0.252 C 
HETATM    2  O   UNK N   1      29.224  16.240   3.807  0.00  0.00    -0.270 OA
HETATM    3  N   UNK N   1      30.343  16.992   5.601  0.00  0.00    -0.353 N 
HETATM    4  H   UNK N   1      30.359  17.600   6.375  0.00  0.00     0.163 HD
ENDROOT
BRANCH   3   5
HETATM    5  C   UNK N   1      31.466  16.086   5.384  0.00  0.00     0.092 C 
HETATM    6  C   UNK N   1      31.813  15.313   6.672  0.00  0.00     0.010 C 
HETATM    7  C   UNK N   1      32.420  16.249   7.737  0.00  0.00     0.026 C 
HETATM    8  C   UNK N   1      32.847  14.234   6.313  0.00  0.00     0.011 C 
HETATM    9  C   UNK N   1      33.712  16.907   7.199  0.00  0.00     0.042 C 
HETATM   10  C   UNK N   1      33.335  17.730   5.951  0.00  0.00     0.026 C 
HETATM   11  C   UNK N   1      34.714  15.802   6.809  0.00  0.00     0.024 C 
HETATM   12  C   UNK N   1      32.732  16.813   4.866  0.00  0.00     0.010 C 
HETATM   13  C   UNK N   1      33.774  15.737   4.503  0.00  0.00     0.011 C 
HETATM   14  C   UNK N   1      34.114  14.889   5.741  0.00  0.00    -0.013 C 
BRANCH   9  15
HETATM   15  C   UNK N   1      34.379  17.792   8.227  0.00  0.00     0.224 C 
HETATM   16  O   UNK N   1      34.945  18.815   7.870  0.00  0.00    -0.273 OA
HETATM   17  N   UNK N   1      34.384  17.456   9.534  0.00  0.00    -0.369 N 
HETATM   18  H   UNK N   1      33.736  16.952  10.077  0.00  0.00     0.159 HD
HETATM   19  H   UNK N   1      35.174  17.770  10.031  0.00  0.00     0.159 HD
ENDBRANCH   9  15
ENDBRANCH   3   5
BRANCH   1  20
HETATM   20  C   UNK N   1      28.104  17.979   4.949  0.00  0.00     0.141 C 
HETATM   21  C   UNK N   1      27.416  17.664   6.272  0.00  0.00     0.057 C 
HETATM   22  C   UNK N   1      28.578  19.421   5.019  0.00  0.00     0.057 C 
BRANCH  20  23
HETATM   23  O   UNK N   1      27.205  17.869   3.890  0.00  0.00    -0.331 OA
BRANCH  23  24
HETATM   24  C   UNK N   1      26.132  18.686   3.737  0.00  0.00     0.070 A 
HETATM   25  C   UNK N   1      24.846  18.274   4.115  0.00  0.00     0.039 A 
HETATM   26  C   UNK N   1      23.744  19.096   3.852  0.00  0.00     0.039 A 
HETATM   27  C   UNK N   1      23.915  20.323   3.196  0.00  0.00     0.068 A 
HETATM   28  C   UNK N   1      25.210  20.741   2.848  0.00  0.00     0.039 A 
HETATM   29  C   UNK N   1      26.309  19.930   3.125  0.00  0.00     0.039 A 
BRANCH  27  30
HETATM   30  O   UNK N   1      22.827  21.071   2.896  0.00  0.00    -0.356 OA
HETATM   31  C   UNK N   1      21.622  20.525   2.515  0.00  0.00     0.210 C 
ENDBRANCH  27  30
ENDBRANCH  23  24
ENDBRANCH  20  23
ENDBRANCH   1  20
TORSDOF 6
ENDMDL
MODEL 3
REMARK VINA RESULT:      -7.4     18.530     22.502
REMARK  6 active torsions:
REMARK  status: ('A' for Active; 'I' for Inactive)
REMARK    1  A    between atoms: C_7  and  C_23 
REMARK       I    between atoms: C_7  and  N_15 
REMARK    2  A    between atoms: C_9  and  O_25 
REMARK    3  A    between atoms: C_11  and  O_27 
REMARK    4  A    between atoms: C_16  and  N_15 
REMARK    5  A    between atoms: C_19  and  C_20 
REMARK       I    between atoms: C_20  and  N_22 
REMARK    6  A    between atoms: C_23  and  O_25 
ROOT
HETATM    1  C   UNK N   1      27.341  24.360  -7.272  0.00  0.00     0.252 C 
HETATM    2  O   UNK N   1      27.567  25.388  -7.905  0.00  0.00    -0.270 OA
HETATM    3  N   UNK N   1      28.350  23.763  -6.570  0.00  0.00    -0.353 N 
HETATM    4  H   UNK N   1      28.168  22.924  -6.089  0.00  0.00     0.163 HD
ENDROOT
BRANCH   3   5
HETATM    5  C   UNK N   1      29.690  24.338  -6.516  0.00  0.00     0.092 C 
HETATM    6  C   UNK N   1      30.770  23.243  -6.632  0.00  0.00     0.010 C 
HETATM    7  C   UNK N   1      30.802  22.358  -5.369  0.00  0.00     0.026 C 
HETATM    8  C   UNK N   1      32.133  23.937  -6.786  0.00  0.00     0.011 C 
HETATM    9  C   UNK N   1      31.109  23.217  -4.120  0.00  0.00     0.042 C 
HETATM   10  C   UNK N   1      29.984  24.263  -3.982  0.00  0.00     0.026 C 
HETATM   11  C   UNK N   1      32.460  23.932  -4.320  0.00  0.00     0.024 C 
HETATM   12  C   UNK N   1      29.936  25.167  -5.231  0.00  0.00     0.010 C 
HETATM   13  C   UNK N   1      31.301  25.866  -5.380  0.00  0.00     0.011 C 
HETATM   14  C   UNK N   1      32.416  24.821  -5.562  0.00  0.00    -0.013 C 
BRANCH   9  15
HETATM   15  C   UNK N   1      31.209  22.388  -2.860  0.00  0.00     0.224 C 
HETATM   16  O   UNK N   1      30.845  22.860  -1.793  0.00  0.00    -0.273 OA
HETATM   17  N   UNK N   1      31.721  21.140  -2.890  0.00  0.00    -0.369 N 
HETATM   18  H   UNK N   1      31.718  20.454  -3.596  0.00  0.00     0.159 HD
HETATM   19  H   UNK N   1      32.177  20.868  -2.060  0.00  0.00     0.159 HD
ENDBRANCH   9  15
ENDBRANCH   3   5
BRANCH   1  20
HETATM   20  C   UNK N   1      25.930  23.790  -7.313  0.00  0.00     0.141 C 
HETATM   21  C   UNK N   1      25.239  24.264  -8.587  0.00  0.00     0.057 C 
HETATM   22  C   UNK N   1      25.945  22.271  -7.345  0.00  0.00     0.057 C 
BRANCH  20  23
HETATM   23  O   UNK N   1      25.212  24.192  -6.187  0.00  0.00    -0.331 OA
BRANCH  23  24
HETATM   24  C   UNK N   1      25.539  25.283  -5.447  0.00  0.00     0.070 A 
HETATM   25  C   UNK N   1      26.278  25.161  -4.263  0.00  0.00     0.039 A 
HETATM   26  C   UNK N   1      26.513  26.289  -3.466  0.00  0.00     0.039 A 
HETATM   27  C   UNK N   1      25.998  27.538  -3.838  0.00  0.00     0.068 A 
HETATM   28  C   UNK N   1      25.283  27.657  -5.042  0.00  0.00     0.039 A 
HETATM   29  C   UNK N   1      25.064  26.536  -5.843  0.00  0.00     0.039 A 
BRANCH  27  30
HETATM   30  O   UNK N   1      26.183  28.601  -3.021  0.00  0.00    -0.356 OA
HETATM   31  C   UNK N   1      27.428  29.029  -2.616  0.00  0.00     0.210 C 
ENDBRANCH  27  30
ENDBRANCH  23  24
ENDBRANCH  20  23
ENDBRANCH   1  20
TORSDOF 6
ENDMDL
MODEL 4
REMARK VINA RESULT:      -7.2      3.195      5.619
REMARK  6 active torsions:
REMARK  status: ('A' for Active; 'I' for Inactive)
REMARK    1  A    between atoms: C_7  and  C_23 
REMARK       I    between atoms: C_7  and  N_15 
REMARK    2  A    between atoms: C_9  and  O_25 
REMARK    3  A    between atoms: C_11  and  O_27 
REMARK    4  A    between atoms: C_16  and  N_15 
REMARK    5  A    between atoms: C_19  and  C_20 
REMARK       I    between atoms: C_20  and  N_22 
REMARK    6  A    between atoms: C_23  and  O_25 
ROOT
HETATM    1  C   UNK N   1      34.552  15.874   7.525  0.00  0.00     0.252 C 
HETATM    2  O   UNK N   1      35.343  15.718   6.598  0.00  0.00    -0.270 OA
HETATM    3  N   UNK N   1      34.698  15.142   8.670  0.00  0.00    -0.353 N 
HETATM    4  H   UNK N   1      34.043  15.252   9.396  0.00  0.00     0.163 HD
ENDROOT
BRANCH   3   5
HETATM    5  C   UNK N   1      35.801  14.203   8.842  0.00  0.00     0.092 C 
HETATM    6  C   UNK N   1      35.324  12.905   9.525  0.00  0.00     0.010 C 
HETATM    7  C   UNK N   1      34.948  13.158  11.000  0.00  0.00     0.026 C 
HETATM    8  C   UNK N   1      36.478  11.891   9.474  0.00  0.00     0.011 C 
HETATM    9  C   UNK N   1      36.169  13.699  11.779  0.00  0.00     0.042 C 
HETATM   10  C   UNK N   1      36.591  15.031  11.123  0.00  0.00     0.026 C 
HETATM   11  C   UNK N   1      37.323  12.682  11.676  0.00  0.00     0.024 C 
HETATM   12  C   UNK N   1      36.979  14.802   9.648  0.00  0.00     0.010 C 
HETATM   13  C   UNK N   1      38.141  13.791   9.601  0.00  0.00     0.011 C 
HETATM   14  C   UNK N   1      37.703  12.450  10.215  0.00  0.00    -0.013 C 
BRANCH   9  15
HETATM   15  C   UNK N   1      35.870  13.911  13.245  0.00  0.00     0.224 C 
HETATM   16  O   UNK N   1      34.839  13.463  13.725  0.00  0.00    -0.273 OA
HETATM   17  N   UNK N   1      36.713  14.612  14.031  0.00  0.00    -0.369 N 
HETATM   18  H   UNK N   1      37.691  14.726  13.995  0.00  0.00     0.159 HD
HETATM   19  H   UNK N   1      36.275  15.093  14.770  0.00  0.00     0.159 HD
ENDBRANCH   9  15
ENDBRANCH   3   5
BRANCH   1  20
HETATM   20  C   UNK N   1      33.425  16.881   7.341  0.00  0.00     0.141 C 
HETATM   21  C   UNK N   1      33.741  18.134   8.149  0.00  0.00     0.057 C 
HETATM   22  C   UNK N   1      33.290  17.304   5.887  0.00  0.00     0.057 C 
BRANCH  20  23
HETATM   23  O   UNK N   1      32.211  16.328   7.745  0.00  0.00    -0.331 OA
BRANCH  23  24
HETATM   24  C   UNK N   1      31.037  17.011   7.720  0.00  0.00     0.070 A 
HETATM   25  C   UNK N   1      30.218  17.004   6.582  0.00  0.00     0.039 A 
HETATM   26  C   UNK N   1      29.065  17.798   6.547  0.00  0.00     0.039 A 
HETATM   27  C   UNK N   1      28.733  18.614   7.637  0.00  0.00     0.068 A 
HETATM   28  C   UNK N   1      29.544  18.592   8.785  0.00  0.00     0.039 A 
HETATM   29  C   UNK N   1      30.683  17.789   8.826  0.00  0.00     0.039 A 
BRANCH  27  30
HETATM   30  O   UNK N   1      27.649  19.421   7.555  0.00  0.00    -0.356 OA
HETATM   31  C   UNK N   1      27.448  20.306   6.519  0.00  0.00     0.210 C 
ENDBRANCH  27  30
ENDBRANCH  23  24
ENDBRANCH  20  23
ENDBRANCH   1  20
TORSDOF 6
ENDMDL
MODEL 5
REMARK VINA RESULT:      -7.1     18.537     22.080
REMARK  6 active torsions:
REMARK  status: ('A' for Active; 'I' for Inactive)
REMARK    1  A    between atoms: C_7  and  C_23 
REMARK       I    between atoms: C_7  and  N_15 
REMARK    2  A    between atoms: C_9  and  O_25 
REMARK    3  A    between atoms: C_11  and  O_27 
REMARK    4  A    between atoms: C_16  and  N_15 
REMARK    5  A    between atoms: C_19  and  C_20 
REMARK       I    between atoms: C_20  and  N_22 
REMARK    6  A    between atoms: C_23  and  O_25 
ROOT
HETATM    1  C   UNK N   1      29.403  23.322  -4.652  0.00  0.00     0.252 C 
HETATM    2  O   UNK N   1      28.980  22.539  -5.500  0.00  0.00    -0.270 OA
HETATM    3  N   UNK N   1      28.820  24.550  -4.516  0.00  0.00    -0.353 N 
HETATM    4  H   UNK N   1      29.183  25.183  -3.855  0.00  0.00     0.163 HD
ENDROOT
BRANCH   3   5
HETATM    5  C   UNK N   1      27.674  24.948  -5.327  0.00  0.00     0.092 C 
HETATM    6  C   UNK N   1      27.942  26.283  -6.051  0.00  0.00     0.010 C 
HETATM    7  C   UNK N   1      27.991  27.458  -5.053  0.00  0.00     0.026 C 
HETATM    8  C   UNK N   1      26.793  26.523  -7.043  0.00  0.00     0.011 C 
HETATM    9  C   UNK N   1      26.647  27.574  -4.296  0.00  0.00     0.042 C 
HETATM   10  C   UNK N   1      26.428  26.256  -3.524  0.00  0.00     0.026 C 
HETATM   11  C   UNK N   1      25.509  27.772  -5.317  0.00  0.00     0.024 C 
HETATM   12  C   UNK N   1      26.368  25.065  -4.503  0.00  0.00     0.010 C 
HETATM   13  C   UNK N   1      25.211  25.305  -5.492  0.00  0.00     0.011 C 
HETATM   14  C   UNK N   1      25.455  26.597  -6.292  0.00  0.00    -0.013 C 
BRANCH   9  15
HETATM   15  C   UNK N   1      26.621  28.748  -3.344  0.00  0.00     0.224 C 
HETATM   16  O   UNK N   1      27.108  28.634  -2.228  0.00  0.00    -0.273 OA
HETATM   17  N   UNK N   1      26.044  29.915  -3.697  0.00  0.00    -0.369 N 
HETATM   18  H   UNK N   1      25.945  30.351  -4.574  0.00  0.00     0.159 HD
HETATM   19  H   UNK N   1      25.653  30.419  -2.946  0.00  0.00     0.159 HD
ENDBRANCH   9  15
ENDBRANCH   3   5
BRANCH   1  20
HETATM   20  C   UNK N   1      30.579  22.879  -3.793  0.00  0.00     0.141 C 
HETATM   21  C   UNK N   1      31.818  23.669  -4.201  0.00  0.00     0.057 C 
HETATM   22  C   UNK N   1      30.329  23.160  -2.321  0.00  0.00     0.057 C 
BRANCH  20  23
HETATM   23  O   UNK N   1      30.799  21.510  -3.941  0.00  0.00    -0.331 OA
BRANCH  23  24
HETATM   24  C   UNK N   1      31.992  20.985  -4.319  0.00  0.00     0.070 A 
HETATM   25  C   UNK N   1      32.184  20.474  -5.611  0.00  0.00     0.039 A 
HETATM   26  C   UNK N   1      33.391  19.845  -5.941  0.00  0.00     0.039 A 
HETATM   27  C   UNK N   1      34.404  19.709  -4.982  0.00  0.00     0.068 A 
HETATM   28  C   UNK N   1      34.215  20.250  -3.700  0.00  0.00     0.039 A 
HETATM   29  C   UNK N   1      33.019  20.890  -3.376  0.00  0.00     0.039 A 
BRANCH  27  30
HETATM   30  O   UNK N   1      35.537  19.042  -5.306  0.00  0.00    -0.356 OA
HETATM   31  C   UNK N   1      35.540  17.741  -5.759  0.00  0.00     0.210 C 
ENDBRANCH  27  30
ENDBRANCH  23  24
ENDBRANCH  20  23
ENDBRANCH   1  20
TORSDOF 6
ENDMDL
MODEL 6
REMARK VINA RESULT:      -7.0      7.572     10.971
REMARK  6 active torsions:
REMARK  status: ('A' for Active; 'I' for Inactive)
REMARK    1  A    between atoms: C_7  and  C_23 
REMARK       I    between atoms: C_7  and  N_15 
REMARK    2  A    between atoms: C_9  and  O_25 
REMARK    3  A    between atoms: C_11  and  O_27 
REMARK    4  A    between atoms: C_16  and  N_15 
REMARK    5  A    between atoms: C_19  and  C_20 
REMARK       I    between atoms: C_20  and  N_22 
REMARK    6  A    between atoms: C_23  and  O_25 
ROOT
HETATM    1  C   UNK N   1      29.713  17.617   7.270  0.00  0.00     0.252 C 
HETATM    2  O   UNK N   1      30.101  18.101   8.331  0.00  0.00    -0.270 OA
HETATM    3  N   UNK N   1      30.563  16.845   6.529  0.00  0.00    -0.353 N 
HETATM    4  H   UNK N   1      30.254  16.485   5.666  0.00  0.00     0.163 HD
ENDROOT
BRANCH   3   5
HETATM    5  C   UNK N   1      31.915  16.542   6.984  0.00  0.00     0.092 C 
HETATM    6  C   UNK N   1      32.957  17.413   6.252  0.00  0.00     0.010 C 
HETATM    7  C   UNK N   1      33.072  17.012   4.767  0.00  0.00     0.026 C 
HETATM    8  C   UNK N   1      34.318  17.196   6.932  0.00  0.00     0.011 C 
HETATM    9  C   UNK N   1      33.500  15.532   4.643  0.00  0.00     0.042 C 
HETATM   10  C   UNK N   1      32.415  14.671   5.321  0.00  0.00     0.026 C 
HETATM   11  C   UNK N   1      34.847  15.335   5.368  0.00  0.00     0.024 C 
HETATM   12  C   UNK N   1      32.285  15.048   6.812  0.00  0.00     0.010 C 
HETATM   13  C   UNK N   1      33.650  14.822   7.492  0.00  0.00     0.011 C 
HETATM   14  C   UNK N   1      34.721  15.716   6.842  0.00  0.00    -0.013 C 
BRANCH   9  15
HETATM   15  C   UNK N   1      33.685  15.103   3.205  0.00  0.00     0.224 C 
HETATM   16  O   UNK N   1      33.599  15.931   2.310  0.00  0.00    -0.273 OA
HETATM   17  N   UNK N   1      33.916  13.812   2.890  0.00  0.00    -0.369 N 
HETATM   18  H   UNK N   1      34.375  13.096   3.386  0.00  0.00     0.159 HD
HETATM   19  H   UNK N   1      33.566  13.539   2.011  0.00  0.00     0.159 HD
ENDBRANCH   9  15
ENDBRANCH   3   5
BRANCH   1  20
HETATM   20  C   UNK N   1      28.288  17.918   6.825  0.00  0.00     0.141 C 
HETATM   21  C   UNK N   1      27.362  16.828   7.352  0.00  0.00     0.057 C 
HETATM   22  C   UNK N   1      27.797  19.240   7.391  0.00  0.00     0.057 C 
BRANCH  20  23
HETATM   23  O   UNK N   1      28.221  17.991   5.435  0.00  0.00    -0.331 OA
BRANCH  23  24
HETATM   24  C   UNK N   1      27.269  18.696   4.772  0.00  0.00     0.070 A 
HETATM   25  C   UNK N   1      25.971  18.192   4.613  0.00  0.00     0.039 A 
HETATM   26  C   UNK N   1      25.039  18.893   3.838  0.00  0.00     0.039 A 
HETATM   27  C   UNK N   1      25.402  20.089   3.204  0.00  0.00     0.068 A 
HETATM   28  C   UNK N   1      26.696  20.602   3.392  0.00  0.00     0.039 A 
HETATM   29  C   UNK N   1      27.618  19.912   4.178  0.00  0.00     0.039 A 
BRANCH  27  30
HETATM   30  O   UNK N   1      24.504  20.716   2.408  0.00  0.00    -0.356 OA
HETATM   31  C   UNK N   1      23.144  20.662   2.621  0.00  0.00     0.210 C 
ENDBRANCH  27  30
ENDBRANCH  23  24
ENDBRANCH  20  23
ENDBRANCH   1  20
TORSDOF 6
ENDMDL
MODEL 7
REMARK VINA RESULT:      -7.0      9.478     14.252
REMARK  6 active torsions:
REMARK  status: ('A' for Active; 'I' for Inactive)
REMARK    1  A    between atoms: C_7  and  C_23 
REMARK       I    between atoms: C_7  and  N_15 
REMARK    2  A    between atoms: C_9  and  O_25 
REMARK    3  A    between atoms: C_11  and  O_27 
REMARK    4  A    between atoms: C_16  and  N_15 
REMARK    5  A    between atoms: C_19  and  C_20 
REMARK       I    between atoms: C_20  and  N_22 
REMARK    6  A    between atoms: C_23  and  O_25 
ROOT
HETATM    1  C   UNK N   1      25.702  19.029   4.752  0.00  0.00     0.252 C 
HETATM    2  O   UNK N   1      25.611  19.523   3.631  0.00  0.00    -0.270 OA
HETATM    3  N   UNK N   1      24.742  18.160   5.188  0.00  0.00    -0.353 N 
HETATM    4  H   UNK N   1      24.807  17.791   6.099  0.00  0.00     0.163 HD
ENDROOT
BRANCH   3   5
HETATM    5  C   UNK N   1      23.625  17.764   4.338  0.00  0.00     0.092 C 
HETATM    6  C   UNK N   1      22.356  18.576   4.672  0.00  0.00     0.010 C 
HETATM    7  C   UNK N   1      21.797  18.189   6.056  0.00  0.00     0.026 C 
HETATM    8  C   UNK N   1      21.298  18.263   3.603  0.00  0.00     0.011 C 
HETATM    9  C   UNK N   1      21.435  16.686   6.087  0.00  0.00     0.042 C 
HETATM   10  C   UNK N   1      22.728  15.888   5.817  0.00  0.00     0.026 C 
HETATM   11  C   UNK N   1      20.404  16.393   4.979  0.00  0.00     0.024 C 
HETATM   12  C   UNK N   1      23.304  16.252   4.433  0.00  0.00     0.010 C 
HETATM   13  C   UNK N   1      22.243  15.930   3.363  0.00  0.00     0.011 C 
HETATM   14  C   UNK N   1      20.972  16.762   3.610  0.00  0.00    -0.013 C 
BRANCH   9  15
HETATM   15  C   UNK N   1      20.827  16.266   7.405  0.00  0.00     0.224 C 
HETATM   16  O   UNK N   1      20.712  17.082   8.308  0.00  0.00    -0.273 OA
HETATM   17  N   UNK N   1      20.432  14.993   7.613  0.00  0.00    -0.369 N 
HETATM   18  H   UNK N   1      20.086  14.311   6.992  0.00  0.00     0.159 HD
HETATM   19  H   UNK N   1      20.503  14.692   8.548  0.00  0.00     0.159 HD
ENDBRANCH   9  15
ENDBRANCH   3   5
BRANCH   1  20
HETATM   20  C   UNK N   1      26.891  19.429   5.616  0.00  0.00     0.141 C 
HETATM   21  C   UNK N   1      28.067  19.776   4.711  0.00  0.00     0.057 C 
HETATM   22  C   UNK N   1      26.583  20.662   6.449  0.00  0.00     0.057 C 
BRANCH  20  23
HETATM   23  O   UNK N   1      27.228  18.392   6.484  0.00  0.00    -0.331 OA
BRANCH  23  24
HETATM   24  C   UNK N   1      28.486  18.197   6.957  0.00  0.00     0.070 A 
HETATM   25  C   UNK N   1      29.400  17.383   6.274  0.00  0.00     0.039 A 
HETATM   26  C   UNK N   1      30.655  17.117   6.837  0.00  0.00     0.039 A 
HETATM   27  C   UNK N   1      30.997  17.648   8.088  0.00  0.00     0.068 A 
HETATM   28  C   UNK N   1      30.086  18.487   8.752  0.00  0.00     0.039 A 
HETATM   29  C   UNK N   1      28.843  18.765   8.183  0.00  0.00     0.039 A 
BRANCH  27  30
HETATM   30  O   UNK N   1      32.190  17.326   8.641  0.00  0.00    -0.356 OA
HETATM   31  C   UNK N   1      33.381  17.888   8.237  0.00  0.00     0.210 C 
ENDBRANCH  27  30
ENDBRANCH  23  24
ENDBRANCH  20  23
ENDBRANCH   1  20
TORSDOF 6
ENDMDL
MODEL 8
REMARK VINA RESULT:      -6.9      8.353     11.192
REMARK  6 active torsions:
REMARK  status: ('A' for Active; 'I' for Inactive)
REMARK    1  A    between atoms: C_7  and  C_23 
REMARK       I    between atoms: C_7  and  N_15 
REMARK    2  A    between atoms: C_9  and  O_25 
REMARK    3  A    between atoms: C_11  and  O_27 
REMARK    4  A    between atoms: C_16  and  N_15 
REMARK    5  A    between atoms: C_19  and  C_20 
REMARK       I    between atoms: C_20  and  N_22 
REMARK    6  A    between atoms: C_23  and  O_25 
ROOT
HETATM    1  C   UNK N   1      28.773  15.529   3.428  0.00  0.00     0.252 C 
HETATM    2  O   UNK N   1      28.822  14.402   2.941  0.00  0.00    -0.270 OA
HETATM    3  N   UNK N   1      29.918  16.121   3.879  0.00  0.00    -0.353 N 
HETATM    4  H   UNK N   1      29.867  17.012   4.294  0.00  0.00     0.163 HD
ENDROOT
BRANCH   3   5
HETATM    5  C   UNK N   1      31.216  15.465   3.761  0.00  0.00     0.092 C 
HETATM    6  C   UNK N   1      31.592  14.737   5.068  0.00  0.00     0.010 C 
HETATM    7  C   UNK N   1      31.895  15.743   6.198  0.00  0.00     0.026 C 
HETATM    8  C   UNK N   1      32.851  13.899   4.798  0.00  0.00     0.011 C 
HETATM    9  C   UNK N   1      33.072  16.661   5.796  0.00  0.00     0.042 C 
HETATM   10  C   UNK N   1      32.653  17.431   4.526  0.00  0.00     0.026 C 
HETATM   11  C   UNK N   1      34.309  15.793   5.492  0.00  0.00     0.024 C 
HETATM   12  C   UNK N   1      32.352  16.446   3.378  0.00  0.00     0.010 C 
HETATM   13  C   UNK N   1      33.619  15.613   3.105  0.00  0.00     0.011 C 
HETATM   14  C   UNK N   1      34.007  14.812   4.360  0.00  0.00    -0.013 C 
BRANCH   9  15
HETATM   15  C   UNK N   1      33.449  17.630   6.894  0.00  0.00     0.224 C 
HETATM   16  O   UNK N   1      34.534  18.191   6.861  0.00  0.00    -0.273 OA
HETATM   17  N   UNK N   1      32.615  17.865   7.928  0.00  0.00    -0.369 N 
HETATM   18  H   UNK N   1      31.632  17.851   7.985  0.00  0.00     0.159 HD
HETATM   19  H   UNK N   1      33.068  18.091   8.773  0.00  0.00     0.159 HD
ENDBRANCH   9  15
ENDBRANCH   3   5
BRANCH   1  20
HETATM   20  C   UNK N   1      27.414  16.212   3.514  0.00  0.00     0.141 C 
HETATM   21  C   UNK N   1      26.455  15.537   2.540  0.00  0.00     0.057 C 
HETATM   22  C   UNK N   1      26.814  16.079   4.904  0.00  0.00     0.057 C 
BRANCH  20  23
HETATM   23  O   UNK N   1      27.536  17.569   3.222  0.00  0.00    -0.331 OA
BRANCH  23  24
HETATM   24  C   UNK N   1      27.172  18.552   4.086  0.00  0.00     0.070 A 
HETATM   25  C   UNK N   1      25.925  19.184   3.984  0.00  0.00     0.039 A 
HETATM   26  C   UNK N   1      25.618  20.262   4.822  0.00  0.00     0.039 A 
HETATM   27  C   UNK N   1      26.557  20.726   5.754  0.00  0.00     0.068 A 
HETATM   28  C   UNK N   1      27.793  20.068   5.870  0.00  0.00     0.039 A 
HETATM   29  C   UNK N   1      28.092  18.983   5.046  0.00  0.00     0.039 A 
BRANCH  27  30
HETATM   30  O   UNK N   1      26.261  21.809   6.510  0.00  0.00    -0.356 OA
HETATM   31  C   UNK N   1      25.885  21.723   7.832  0.00  0.00     0.210 C 
ENDBRANCH  27  30
ENDBRANCH  23  24
ENDBRANCH  20  23
ENDBRANCH   1  20
TORSDOF 6
ENDMDL
MODEL 9
REMARK VINA RESULT:      -6.9      2.211      3.209
REMARK  6 active torsions:
REMARK  status: ('A' for Active; 'I' for Inactive)
REMARK    1  A    between atoms: C_7  and  C_23 
REMARK       I    between atoms: C_7  and  N_15 
REMARK    2  A    between atoms: C_9  and  O_25 
REMARK    3  A    between atoms: C_11  and  O_27 
REMARK    4  A    between atoms: C_16  and  N_15 
REMARK    5  A    between atoms: C_19  and  C_20 
REMARK       I    between atoms: C_20  and  N_22 
REMARK    6  A    between atoms: C_23  and  O_25 
ROOT
HETATM    1  C   UNK N   1      34.886  13.898  11.239  0.00  0.00     0.252 C 
HETATM    2  O   UNK N   1      34.357  14.907  11.698  0.00  0.00    -0.270 OA
HETATM    3  N   UNK N   1      35.360  12.937  12.087  0.00  0.00    -0.353 N 
HETATM    4  H   UNK N   1      35.809  12.145  11.712  0.00  0.00     0.163 HD
ENDROOT
BRANCH   3   5
HETATM    5  C   UNK N   1      35.219  13.056  13.534  0.00  0.00     0.092 C 
HETATM    6  C   UNK N   1      36.595  13.177  14.220  0.00  0.00     0.010 C 
HETATM    7  C   UNK N   1      37.379  11.852  14.130  0.00  0.00     0.026 C 
HETATM    8  C   UNK N   1      36.360  13.515  15.700  0.00  0.00     0.011 C 
HETATM    9  C   UNK N   1      36.590  10.715  14.819  0.00  0.00     0.042 C 
HETATM   10  C   UNK N   1      35.245  10.563  14.079  0.00  0.00     0.026 C 
HETATM   11  C   UNK N   1      36.333  11.098  16.289  0.00  0.00     0.024 C 
HETATM   12  C   UNK N   1      34.437  11.875  14.160  0.00  0.00     0.010 C 
HETATM   13  C   UNK N   1      34.196  12.207  15.646  0.00  0.00     0.011 C 
HETATM   14  C   UNK N   1      35.540  12.402  16.370  0.00  0.00    -0.013 C 
BRANCH   9  15
HETATM   15  C   UNK N   1      37.342   9.403  14.810  0.00  0.00     0.224 C 
HETATM   16  O   UNK N   1      38.537   9.391  14.552  0.00  0.00    -0.273 OA
HETATM   17  N   UNK N   1      36.708   8.238  15.056  0.00  0.00    -0.369 N 
HETATM   18  H   UNK N   1      35.926   8.031  15.618  0.00  0.00     0.159 HD
HETATM   19  H   UNK N   1      37.095   7.459  14.594  0.00  0.00     0.159 HD
ENDBRANCH   9  15
ENDBRANCH   3   5
BRANCH   1  20
HETATM   20  C   UNK N   1      34.998  13.775   9.725  0.00  0.00     0.141 C 
HETATM   21  C   UNK N   1      35.880  12.578   9.388  0.00  0.00     0.057 C 
HETATM   22  C   UNK N   1      33.641  13.529   9.087  0.00  0.00     0.057 C 
BRANCH  20  23
HETATM   23  O   UNK N   1      35.527  14.944   9.182  0.00  0.00    -0.331 OA
BRANCH  23  24
HETATM   24  C   UNK N   1      34.929  15.636   8.178  0.00  0.00     0.070 A 
HETATM   25  C   UNK N   1      35.004  15.196   6.850  0.00  0.00     0.039 A 
HETATM   26  C   UNK N   1      34.467  15.982   5.823  0.00  0.00     0.039 A 
HETATM   27  C   UNK N   1      33.868  17.215   6.113  0.00  0.00     0.068 A 
HETATM   28  C   UNK N   1      33.770  17.634   7.451  0.00  0.00     0.039 A 
HETATM   29  C   UNK N   1      34.291  16.843   8.475  0.00  0.00     0.039 A 
BRANCH  27  30
HETATM   30  O   UNK N   1      33.412  17.986   5.098  0.00  0.00    -0.356 OA
HETATM   31  C   UNK N   1      32.682  17.484   4.043  0.00  0.00     0.210 C 
ENDBRANCH  27  30
ENDBRANCH  23  24
ENDBRANCH  20  23
ENDBRANCH   1  20
TORSDOF 6
ENDMDL
