MODEL 1
REMARK VINA RESULT:      -6.7      0.000      0.000
REMARK  6 active torsions:
REMARK  status: ('A' for Active; 'I' for Inactive)
REMARK    1  A    between atoms: C_7  and  N_8 
REMARK    2  A    between atoms: N_8  and  C_9 
REMARK    3  A    between atoms: C_9  and  O_11 
REMARK    4  A    between atoms: O_11  and  C_12 
REMARK    5  A    between atoms: C_12  and  C_13 
REMARK    6  A    between atoms: C_13  and  N_14 
ROOT
HETATM    1  C   UNK N   1      36.651  10.582  12.721  0.00  0.00     0.198 C 
ENDROOT
BRANCH   1   2
HETATM    2  O   UNK N   1      37.371  11.744  12.826  0.00  0.00    -0.325 OA
BRANCH   2   3
HETATM    3  C   UNK N   1      37.411  12.707  11.881  0.00  0.00     0.214 C 
HETATM    4  S   UNK N   1      38.024  12.380  10.618  0.00  0.00    -0.033 SA
BRANCH   3   5
HETATM    5  N   UNK N   1      36.926  14.033  12.153  0.00  0.00    -0.328 N 
HETATM    6  H   UNK N   1      37.306  14.514  12.924  0.00  0.00     0.169 HD
BRANCH   5   7
HETATM    7  C   UNK N   1      35.928  14.699  11.376  0.00  0.00     0.034 A 
HETATM    8  C   UNK N   1      34.769  14.024  10.952  0.00  0.00     0.031 A 
HETATM    9  C   UNK N   1      33.851  14.648  10.110  0.00  0.00     0.021 A 
HETATM   10  C   UNK N   1      34.076  15.956   9.685  0.00  0.00     0.011 A 
HETATM   11 Br   UNK N   1      32.866  16.766   8.457  0.00  0.00    -0.051 Br
HETATM   12  C   UNK N   1      35.204  16.652  10.133  0.00  0.00     0.021 A 
HETATM   13  C   UNK N   1      36.125  16.028  10.985  0.00  0.00     0.031 A 
ENDBRANCH   5   7
ENDBRANCH   3   5
ENDBRANCH   2   3
ENDBRANCH   1   2
BRANCH   1  14
HETATM   14  C   UNK N   1      35.289  10.898  13.319  0.00  0.00     0.162 C 
BRANCH  14  15
HETATM   15  N   UNK N   1      35.348  11.263  14.716  0.00  0.00    -0.278 N 
HETATM   16  C   UNK N   1      35.513  10.423  15.767  0.00  0.00     0.261 A 
HETATM   17  O   UNK N   1      35.678   9.217  15.671  0.00  0.00    -0.267 OA
HETATM   18  C   UNK N   1      35.442  11.187  17.011  0.00  0.00     0.048 A 
HETATM   19  C   UNK N   1      35.540  10.805  18.345  0.00  0.00     0.018 A 
HETATM   20  C   UNK N   1      35.219  12.498  16.648  0.00  0.00     0.048 A 
HETATM   21  C   UNK N   1      35.402  11.806  19.325  0.00  0.00     0.001 A 
HETATM   22  C   UNK N   1      35.167  13.149  18.951  0.00  0.00     0.001 A 
HETATM   23  C   UNK N   1      35.072  13.507  17.594  0.00  0.00     0.018 A 
HETATM   24  C   UNK N   1      35.166  12.516  15.188  0.00  0.00     0.261 A 
HETATM   25  O   UNK N   1      34.955  13.493  14.486  0.00  0.00    -0.267 OA
ENDBRANCH  14  15
ENDBRANCH   1  14
TORSDOF 6
ENDMDL
MODEL 2
REMARK VINA RESULT:      -6.6     14.219     16.167
REMARK  6 active torsions:
REMARK  status: ('A' for Active; 'I' for Inactive)
REMARK    1  A    between atoms: C_7  and  N_8 
REMARK    2  A    between atoms: N_8  and  C_9 
REMARK    3  A    between atoms: C_9  and  O_11 
REMARK    4  A    between atoms: O_11  and  C_12 
REMARK    5  A    between atoms: C_12  and  C_13 
REMARK    6  A    between atoms: C_13  and  N_14 
ROOT
HETATM    1  C   UNK N   1      20.047  14.305   6.233  0.00  0.00     0.198 C 
ENDROOT
BRANCH   1   2
HETATM    2  O   UNK N   1      19.169  15.092   5.535  0.00  0.00    -0.325 OA
BRANCH   2   3
HETATM    3  C   UNK N   1      19.312  15.433   4.237  0.00  0.00     0.214 C 
HETATM    4  S   UNK N   1      19.664  14.389   3.307  0.00  0.00    -0.033 SA
BRANCH   3   5
HETATM    5  N   UNK N   1      19.191  16.801   3.812  0.00  0.00    -0.328 N 
HETATM    6  H   UNK N   1      18.296  17.130   3.566  0.00  0.00     0.169 HD
BRANCH   5   7
HETATM    7  C   UNK N   1      20.286  17.715   3.722  0.00  0.00     0.034 A 
HETATM    8  C   UNK N   1      20.174  18.912   2.994  0.00  0.00     0.031 A 
HETATM    9  C   UNK N   1      21.276  19.749   2.825  0.00  0.00     0.021 A 
HETATM   10  C   UNK N   1      22.504  19.401   3.386  0.00  0.00     0.011 A 
HETATM   11 Br   UNK N   1      24.027  20.499   3.068  0.00  0.00    -0.051 Br
HETATM   12  C   UNK N   1      22.618  18.232   4.148  0.00  0.00     0.021 A 
HETATM   13  C   UNK N   1      21.509  17.394   4.323  0.00  0.00     0.031 A 
ENDBRANCH   5   7
ENDBRANCH   3   5
ENDBRANCH   2   3
ENDBRANCH   1   2
BRANCH   1  14
HETATM   14  C   UNK N   1      20.538  15.170   7.383  0.00  0.00     0.162 C 
BRANCH  14  15
HETATM   15  N   UNK N   1      21.310  14.437   8.360  0.00  0.00    -0.278 N 
HETATM   16  C   UNK N   1      22.631  14.138   8.292  0.00  0.00     0.261 A 
HETATM   17  O   UNK N   1      23.375  14.489   7.390  0.00  0.00    -0.267 OA
HETATM   18  C   UNK N   1      23.001  13.322   9.446  0.00  0.00     0.048 A 
HETATM   19  C   UNK N   1      24.210  12.755   9.837  0.00  0.00     0.018 A 
HETATM   20  C   UNK N   1      21.849  13.149  10.183  0.00  0.00     0.048 A 
HETATM   21  C   UNK N   1      24.224  11.990  11.018  0.00  0.00     0.001 A 
HETATM   22  C   UNK N   1      23.040  11.808  11.769  0.00  0.00     0.001 A 
HETATM   23  C   UNK N   1      21.830  12.392  11.350  0.00  0.00     0.018 A 
HETATM   24  C   UNK N   1      20.794  13.867   9.472  0.00  0.00     0.261 A 
HETATM   25  O   UNK N   1      19.618  13.927   9.795  0.00  0.00    -0.267 OA
ENDBRANCH  14  15
ENDBRANCH   1  14
TORSDOF 6
ENDMDL
MODEL 3
REMARK VINA RESULT:      -6.5      5.796      8.884
REMARK  6 active torsions:
REMARK  status: ('A' for Active; 'I' for Inactive)
REMARK    1  A    between atoms: C_7  and  N_8 
REMARK    2  A    between atoms: N_8  and  C_9 
REMARK    3  A    between atoms: C_9  and  O_11 
REMARK    4  A    between atoms: O_11  and  C_12 
REMARK    5  A    between atoms: C_12  and  C_13 
REMARK    6  A    between atoms: C_13  and  N_14 
ROOT
HETATM    1  C   UNK N   1      35.158  12.970   8.637  0.00  0.00     0.198 C 
ENDROOT
BRANCH   1   2
HETATM    2  O   UNK N   1      36.005  13.973   9.032  0.00  0.00    -0.325 OA
BRANCH   2   3
HETATM    3  C   UNK N   1      35.720  14.883   9.987  0.00  0.00     0.214 C 
HETATM    4  S   UNK N   1      35.770  14.448  11.360  0.00  0.00    -0.033 SA
BRANCH   3   5
HETATM    5  N   UNK N   1      35.310  16.217   9.642  0.00  0.00    -0.328 N 
HETATM    6  H   UNK N   1      35.965  16.944   9.753  0.00  0.00     0.169 HD
BRANCH   5   7
HETATM    7  C   UNK N   1      34.013  16.557   9.148  0.00  0.00     0.034 A 
HETATM    8  C   UNK N   1      33.759  17.821   8.588  0.00  0.00     0.031 A 
HETATM    9  C   UNK N   1      32.469  18.183   8.203  0.00  0.00     0.021 A 
HETATM   10  C   UNK N   1      31.417  17.283   8.369  0.00  0.00     0.011 A 
HETATM   11 Br   UNK N   1      29.643  17.821   7.931  0.00  0.00    -0.051 Br
HETATM   12  C   UNK N   1      31.665  16.007   8.887  0.00  0.00     0.021 A 
HETATM   13  C   UNK N   1      32.962  15.641   9.269  0.00  0.00     0.031 A 
ENDBRANCH   5   7
ENDBRANCH   3   5
ENDBRANCH   2   3
ENDBRANCH   1   2
BRANCH   1  14
HETATM   14  C   UNK N   1      35.283  12.910   7.123  0.00  0.00     0.162 C 
BRANCH  14  15
HETATM   15  N   UNK N   1      34.456  13.880   6.442  0.00  0.00    -0.278 N 
HETATM   16  C   UNK N   1      34.839  15.101   5.996  0.00  0.00     0.261 A 
HETATM   17  O   UNK N   1      35.974  15.544   6.076  0.00  0.00    -0.267 OA
HETATM   18  C   UNK N   1      33.682  15.793   5.432  0.00  0.00     0.048 A 
HETATM   19  C   UNK N   1      33.538  17.053   4.859  0.00  0.00     0.018 A 
HETATM   20  C   UNK N   1      32.611  14.937   5.575  0.00  0.00     0.048 A 
HETATM   21  C   UNK N   1      32.254  17.434   4.426  0.00  0.00     0.001 A 
HETATM   22  C   UNK N   1      31.156  16.556   4.580  0.00  0.00     0.001 A 
HETATM   23  C   UNK N   1      31.329  15.288   5.163  0.00  0.00     0.018 A 
HETATM   24  C   UNK N   1      33.132  13.732   6.217  0.00  0.00     0.261 A 
HETATM   25  O   UNK N   1      32.483  12.749   6.540  0.00  0.00    -0.267 OA
ENDBRANCH  14  15
ENDBRANCH   1  14
TORSDOF 6
ENDMDL
MODEL 4
REMARK VINA RESULT:      -6.5     21.393     23.824
REMARK  6 active torsions:
REMARK  status: ('A' for Active; 'I' for Inactive)
REMARK    1  A    between atoms: C_7  and  N_8 
REMARK    2  A    between atoms: N_8  and  C_9 
REMARK    3  A    between atoms: C_9  and  O_11 
REMARK    4  A    between atoms: O_11  and  C_12 
REMARK    5  A    between atoms: C_12  and  C_13 
REMARK    6  A    between atoms: C_13  and  N_14 
ROOT
HETATM    1  C   UNK N   1      25.690  26.699  -5.501  0.00  0.00     0.198 C 
ENDROOT
BRANCH   1   2
HETATM    2  O   UNK N   1      25.235  25.460  -5.869  0.00  0.00    -0.325 OA
BRANCH   2   3
HETATM    3  C   UNK N   1      25.624  24.801  -6.981  0.00  0.00     0.214 C 
HETATM    4  S   UNK N   1      25.981  25.588  -8.134  0.00  0.00    -0.033 SA
BRANCH   3   5
HETATM    5  N   UNK N   1      25.609  23.364  -7.035  0.00  0.00    -0.328 N 
HETATM    6  H   UNK N   1      24.743  22.907  -6.926  0.00  0.00     0.169 HD
BRANCH   5   7
HETATM    7  C   UNK N   1      26.769  22.555  -7.238  0.00  0.00     0.034 A 
HETATM    8  C   UNK N   1      26.740  21.448  -8.104  0.00  0.00     0.031 A 
HETATM    9  C   UNK N   1      27.842  20.604  -8.218  0.00  0.00     0.021 A 
HETATM   10  C   UNK N   1      28.991  20.858  -7.471  0.00  0.00     0.011 A 
HETATM   11 Br   UNK N   1      30.457  19.644  -7.559  0.00  0.00    -0.051 Br
HETATM   12  C   UNK N   1      29.048  21.980  -6.636  0.00  0.00     0.021 A 
HETATM   13  C   UNK N   1      27.942  22.832  -6.526  0.00  0.00     0.031 A 
ENDBRANCH   5   7
ENDBRANCH   3   5
ENDBRANCH   2   3
ENDBRANCH   1   2
BRANCH   1  14
HETATM   14  C   UNK N   1      26.086  26.564  -4.039  0.00  0.00     0.162 C 
BRANCH  14  15
HETATM   15  N   UNK N   1      27.298  25.802  -3.843  0.00  0.00    -0.278 N 
HETATM   16  C   UNK N   1      28.554  26.173  -4.194  0.00  0.00     0.261 A 
HETATM   17  O   UNK N   1      28.845  27.245  -4.700  0.00  0.00    -0.267 OA
HETATM   18  C   UNK N   1      29.481  25.085  -3.887  0.00  0.00     0.048 A 
HETATM   19  C   UNK N   1      30.856  24.958  -4.058  0.00  0.00     0.018 A 
HETATM   20  C   UNK N   1      28.720  24.066  -3.356  0.00  0.00     0.048 A 
HETATM   21  C   UNK N   1      31.455  23.744  -3.670  0.00  0.00     0.001 A 
HETATM   22  C   UNK N   1      30.671  22.697  -3.132  0.00  0.00     0.001 A 
HETATM   23  C   UNK N   1      29.282  22.853  -2.971  0.00  0.00     0.018 A 
HETATM   24  C   UNK N   1      27.341  24.549  -3.339  0.00  0.00     0.261 A 
HETATM   25  O   UNK N   1      26.362  23.923  -2.965  0.00  0.00    -0.267 OA
ENDBRANCH  14  15
ENDBRANCH   1  14
TORSDOF 6
ENDMDL
MODEL 5
REMARK VINA RESULT:      -6.5      6.681      9.671
REMARK  6 active torsions:
REMARK  status: ('A' for Active; 'I' for Inactive)
REMARK    1  A    between atoms: C_7  and  N_8 
REMARK    2  A    between atoms: N_8  and  C_9 
REMARK    3  A    between atoms: C_9  and  O_11 
REMARK    4  A    between atoms: O_11  and  C_12 
REMARK    5  A    between atoms: C_12  and  C_13 
REMARK    6  A    between atoms: C_13  and  N_14 
ROOT
HETATM    1  C   UNK N   1      34.196  15.797   9.538  0.00  0.00     0.198 C 
ENDROOT
BRANCH   1   2
HETATM    2  O   UNK N   1      35.383  15.582   8.887  0.00  0.00    -0.325 OA
BRANCH   2   3
HETATM    3  C   UNK N   1      35.677  14.471   8.179  0.00  0.00     0.214 C 
HETATM    4  S   UNK N   1      36.057  13.291   8.915  0.00  0.00    -0.033 SA
BRANCH   3   5
HETATM    5  N   UNK N   1      35.684  14.487   6.741  0.00  0.00    -0.328 N 
HETATM    6  H   UNK N   1      36.544  14.635   6.286  0.00  0.00     0.169 HD
BRANCH   5   7
HETATM    7  C   UNK N   1      34.522  14.302   5.930  0.00  0.00     0.034 A 
HETATM    8  C   UNK N   1      33.325  13.811   6.479  0.00  0.00     0.031 A 
HETATM    9  C   UNK N   1      32.228  13.536   5.665  0.00  0.00     0.021 A 
HETATM   10  C   UNK N   1      32.313  13.753   4.290  0.00  0.00     0.011 A 
HETATM   11 Br   UNK N   1      30.844  13.283   3.172  0.00  0.00    -0.051 Br
HETATM   12  C   UNK N   1      33.485  14.281   3.737  0.00  0.00     0.021 A 
HETATM   13  C   UNK N   1      34.586  14.563   4.557  0.00  0.00     0.031 A 
ENDBRANCH   5   7
ENDBRANCH   3   5
ENDBRANCH   2   3
ENDBRANCH   1   2
BRANCH   1  14
HETATM   14  C   UNK N   1      33.758  17.193   9.126  0.00  0.00     0.162 C 
BRANCH  14  15
HETATM   15  N   UNK N   1      32.954  17.208   7.925  0.00  0.00    -0.278 N 
HETATM   16  C   UNK N   1      31.658  16.826   7.811  0.00  0.00     0.261 A 
HETATM   17  O   UNK N   1      30.964  16.444   8.740  0.00  0.00    -0.267 OA
HETATM   18  C   UNK N   1      31.246  16.928   6.413  0.00  0.00     0.048 A 
HETATM   19  C   UNK N   1      30.041  16.652   5.774  0.00  0.00     0.018 A 
HETATM   20  C   UNK N   1      32.350  17.372   5.716  0.00  0.00     0.048 A 
HETATM   21  C   UNK N   1      29.980  16.839   4.381  0.00  0.00     0.001 A 
HETATM   22  C   UNK N   1      31.115  17.288   3.667  0.00  0.00     0.001 A 
HETATM   23  C   UNK N   1      32.321  17.559   4.338  0.00  0.00     0.018 A 
HETATM   24  C   UNK N   1      33.416  17.542   6.700  0.00  0.00     0.261 A 
HETATM   25  O   UNK N   1      34.562  17.896   6.468  0.00  0.00    -0.267 OA
ENDBRANCH  14  15
ENDBRANCH   1  14
TORSDOF 6
ENDMDL
MODEL 6
REMARK VINA RESULT:      -6.5     21.481     23.914
REMARK  6 active torsions:
REMARK  status: ('A' for Active; 'I' for Inactive)
REMARK    1  A    between atoms: C_7  and  N_8 
REMARK    2  A    between atoms: N_8  and  C_9 
REMARK    3  A    between atoms: C_9  and  O_11 
REMARK    4  A    between atoms: O_11  and  C_12 
REMARK    5  A    between atoms: C_12  and  C_13 
REMARK    6  A    between atoms: C_13  and  N_14 
ROOT
HETATM    1  C   UNK N   1      25.479  26.742  -5.525  0.00  0.00     0.198 C 
ENDROOT
BRANCH   1   2
HETATM    2  O   UNK N   1      25.213  25.467  -5.951  0.00  0.00    -0.325 OA
BRANCH   2   3
HETATM    3  C   UNK N   1      25.661  24.937  -7.109  0.00  0.00     0.214 C 
HETATM    4  S   UNK N   1      26.179  25.845  -8.102  0.00  0.00    -0.033 SA
BRANCH   3   5
HETATM    5  N   UNK N   1      25.554  23.527  -7.370  0.00  0.00    -0.328 N 
HETATM    6  H   UNK N   1      24.664  23.164  -7.583  0.00  0.00     0.169 HD
BRANCH   5   7
HETATM    7  C   UNK N   1      26.657  22.619  -7.341  0.00  0.00     0.034 A 
HETATM    8  C   UNK N   1      27.810  22.902  -6.589  0.00  0.00     0.031 A 
HETATM    9  C   UNK N   1      28.921  22.063  -6.646  0.00  0.00     0.021 A 
HETATM   10  C   UNK N   1      28.892  20.927  -7.452  0.00  0.00     0.011 A 
HETATM   11 Br   UNK N   1      30.449  19.839  -7.601  0.00  0.00    -0.051 Br
HETATM   12  C   UNK N   1      27.735  20.612  -8.174  0.00  0.00     0.021 A 
HETATM   13  C   UNK N   1      26.615  21.452  -8.112  0.00  0.00     0.031 A 
ENDBRANCH   5   7
ENDBRANCH   3   5
ENDBRANCH   2   3
ENDBRANCH   1   2
BRANCH   1  14
HETATM   14  C   UNK N   1      25.965  26.594  -4.092  0.00  0.00     0.162 C 
BRANCH  14  15
HETATM   15  N   UNK N   1      27.171  25.806  -3.975  0.00  0.00    -0.278 N 
HETATM   16  C   UNK N   1      27.285  24.578  -3.411  0.00  0.00     0.261 A 
HETATM   17  O   UNK N   1      26.353  23.938  -2.949  0.00  0.00    -0.267 OA
HETATM   18  C   UNK N   1      28.687  24.166  -3.432  0.00  0.00     0.048 A 
HETATM   19  C   UNK N   1      29.327  23.017  -2.978  0.00  0.00     0.018 A 
HETATM   20  C   UNK N   1      29.385  25.201  -4.018  0.00  0.00     0.048 A 
HETATM   21  C   UNK N   1      30.724  22.941  -3.134  0.00  0.00     0.001 A 
HETATM   22  C   UNK N   1      31.439  24.006  -3.728  0.00  0.00     0.001 A 
HETATM   23  C   UNK N   1      30.766  25.156  -4.179  0.00  0.00     0.018 A 
HETATM   24  C   UNK N   1      28.398  26.225  -4.353  0.00  0.00     0.261 A 
HETATM   25  O   UNK N   1      28.630  27.311  -4.862  0.00  0.00    -0.267 OA
ENDBRANCH  14  15
ENDBRANCH   1  14
TORSDOF 6
ENDMDL
MODEL 7
REMARK VINA RESULT:      -6.4      3.585      8.110
REMARK  6 active torsions:
REMARK  status: ('A' for Active; 'I' for Inactive)
REMARK    1  A    between atoms: C_7  and  N_8 
REMARK    2  A    between atoms: N_8  and  C_9 
REMARK    3  A    between atoms: C_9  and  O_11 
REMARK    4  A    between atoms: O_11  and  C_12 
REMARK    5  A    between atoms: C_12  and  C_13 
REMARK    6  A    between atoms: C_13  and  N_14 
ROOT
HETATM    1  C   UNK N   1      36.159  15.161  12.184  0.00  0.00     0.198 C 
ENDROOT
BRANCH   1   2
HETATM    2  O   UNK N   1      35.550  13.963  12.451  0.00  0.00    -0.325 OA
BRANCH   2   3
HETATM    3  C   UNK N   1      36.195  12.850  12.858  0.00  0.00     0.214 C 
HETATM    4  S   UNK N   1      36.056  11.663  12.052  0.00  0.00    -0.033 SA
BRANCH   3   5
HETATM    5  N   UNK N   1      36.933  12.830  14.093  0.00  0.00    -0.328 N 
HETATM    6  H   UNK N   1      37.856  13.171  14.083  0.00  0.00     0.169 HD
BRANCH   5   7
HETATM    7  C   UNK N   1      36.412  12.347  15.333  0.00  0.00     0.034 A 
HETATM    8  C   UNK N   1      35.675  13.186  16.186  0.00  0.00     0.031 A 
HETATM    9  C   UNK N   1      35.258  12.740  17.438  0.00  0.00     0.021 A 
HETATM   10  C   UNK N   1      35.569  11.446  17.853  0.00  0.00     0.011 A 
HETATM   11 Br   UNK N   1      35.082  10.877  19.604  0.00  0.00    -0.051 Br
HETATM   12  C   UNK N   1      36.267  10.587  16.996  0.00  0.00     0.021 A 
HETATM   13  C   UNK N   1      36.681  11.033  15.734  0.00  0.00     0.031 A 
ENDBRANCH   5   7
ENDBRANCH   3   5
ENDBRANCH   2   3
ENDBRANCH   1   2
BRANCH   1  14
HETATM   14  C   UNK N   1      36.365  15.181  10.677  0.00  0.00     0.162 C 
BRANCH  14  15
HETATM   15  N   UNK N   1      35.174  15.541   9.942  0.00  0.00    -0.278 N 
HETATM   16  C   UNK N   1      34.286  14.690   9.371  0.00  0.00     0.261 A 
HETATM   17  O   UNK N   1      34.352  13.473   9.435  0.00  0.00    -0.267 OA
HETATM   18  C   UNK N   1      33.267  15.462   8.662  0.00  0.00     0.048 A 
HETATM   19  C   UNK N   1      32.157  15.076   7.918  0.00  0.00     0.018 A 
HETATM   20  C   UNK N   1      33.599  16.789   8.832  0.00  0.00     0.048 A 
HETATM   21  C   UNK N   1      31.374  16.090   7.335  0.00  0.00     0.001 A 
HETATM   22  C   UNK N   1      31.720  17.451   7.506  0.00  0.00     0.001 A 
HETATM   23  C   UNK N   1      32.848  17.813   8.263  0.00  0.00     0.018 A 
HETATM   24  C   UNK N   1      34.811  16.809   9.649  0.00  0.00     0.261 A 
HETATM   25  O   UNK N   1      35.433  17.802   9.993  0.00  0.00    -0.267 OA
ENDBRANCH  14  15
ENDBRANCH   1  14
TORSDOF 6
ENDMDL
MODEL 8
REMARK VINA RESULT:      -6.4      2.352      2.976
REMARK  6 active torsions:
REMARK  status: ('A' for Active; 'I' for Inactive)
REMARK    1  A    between atoms: C_7  and  N_8 
REMARK    2  A    between atoms: N_8  and  C_9 
REMARK    3  A    between atoms: C_9  and  O_11 
REMARK    4  A    between atoms: O_11  and  C_12 
REMARK    5  A    between atoms: C_12  and  C_13 
REMARK    6  A    between atoms: C_13  and  N_14 
ROOT
HETATM    1  C   UNK N   1      35.357  12.905  11.612  0.00  0.00     0.198 C 
ENDROOT
BRANCH   1   2
HETATM    2  O   UNK N   1      34.648  14.029  11.945  0.00  0.00    -0.325 OA
BRANCH   2   3
HETATM    3  C   UNK N   1      34.371  15.039  11.094  0.00  0.00     0.214 C 
HETATM    4  S   UNK N   1      35.335  16.106  10.987  0.00  0.00    -0.033 SA
BRANCH   3   5
HETATM    5  N   UNK N   1      33.125  15.085  10.377  0.00  0.00    -0.328 N 
HETATM    6  H   UNK N   1      32.315  14.776  10.843  0.00  0.00     0.169 HD
BRANCH   5   7
HETATM    7  C   UNK N   1      32.988  15.551   9.034  0.00  0.00     0.034 A 
HETATM    8  C   UNK N   1      33.436  14.777   7.948  0.00  0.00     0.031 A 
HETATM    9  C   UNK N   1      33.392  15.280   6.650  0.00  0.00     0.021 A 
HETATM   10  C   UNK N   1      32.896  16.562   6.418  0.00  0.00     0.011 A 
HETATM   11 Br   UNK N   1      32.932  17.279   4.653  0.00  0.00    -0.051 Br
HETATM   12  C   UNK N   1      32.410  17.326   7.485  0.00  0.00     0.021 A 
HETATM   13  C   UNK N   1      32.447  16.819   8.790  0.00  0.00     0.031 A 
ENDBRANCH   5   7
ENDBRANCH   3   5
ENDBRANCH   2   3
ENDBRANCH   1   2
BRANCH   1  14
HETATM   14  C   UNK N   1      36.615  12.953  12.466  0.00  0.00     0.162 C 
BRANCH  14  15
HETATM   15  N   UNK N   1      36.349  12.838  13.882  0.00  0.00    -0.278 N 
HETATM   16  C   UNK N   1      35.997  11.712  14.551  0.00  0.00     0.261 A 
HETATM   17  O   UNK N   1      35.891  10.607  14.043  0.00  0.00    -0.267 OA
HETATM   18  C   UNK N   1      35.749  12.043  15.953  0.00  0.00     0.048 A 
HETATM   19  C   UNK N   1      35.361  11.265  17.039  0.00  0.00     0.018 A 
HETATM   20  C   UNK N   1      35.960  13.400  16.074  0.00  0.00     0.048 A 
HETATM   21  C   UNK N   1      35.185  11.909  18.278  0.00  0.00     0.001 A 
HETATM   22  C   UNK N   1      35.394  13.302  18.398  0.00  0.00     0.001 A 
HETATM   23  C   UNK N   1      35.787  14.066  17.283  0.00  0.00     0.018 A 
HETATM   24  C   UNK N   1      36.340  13.876  14.746  0.00  0.00     0.261 A 
HETATM   25  O   UNK N   1      36.581  15.033  14.436  0.00  0.00    -0.267 OA
ENDBRANCH  14  15
ENDBRANCH   1  14
TORSDOF 6
ENDMDL
MODEL 9
REMARK VINA RESULT:      -6.4      6.843     10.223
REMARK  6 active torsions:
REMARK  status: ('A' for Active; 'I' for Inactive)
REMARK    1  A    between atoms: C_7  and  N_8 
REMARK    2  A    between atoms: N_8  and  C_9 
REMARK    3  A    between atoms: C_9  and  O_11 
REMARK    4  A    between atoms: O_11  and  C_12 
REMARK    5  A    between atoms: C_12  and  C_13 
REMARK    6  A    between atoms: C_13  and  N_14 
ROOT
HETATM    1  C   UNK N   1      34.058  16.774   9.247  0.00  0.00     0.198 C 
ENDROOT
BRANCH   1   2
HETATM    2  O   UNK N   1      33.595  15.484   9.207  0.00  0.00    -0.325 OA
BRANCH   2   3
HETATM    3  C   UNK N   1      34.281  14.440   8.697  0.00  0.00     0.214 C 
HETATM    4  S   UNK N   1      34.543  13.323   9.569  0.00  0.00    -0.033 SA
BRANCH   3   5
HETATM    5  N   UNK N   1      34.797  14.475   7.355  0.00  0.00    -0.328 N 
HETATM    6  H   UNK N   1      35.703  14.836   7.218  0.00  0.00     0.169 HD
BRANCH   5   7
HETATM    7  C   UNK N   1      34.079  14.021   6.206  0.00  0.00     0.034 A 
HETATM    8  C   UNK N   1      34.650  14.083   4.922  0.00  0.00     0.031 A 
HETATM    9  C   UNK N   1      33.908  13.735   3.795  0.00  0.00     0.021 A 
HETATM   10  C   UNK N   1      32.587  13.314   3.937  0.00  0.00     0.011 A 
HETATM   11 Br   UNK N   1      31.550  12.934   2.385  0.00  0.00    -0.051 Br
HETATM   12  C   UNK N   1      32.020  13.208   5.213  0.00  0.00     0.021 A 
HETATM   13  C   UNK N   1      32.768  13.553   6.346  0.00  0.00     0.031 A 
ENDBRANCH   5   7
ENDBRANCH   3   5
ENDBRANCH   2   3
ENDBRANCH   1   2
BRANCH   1  14
HETATM   14  C   UNK N   1      32.907  17.631   8.743  0.00  0.00     0.162 C 
BRANCH  14  15
HETATM   15  N   UNK N   1      32.545  17.353   7.372  0.00  0.00    -0.278 N 
HETATM   16  C   UNK N   1      33.321  17.540   6.275  0.00  0.00     0.261 A 
HETATM   17  O   UNK N   1      34.474  17.940   6.301  0.00  0.00    -0.267 OA
HETATM   18  C   UNK N   1      32.551  17.205   5.078  0.00  0.00     0.048 A 
HETATM   19  C   UNK N   1      32.875  17.233   3.725  0.00  0.00     0.018 A 
HETATM   20  C   UNK N   1      31.300  16.828   5.516  0.00  0.00     0.048 A 
HETATM   21  C   UNK N   1      31.877  16.862   2.805  0.00  0.00     0.001 A 
HETATM   22  C   UNK N   1      30.591  16.483   3.255  0.00  0.00     0.001 A 
HETATM   23  C   UNK N   1      30.291  16.464   4.630  0.00  0.00     0.018 A 
HETATM   24  C   UNK N   1      31.326  16.931   6.973  0.00  0.00     0.261 A 
HETATM   25  O   UNK N   1      30.392  16.708   7.728  0.00  0.00    -0.267 OA
ENDBRANCH  14  15
ENDBRANCH   1  14
TORSDOF 6
ENDMDL
