REMARK  6 active torsions:
REMARK  status: ('A' for Active; 'I' for Inactive)
REMARK    1  A    between atoms: C_7  and  N_8 
REMARK    2  A    between atoms: N_8  and  C_9 
REMARK    3  A    between atoms: C_9  and  O_11 
REMARK    4  A    between atoms: O_11  and  C_12 
REMARK    5  A    between atoms: C_12  and  C_13 
REMARK    6  A    between atoms: C_13  and  N_14 
ROOT
HETATM    1  C   UNK N   1       6.307  31.942   0.356  0.00  0.00     0.198 C 
ENDROOT
BRANCH   1   2
HETATM    2  O   UNK N   1       5.316  31.689  -0.556  0.00  0.00    -0.325 OA
BRANCH   2   3
HETATM    3  C   UNK N   1       4.251  32.490  -0.771  0.00  0.00     0.214 C 
HETATM    4  S   UNK N   1       3.679  32.500  -2.094  0.00  0.00    -0.033 SA
BRANCH   3   5
HETATM    5  N   UNK N   1       3.754  33.357   0.263  0.00  0.00    -0.328 N 
HETATM    6  H   UNK N   1       4.344  33.547   1.028  0.00  0.00     0.169 HD
BRANCH   5   7
HETATM    7  C   UNK N   1       2.459  33.961   0.252  0.00  0.00     0.034 A 
HETATM    8  C   UNK N   1       1.378  33.347  -0.405  0.00  0.00     0.031 A 
HETATM    9  C   UNK N   1       0.145  33.989  -0.500  0.00  0.00     0.021 A 
HETATM   10  C   UNK N   1      -0.025  35.252   0.065  0.00  0.00     0.011 A 
HETATM   11 Br   UNK N   1      -1.683  36.164  -0.154  0.00  0.00    -0.051 Br
HETATM   12  C   UNK N   1       1.031  35.856   0.757  0.00  0.00     0.021 A 
HETATM   13  C   UNK N   1       2.269  35.208   0.858  0.00  0.00     0.031 A 
ENDBRANCH   5   7
ENDBRANCH   3   5
ENDBRANCH   2   3
ENDBRANCH   1   2
BRANCH   1  14
HETATM   14  C   UNK N   1       7.609  31.822  -0.420  0.00  0.00     0.162 C 
BRANCH  14  15
HETATM   15  N   UNK N   1       8.513  32.927  -0.194  0.00  0.00    -0.278 N 
HETATM   16  C   UNK N   1       8.207  34.247  -0.239  0.00  0.00     0.261 A 
HETATM   17  O   UNK N   1       7.089  34.693  -0.443  0.00  0.00    -0.267 OA
HETATM   18  C   UNK N   1       9.422  35.031  -0.026  0.00  0.00     0.048 A 
HETATM   19  C   UNK N   1       9.650  36.403   0.013  0.00  0.00     0.018 A 
HETATM   20  C   UNK N   1      10.446  34.122   0.134  0.00  0.00     0.048 A 
HETATM   21  C   UNK N   1      10.971  36.842   0.221  0.00  0.00     0.001 A 
HETATM   22  C   UNK N   1      12.021  35.908   0.378  0.00  0.00     0.001 A 
HETATM   23  C   UNK N   1      11.762  34.526   0.334  0.00  0.00     0.018 A 
HETATM   24  C   UNK N   1       9.840  32.797   0.024  0.00  0.00     0.261 A 
HETATM   25  O   UNK N   1      10.428  31.728   0.082  0.00  0.00    -0.267 OA
ENDBRANCH  14  15
ENDBRANCH   1  14
TORSDOF 6
