MODEL 1
REMARK VINA RESULT:      -5.4      0.000      0.000
REMARK  6 active torsions:
REMARK  status: ('A' for Active; 'I' for Inactive)
REMARK    1  A    between atoms: C_7  and  N_8 
REMARK    2  A    between atoms: N_8  and  C_9 
REMARK    3  A    between atoms: C_9  and  O_11 
REMARK    4  A    between atoms: O_11  and  C_12 
REMARK    5  A    between atoms: C_12  and  C_13 
REMARK    6  A    between atoms: C_13  and  N_14 
ROOT
HETATM    1  C   UNK N   1      28.189  29.704  -2.223  0.00  0.00     0.198 C 
ENDROOT
BRANCH   1   2
HETATM    2  O   UNK N   1      29.355  30.086  -2.832  0.00  0.00    -0.325 OA
BRANCH   2   3
HETATM    3  C   UNK N   1      30.427  29.283  -3.004  0.00  0.00     0.214 C 
HETATM    4  S   UNK N   1      31.343  29.149  -1.899  0.00  0.00    -0.033 SA
BRANCH   3   5
HETATM    5  N   UNK N   1      30.685  28.650  -4.268  0.00  0.00    -0.328 N 
HETATM    6  H   UNK N   1      31.218  29.144  -4.931  0.00  0.00     0.169 HD
BRANCH   5   7
HETATM    7  C   UNK N   1      30.214  27.347  -4.625  0.00  0.00     0.034 A 
HETATM    8  C   UNK N   1      29.451  26.611  -3.713  0.00  0.00     0.031 A 
HETATM    9  C   UNK N   1      28.900  25.379  -4.092  0.00  0.00     0.026 A 
HETATM   10  C   UNK N   1      29.123  24.875  -5.379  0.00  0.00     0.034 A 
HETATM   11 Cl   UNK N   1      28.379  23.374  -5.884  0.00  0.00    -0.084 Cl
HETATM   12  C   UNK N   1      29.924  25.582  -6.275  0.00  0.00     0.026 A 
HETATM   13  C   UNK N   1      30.466  26.810  -5.900  0.00  0.00     0.031 A 
ENDBRANCH   5   7
ENDBRANCH   3   5
ENDBRANCH   2   3
ENDBRANCH   1   2
BRANCH   1  14
HETATM   14  C   UNK N   1      27.081  30.123  -3.178  0.00  0.00     0.162 C 
BRANCH  14  15
HETATM   15  N   UNK N   1      26.772  29.118  -4.170  0.00  0.00    -0.278 N 
HETATM   16  C   UNK N   1      27.297  29.086  -5.415  0.00  0.00     0.261 A 
HETATM   17  O   UNK N   1      28.075  29.918  -5.857  0.00  0.00    -0.267 OA
HETATM   18  C   UNK N   1      26.820  27.894  -6.112  0.00  0.00     0.048 A 
HETATM   19  C   UNK N   1      27.078  27.399  -7.386  0.00  0.00     0.018 A 
HETATM   20  C   UNK N   1      25.996  27.232  -5.228  0.00  0.00     0.048 A 
HETATM   21  C   UNK N   1      26.459  26.192  -7.757  0.00  0.00     0.001 A 
HETATM   22  C   UNK N   1      25.608  25.515  -6.852  0.00  0.00     0.001 A 
HETATM   23  C   UNK N   1      25.370  26.037  -5.567  0.00  0.00     0.018 A 
HETATM   24  C   UNK N   1      25.987  28.027  -4.001  0.00  0.00     0.261 A 
HETATM   25  O   UNK N   1      25.388  27.755  -2.972  0.00  0.00    -0.267 OA
ENDBRANCH  14  15
ENDBRANCH   1  14
TORSDOF 6
ENDMDL
MODEL 2
REMARK VINA RESULT:      -5.2      3.654      5.556
REMARK  6 active torsions:
REMARK  status: ('A' for Active; 'I' for Inactive)
REMARK    1  A    between atoms: C_7  and  N_8 
REMARK    2  A    between atoms: N_8  and  C_9 
REMARK    3  A    between atoms: C_9  and  O_11 
REMARK    4  A    between atoms: O_11  and  C_12 
REMARK    5  A    between atoms: C_12  and  C_13 
REMARK    6  A    between atoms: C_13  and  N_14 
ROOT
HETATM    1  C   UNK N   1      25.446  26.702  -5.556  0.00  0.00     0.198 C 
ENDROOT
BRANCH   1   2
HETATM    2  O   UNK N   1      25.230  25.413  -5.969  0.00  0.00    -0.325 OA
BRANCH   2   3
HETATM    3  C   UNK N   1      25.663  24.902  -7.141  0.00  0.00     0.214 C 
HETATM    4  S   UNK N   1      26.108  25.831  -8.149  0.00  0.00    -0.033 SA
BRANCH   3   5
HETATM    5  N   UNK N   1      25.607  23.490  -7.400  0.00  0.00    -0.328 N 
HETATM    6  H   UNK N   1      24.725  23.086  -7.567  0.00  0.00     0.169 HD
BRANCH   5   7
HETATM    7  C   UNK N   1      26.751  22.632  -7.430  0.00  0.00     0.034 A 
HETATM    8  C   UNK N   1      27.874  22.946  -6.658  0.00  0.00     0.031 A 
HETATM    9  C   UNK N   1      28.957  22.058  -6.602  0.00  0.00     0.026 A 
HETATM   10  C   UNK N   1      28.926  20.863  -7.330  0.00  0.00     0.034 A 
HETATM   11 Cl   UNK N   1      30.242  19.716  -7.208  0.00  0.00    -0.084 Cl
HETATM   12  C   UNK N   1      27.829  20.569  -8.139  0.00  0.00     0.026 A 
HETATM   13  C   UNK N   1      26.750  21.448  -8.189  0.00  0.00     0.031 A 
ENDBRANCH   5   7
ENDBRANCH   3   5
ENDBRANCH   2   3
ENDBRANCH   1   2
BRANCH   1  14
HETATM   14  C   UNK N   1      25.945  26.587  -4.124  0.00  0.00     0.162 C 
BRANCH  14  15
HETATM   15  N   UNK N   1      27.157  25.809  -4.003  0.00  0.00    -0.278 N 
HETATM   16  C   UNK N   1      28.379  26.228  -4.402  0.00  0.00     0.261 A 
HETATM   17  O   UNK N   1      28.598  27.304  -4.937  0.00  0.00    -0.267 OA
HETATM   18  C   UNK N   1      29.375  25.217  -4.058  0.00  0.00     0.048 A 
HETATM   19  C   UNK N   1      30.755  25.177  -4.232  0.00  0.00     0.018 A 
HETATM   20  C   UNK N   1      28.690  24.191  -3.444  0.00  0.00     0.048 A 
HETATM   21  C   UNK N   1      31.440  24.041  -3.767  0.00  0.00     0.001 A 
HETATM   22  C   UNK N   1      30.737  22.984  -3.142  0.00  0.00     0.001 A 
HETATM   23  C   UNK N   1      29.342  23.055  -2.974  0.00  0.00     0.018 A 
HETATM   24  C   UNK N   1      27.285  24.594  -3.417  0.00  0.00     0.261 A 
HETATM   25  O   UNK N   1      26.363  23.958  -2.930  0.00  0.00    -0.267 OA
ENDBRANCH  14  15
ENDBRANCH   1  14
TORSDOF 6
ENDMDL
MODEL 3
REMARK VINA RESULT:      -5.2     23.441     25.349
REMARK  6 active torsions:
REMARK  status: ('A' for Active; 'I' for Inactive)
REMARK    1  A    between atoms: C_7  and  N_8 
REMARK    2  A    between atoms: N_8  and  C_9 
REMARK    3  A    between atoms: C_9  and  O_11 
REMARK    4  A    between atoms: O_11  and  C_12 
REMARK    5  A    between atoms: C_12  and  C_13 
REMARK    6  A    between atoms: C_13  and  N_14 
ROOT
HETATM    1  C   UNK N   1      37.560  11.237  13.054  0.00  0.00     0.198 C 
ENDROOT
BRANCH   1   2
HETATM    2  O   UNK N   1      37.358  11.638  11.759  0.00  0.00    -0.325 OA
BRANCH   2   3
HETATM    3  C   UNK N   1      37.565  12.892  11.305  0.00  0.00     0.214 C 
HETATM    4  S   UNK N   1      38.593  13.081  10.314  0.00  0.00    -0.033 SA
BRANCH   3   5
HETATM    5  N   UNK N   1      36.839  14.006  11.850  0.00  0.00    -0.328 N 
HETATM    6  H   UNK N   1      37.032  14.274  12.777  0.00  0.00     0.169 HD
BRANCH   5   7
HETATM    7  C   UNK N   1      35.853  14.752  11.130  0.00  0.00     0.034 A 
HETATM    8  C   UNK N   1      36.027  16.127  10.938  0.00  0.00     0.031 A 
HETATM    9  C   UNK N   1      35.120  16.845  10.146  0.00  0.00     0.026 A 
HETATM   10  C   UNK N   1      34.029  16.193   9.559  0.00  0.00     0.034 A 
HETATM   11 Cl   UNK N   1      32.934  17.066   8.511  0.00  0.00    -0.084 Cl
HETATM   12  C   UNK N   1      33.825  14.833   9.788  0.00  0.00     0.026 A 
HETATM   13  C   UNK N   1      34.731  14.118  10.569  0.00  0.00     0.031 A 
ENDBRANCH   5   7
ENDBRANCH   3   5
ENDBRANCH   2   3
ENDBRANCH   1   2
BRANCH   1  14
HETATM   14  C   UNK N   1      36.196  10.788  13.554  0.00  0.00     0.162 C 
BRANCH  14  15
HETATM   15  N   UNK N   1      35.906  11.230  14.899  0.00  0.00    -0.278 N 
HETATM   16  C   UNK N   1      36.070  10.471  16.006  0.00  0.00     0.261 A 
HETATM   17  O   UNK N   1      36.455   9.312  15.995  0.00  0.00    -0.267 OA
HETATM   18  C   UNK N   1      35.752  11.265  17.190  0.00  0.00     0.048 A 
HETATM   19  C   UNK N   1      35.781  10.958  18.547  0.00  0.00     0.018 A 
HETATM   20  C   UNK N   1      35.396  12.515  16.735  0.00  0.00     0.048 A 
HETATM   21  C   UNK N   1      35.423  11.972  19.454  0.00  0.00     0.001 A 
HETATM   22  C   UNK N   1      35.052  13.254  18.987  0.00  0.00     0.001 A 
HETATM   23  C   UNK N   1      35.038  13.537  17.608  0.00  0.00     0.018 A 
HETATM   24  C   UNK N   1      35.508  12.469  15.278  0.00  0.00     0.261 A 
HETATM   25  O   UNK N   1      35.298  13.395  14.510  0.00  0.00    -0.267 OA
ENDBRANCH  14  15
ENDBRANCH   1  14
TORSDOF 6
ENDMDL
MODEL 4
REMARK VINA RESULT:      -5.2     21.678     23.610
REMARK  6 active torsions:
REMARK  status: ('A' for Active; 'I' for Inactive)
REMARK    1  A    between atoms: C_7  and  N_8 
REMARK    2  A    between atoms: N_8  and  C_9 
REMARK    3  A    between atoms: C_9  and  O_11 
REMARK    4  A    between atoms: O_11  and  C_12 
REMARK    5  A    between atoms: C_12  and  C_13 
REMARK    6  A    between atoms: C_13  and  N_14 
ROOT
HETATM    1  C   UNK N   1      35.253  12.913  11.834  0.00  0.00     0.198 C 
ENDROOT
BRANCH   1   2
HETATM    2  O   UNK N   1      34.697  14.137  12.100  0.00  0.00    -0.325 OA
BRANCH   2   3
HETATM    3  C   UNK N   1      34.481  15.096  11.174  0.00  0.00     0.214 C 
HETATM    4  S   UNK N   1      35.448  16.160  11.077  0.00  0.00    -0.033 SA
BRANCH   3   5
HETATM    5  N   UNK N   1      33.289  15.095  10.371  0.00  0.00    -0.328 N 
HETATM    6  H   UNK N   1      32.474  14.700  10.755  0.00  0.00     0.169 HD
BRANCH   5   7
HETATM    7  C   UNK N   1      33.212  15.632   9.048  0.00  0.00     0.034 A 
HETATM    8  C   UNK N   1      32.524  16.829   8.824  0.00  0.00     0.031 A 
HETATM    9  C   UNK N   1      32.532  17.415   7.550  0.00  0.00     0.026 A 
HETATM   10  C   UNK N   1      33.213  16.796   6.495  0.00  0.00     0.034 A 
HETATM   11 Cl   UNK N   1      33.288  17.558   4.922  0.00  0.00    -0.084 Cl
HETATM   12  C   UNK N   1      33.859  15.578   6.702  0.00  0.00     0.026 A 
HETATM   13  C   UNK N   1      33.857  15.000   7.970  0.00  0.00     0.031 A 
ENDBRANCH   5   7
ENDBRANCH   3   5
ENDBRANCH   2   3
ENDBRANCH   1   2
BRANCH   1  14
HETATM   14  C   UNK N   1      36.518  12.854  12.676  0.00  0.00     0.162 C 
BRANCH  14  15
HETATM   15  N   UNK N   1      36.257  12.771  14.095  0.00  0.00    -0.278 N 
HETATM   16  C   UNK N   1      36.289  13.825  14.941  0.00  0.00     0.261 A 
HETATM   17  O   UNK N   1      36.569  14.967  14.611  0.00  0.00    -0.267 OA
HETATM   18  C   UNK N   1      35.902  13.383  16.279  0.00  0.00     0.048 A 
HETATM   19  C   UNK N   1      35.761  14.074  17.479  0.00  0.00     0.018 A 
HETATM   20  C   UNK N   1      35.644  12.033  16.183  0.00  0.00     0.048 A 
HETATM   21  C   UNK N   1      35.350  13.344  18.609  0.00  0.00     0.001 A 
HETATM   22  C   UNK N   1      35.092  11.957  18.512  0.00  0.00     0.001 A 
HETATM   23  C   UNK N   1      35.237  11.286  17.284  0.00  0.00     0.018 A 
HETATM   24  C   UNK N   1      35.871  11.671  14.785  0.00  0.00     0.261 A 
HETATM   25  O   UNK N   1      35.724  10.561  14.296  0.00  0.00    -0.267 OA
ENDBRANCH  14  15
ENDBRANCH   1  14
TORSDOF 6
ENDMDL
MODEL 5
REMARK VINA RESULT:      -5.2     17.361     19.258
REMARK  6 active torsions:
REMARK  status: ('A' for Active; 'I' for Inactive)
REMARK    1  A    between atoms: C_7  and  N_8 
REMARK    2  A    between atoms: N_8  and  C_9 
REMARK    3  A    between atoms: C_9  and  O_11 
REMARK    4  A    between atoms: O_11  and  C_12 
REMARK    5  A    between atoms: C_12  and  C_13 
REMARK    6  A    between atoms: C_13  and  N_14 
ROOT
HETATM    1  C   UNK N   1      20.313  13.690   6.096  0.00  0.00     0.198 C 
ENDROOT
BRANCH   1   2
HETATM    2  O   UNK N   1      20.619  14.277   4.896  0.00  0.00    -0.325 OA
BRANCH   2   3
HETATM    3  C   UNK N   1      19.706  14.720   4.006  0.00  0.00     0.214 C 
HETATM    4  S   UNK N   1      19.312  13.820   2.952  0.00  0.00    -0.033 SA
BRANCH   3   5
HETATM    5  N   UNK N   1      19.207  16.066   4.065  0.00  0.00    -0.328 N 
HETATM    6  H   UNK N   1      18.263  16.198   4.311  0.00  0.00     0.169 HD
BRANCH   5   7
HETATM    7  C   UNK N   1      19.993  17.228   3.788  0.00  0.00     0.034 A 
HETATM    8  C   UNK N   1      20.975  17.634   4.698  0.00  0.00     0.031 A 
HETATM    9  C   UNK N   1      21.819  18.709   4.387  0.00  0.00     0.026 A 
HETATM   10  C   UNK N   1      21.673  19.389   3.171  0.00  0.00     0.034 A 
HETATM   11 Cl   UNK N   1      22.769  20.684   2.744  0.00  0.00    -0.084 Cl
HETATM   12  C   UNK N   1      20.665  19.019   2.283  0.00  0.00     0.026 A 
HETATM   13  C   UNK N   1      19.830  17.946   2.590  0.00  0.00     0.031 A 
ENDBRANCH   5   7
ENDBRANCH   3   5
ENDBRANCH   2   3
ENDBRANCH   1   2
BRANCH   1  14
HETATM   14  C   UNK N   1      20.756  14.688   7.156  0.00  0.00     0.162 C 
BRANCH  14  15
HETATM   15  N   UNK N   1      21.527  14.086   8.220  0.00  0.00    -0.278 N 
HETATM   16  C   UNK N   1      20.999  13.592   9.362  0.00  0.00     0.261 A 
HETATM   17  O   UNK N   1      19.810  13.620   9.641  0.00  0.00    -0.267 OA
HETATM   18  C   UNK N   1      22.061  12.997  10.169  0.00  0.00     0.048 A 
HETATM   19  C   UNK N   1      22.039  12.348  11.400  0.00  0.00     0.018 A 
HETATM   20  C   UNK N   1      23.229  13.162   9.457  0.00  0.00     0.048 A 
HETATM   21  C   UNK N   1      23.258  11.868  11.909  0.00  0.00     0.001 A 
HETATM   22  C   UNK N   1      24.459  12.043  11.181  0.00  0.00     0.001 A 
HETATM   23  C   UNK N   1      24.450  12.698   9.935  0.00  0.00     0.018 A 
HETATM   24  C   UNK N   1      22.862  13.851   8.221  0.00  0.00     0.261 A 
HETATM   25  O   UNK N   1      23.621  14.158   7.314  0.00  0.00    -0.267 OA
ENDBRANCH  14  15
ENDBRANCH   1  14
TORSDOF 6
ENDMDL
MODEL 6
REMARK VINA RESULT:      -5.2     18.794     20.298
REMARK  6 active torsions:
REMARK  status: ('A' for Active; 'I' for Inactive)
REMARK    1  A    between atoms: C_7  and  N_8 
REMARK    2  A    between atoms: N_8  and  C_9 
REMARK    3  A    between atoms: C_9  and  O_11 
REMARK    4  A    between atoms: O_11  and  C_12 
REMARK    5  A    between atoms: C_12  and  C_13 
REMARK    6  A    between atoms: C_13  and  N_14 
ROOT
HETATM    1  C   UNK N   1      34.280  15.674   9.750  0.00  0.00     0.198 C 
ENDROOT
BRANCH   1   2
HETATM    2  O   UNK N   1      34.944  15.872  10.932  0.00  0.00    -0.325 OA
BRANCH   2   3
HETATM    3  C   UNK N   1      36.086  15.244  11.283  0.00  0.00     0.214 C 
HETATM    4  S   UNK N   1      36.902  14.704  10.225  0.00  0.00    -0.033 SA
BRANCH   3   5
HETATM    5  N   UNK N   1      36.432  15.052  12.665  0.00  0.00    -0.328 N 
HETATM    6  H   UNK N   1      37.055  15.693  13.077  0.00  0.00     0.169 HD
BRANCH   5   7
HETATM    7  C   UNK N   1      35.929  13.990  13.479  0.00  0.00     0.034 A 
HETATM    8  C   UNK N   1      35.025  13.069  12.939  0.00  0.00     0.031 A 
HETATM    9  C   UNK N   1      34.608  11.967  13.698  0.00  0.00     0.026 A 
HETATM   10  C   UNK N   1      35.083  11.792  15.004  0.00  0.00     0.034 A 
HETATM   11 Cl   UNK N   1      34.625  10.381  15.931  0.00  0.00    -0.084 Cl
HETATM   12  C   UNK N   1      35.946  12.733  15.563  0.00  0.00     0.026 A 
HETATM   13  C   UNK N   1      36.365  13.825  14.806  0.00  0.00     0.031 A 
ENDBRANCH   5   7
ENDBRANCH   3   5
ENDBRANCH   2   3
ENDBRANCH   1   2
BRANCH   1  14
HETATM   14  C   UNK N   1      33.930  17.066   9.246  0.00  0.00     0.162 C 
BRANCH  14  15
HETATM   15  N   UNK N   1      33.113  17.053   8.054  0.00  0.00    -0.278 N 
HETATM   16  C   UNK N   1      31.782  16.819   8.042  0.00  0.00     0.261 A 
HETATM   17  O   UNK N   1      31.117  16.564   9.034  0.00  0.00    -0.267 OA
HETATM   18  C   UNK N   1      31.278  16.959   6.678  0.00  0.00     0.048 A 
HETATM   19  C   UNK N   1      29.998  16.841   6.145  0.00  0.00     0.018 A 
HETATM   20  C   UNK N   1      32.364  17.282   5.894  0.00  0.00     0.048 A 
HETATM   21  C   UNK N   1      29.842  17.054   4.764  0.00  0.00     0.001 A 
HETATM   22  C   UNK N   1      30.957  17.380   3.957  0.00  0.00     0.001 A 
HETATM   23  C   UNK N   1      32.240  17.499   4.525  0.00  0.00     0.018 A 
HETATM   24  C   UNK N   1      33.515  17.341   6.792  0.00  0.00     0.261 A 
HETATM   25  O   UNK N   1      34.661  17.622   6.477  0.00  0.00    -0.267 OA
ENDBRANCH  14  15
ENDBRANCH   1  14
TORSDOF 6
ENDMDL
MODEL 7
REMARK VINA RESULT:      -5.2     21.574     23.549
REMARK  6 active torsions:
REMARK  status: ('A' for Active; 'I' for Inactive)
REMARK    1  A    between atoms: C_7  and  N_8 
REMARK    2  A    between atoms: N_8  and  C_9 
REMARK    3  A    between atoms: C_9  and  O_11 
REMARK    4  A    between atoms: O_11  and  C_12 
REMARK    5  A    between atoms: C_12  and  C_13 
REMARK    6  A    between atoms: C_13  and  N_14 
ROOT
HETATM    1  C   UNK N   1      35.296  12.899  11.612  0.00  0.00     0.198 C 
ENDROOT
BRANCH   1   2
HETATM    2  O   UNK N   1      34.686  14.084  11.931  0.00  0.00    -0.325 OA
BRANCH   2   3
HETATM    3  C   UNK N   1      34.617  15.153  11.109  0.00  0.00     0.214 C 
HETATM    4  S   UNK N   1      35.711  16.090  11.140  0.00  0.00    -0.033 SA
BRANCH   3   5
HETATM    5  N   UNK N   1      33.457  15.387  10.293  0.00  0.00    -0.328 N 
HETATM    6  H   UNK N   1      32.578  15.140  10.660  0.00  0.00     0.169 HD
BRANCH   5   7
HETATM    7  C   UNK N   1      33.498  15.955   8.982  0.00  0.00     0.034 A 
HETATM    8  C   UNK N   1      33.876  15.162   7.893  0.00  0.00     0.031 A 
HETATM    9  C   UNK N   1      33.819  15.682   6.593  0.00  0.00     0.026 A 
HETATM   10  C   UNK N   1      33.400  17.000   6.380  0.00  0.00     0.034 A 
HETATM   11 Cl   UNK N   1      33.257  17.633   4.755  0.00  0.00    -0.084 Cl
HETATM   12  C   UNK N   1      33.069  17.810   7.466  0.00  0.00     0.026 A 
HETATM   13  C   UNK N   1      33.119  17.290   8.758  0.00  0.00     0.031 A 
ENDBRANCH   5   7
ENDBRANCH   3   5
ENDBRANCH   2   3
ENDBRANCH   1   2
BRANCH   1  14
HETATM   14  C   UNK N   1      36.508  12.811  12.528  0.00  0.00     0.162 C 
BRANCH  14  15
HETATM   15  N   UNK N   1      36.162  12.777  13.931  0.00  0.00    -0.278 N 
HETATM   16  C   UNK N   1      35.797  11.661  14.601  0.00  0.00     0.261 A 
HETATM   17  O   UNK N   1      35.690  10.555  14.093  0.00  0.00    -0.267 OA
HETATM   18  C   UNK N   1      35.595  11.987  16.010  0.00  0.00     0.048 A 
HETATM   19  C   UNK N   1      35.239  11.201  17.102  0.00  0.00     0.018 A 
HETATM   20  C   UNK N   1      35.854  13.333  16.139  0.00  0.00     0.048 A 
HETATM   21  C   UNK N   1      35.141  11.830  18.356  0.00  0.00     0.001 A 
HETATM   22  C   UNK N   1      35.401  13.214  18.487  0.00  0.00     0.001 A 
HETATM   23  C   UNK N   1      35.765  13.982  17.366  0.00  0.00     0.018 A 
HETATM   24  C   UNK N   1      36.218  13.810  14.805  0.00  0.00     0.261 A 
HETATM   25  O   UNK N   1      36.541  14.951  14.512  0.00  0.00    -0.267 OA
ENDBRANCH  14  15
ENDBRANCH   1  14
TORSDOF 6
ENDMDL
MODEL 8
REMARK VINA RESULT:      -5.2      2.635      4.561
REMARK  6 active torsions:
REMARK  status: ('A' for Active; 'I' for Inactive)
REMARK    1  A    between atoms: C_7  and  N_8 
REMARK    2  A    between atoms: N_8  and  C_9 
REMARK    3  A    between atoms: C_9  and  O_11 
REMARK    4  A    between atoms: O_11  and  C_12 
REMARK    5  A    between atoms: C_12  and  C_13 
REMARK    6  A    between atoms: C_13  and  N_14 
ROOT
HETATM    1  C   UNK N   1      25.581  27.121  -6.083  0.00  0.00     0.198 C 
ENDROOT
BRANCH   1   2
HETATM    2  O   UNK N   1      25.661  27.920  -4.973  0.00  0.00    -0.325 OA
BRANCH   2   3
HETATM    3  C   UNK N   1      26.702  28.730  -4.687  0.00  0.00     0.214 C 
HETATM    4  S   UNK N   1      26.522  29.703  -3.639  0.00  0.00    -0.033 SA
BRANCH   3   5
HETATM    5  N   UNK N   1      27.916  28.676  -5.454  0.00  0.00    -0.328 N 
HETATM    6  H   UNK N   1      28.044  29.346  -6.163  0.00  0.00     0.169 HD
BRANCH   5   7
HETATM    7  C   UNK N   1      28.951  27.710  -5.253  0.00  0.00     0.034 A 
HETATM    8  C   UNK N   1      29.471  27.011  -6.347  0.00  0.00     0.031 A 
HETATM    9  C   UNK N   1      30.554  26.139  -6.173  0.00  0.00     0.026 A 
HETATM   10  C   UNK N   1      31.111  25.954  -4.902  0.00  0.00     0.034 A 
HETATM   11 Cl   UNK N   1      32.509  24.925  -4.688  0.00  0.00    -0.084 Cl
HETATM   12  C   UNK N   1      30.566  26.612  -3.800  0.00  0.00     0.026 A 
HETATM   13  C   UNK N   1      29.492  27.483  -3.975  0.00  0.00     0.031 A 
ENDBRANCH   5   7
ENDBRANCH   3   5
ENDBRANCH   2   3
ENDBRANCH   1   2
BRANCH   1  14
HETATM   14  C   UNK N   1      25.258  25.731  -5.556  0.00  0.00     0.162 C 
BRANCH  14  15
HETATM   15  N   UNK N   1      26.432  24.967  -5.202  0.00  0.00    -0.278 N 
HETATM   16  C   UNK N   1      26.916  24.848  -3.945  0.00  0.00     0.261 A 
HETATM   17  O   UNK N   1      26.433  25.393  -2.966  0.00  0.00    -0.267 OA
HETATM   18  C   UNK N   1      28.064  23.945  -3.953  0.00  0.00     0.048 A 
HETATM   19  C   UNK N   1      28.889  23.485  -2.931  0.00  0.00     0.018 A 
HETATM   20  C   UNK N   1      28.234  23.542  -5.259  0.00  0.00     0.048 A 
HETATM   21  C   UNK N   1      29.920  22.592  -3.274  0.00  0.00     0.001 A 
HETATM   22  C   UNK N   1      30.098  22.183  -4.616  0.00  0.00     0.001 A 
HETATM   23  C   UNK N   1      29.245  22.660  -5.628  0.00  0.00     0.018 A 
HETATM   24  C   UNK N   1      27.182  24.201  -6.031  0.00  0.00     0.261 A 
HETATM   25  O   UNK N   1      26.983  24.077  -7.230  0.00  0.00    -0.267 OA
ENDBRANCH  14  15
ENDBRANCH   1  14
TORSDOF 6
ENDMDL
MODEL 9
REMARK VINA RESULT:      -5.1     21.578     23.129
REMARK  6 active torsions:
REMARK  status: ('A' for Active; 'I' for Inactive)
REMARK    1  A    between atoms: C_7  and  N_8 
REMARK    2  A    between atoms: N_8  and  C_9 
REMARK    3  A    between atoms: C_9  and  O_11 
REMARK    4  A    between atoms: O_11  and  C_12 
REMARK    5  A    between atoms: C_12  and  C_13 
REMARK    6  A    between atoms: C_13  and  N_14 
ROOT
HETATM    1  C   UNK N   1      35.873  14.429  12.237  0.00  0.00     0.198 C 
ENDROOT
BRANCH   1   2
HETATM    2  O   UNK N   1      36.822  13.510  12.603  0.00  0.00    -0.325 OA
BRANCH   2   3
HETATM    3  C   UNK N   1      36.552  12.323  13.186  0.00  0.00     0.214 C 
HETATM    4  S   UNK N   1      37.497  11.253  12.988  0.00  0.00    -0.033 SA
BRANCH   3   5
HETATM    5  N   UNK N   1      35.329  12.114  13.911  0.00  0.00    -0.328 N 
HETATM    6  H   UNK N   1      34.506  11.964  13.393  0.00  0.00     0.169 HD
BRANCH   5   7
HETATM    7  C   UNK N   1      35.231  12.111  15.337  0.00  0.00     0.034 A 
HETATM    8  C   UNK N   1      35.258  10.897  16.032  0.00  0.00     0.031 A 
HETATM    9  C   UNK N   1      35.267  10.890  17.434  0.00  0.00     0.026 A 
HETATM   10  C   UNK N   1      35.233  12.097  18.143  0.00  0.00     0.034 A 
HETATM   11 Cl   UNK N   1      35.317  12.100  19.891  0.00  0.00    -0.084 Cl
HETATM   12  C   UNK N   1      35.156  13.307  17.455  0.00  0.00     0.026 A 
HETATM   13  C   UNK N   1      35.154  13.313  16.062  0.00  0.00     0.031 A 
ENDBRANCH   5   7
ENDBRANCH   3   5
ENDBRANCH   2   3
ENDBRANCH   1   2
BRANCH   1  14
HETATM   14  C   UNK N   1      36.265  14.877  10.838  0.00  0.00     0.162 C 
BRANCH  14  15
HETATM   15  N   UNK N   1      35.145  15.344  10.053  0.00  0.00    -0.278 N 
HETATM   16  C   UNK N   1      34.879  16.644   9.798  0.00  0.00     0.261 A 
HETATM   17  O   UNK N   1      35.539  17.579  10.224  0.00  0.00    -0.267 OA
HETATM   18  C   UNK N   1      33.719  16.737   8.915  0.00  0.00     0.048 A 
HETATM   19  C   UNK N   1      33.067  17.830   8.353  0.00  0.00     0.018 A 
HETATM   20  C   UNK N   1      33.317  15.444   8.665  0.00  0.00     0.048 A 
HETATM   21  C   UNK N   1      31.965  17.575   7.517  0.00  0.00     0.001 A 
HETATM   22  C   UNK N   1      31.548  16.247   7.264  0.00  0.00     0.001 A 
HETATM   23  C   UNK N   1      32.230  15.161   7.842  0.00  0.00     0.018 A 
HETATM   24  C   UNK N   1      34.242  14.578   9.394  0.00  0.00     0.261 A 
HETATM   25  O   UNK N   1      34.229  13.357   9.404  0.00  0.00    -0.267 OA
ENDBRANCH  14  15
ENDBRANCH   1  14
TORSDOF 6
ENDMDL
