REMARK  13 active torsions:
REMARK  status: ('A' for Active; 'I' for Inactive)
REMARK    1  A    between atoms: O_1  and  C_2 
REMARK    2  A    between atoms: C_3  and  C_2 
REMARK    3  A    between atoms: C_4  and  O_5 
REMARK    4  A    between atoms: C_20  and  O_6 
REMARK    5  A    between atoms: C_7  and  O_8 
REMARK    6  A    between atoms: N_9  and  C_10 
REMARK    7  A    between atoms: C_10  and  C_11 
REMARK    8  A    between atoms: C_11  and  C_13 
REMARK    9  A    between atoms: C_13  and  C_14 
REMARK   10  A    between atoms: C_14  and  C_15 
REMARK   11  A    between atoms: C_15  and  C_16 
REMARK   12  A    between atoms: C_16  and  C_17 
REMARK   13  A    between atoms: C_17  and  C_19 
ROOT
HETATM    1  C   UNK N   1      -1.087  -0.629   0.131  0.00  0.00     0.277 C 
HETATM    2  C   UNK N   1      -2.282  -1.600  -0.123  0.00  0.00     0.184 C 
HETATM    3  C   UNK N   1      -3.913   0.303  -0.204  0.00  0.00     0.177 C 
HETATM    4  N   UNK N   1      -1.490   0.809   0.040  0.00  0.00     0.100 N 
HETATM    5  C   UNK N   1      -2.685   1.038  -0.768  0.00  0.00     0.307 C 
HETATM    6  C   UNK N   1      -3.523  -0.998   0.540  0.00  0.00     0.179 C 
ENDROOT
BRANCH   4   7
HETATM    7  C   UNK N   1      -0.443   1.700  -0.459  0.00  0.00     0.273 C 
BRANCH   7   8
HETATM    8  C   UNK N   1       0.563   2.023   0.630  0.00  0.00     0.030 C 
BRANCH   8   9
HETATM    9  C   UNK N   1       1.737   2.767   0.019  0.00  0.00     0.002 C 
BRANCH   9  10
HETATM   10  C   UNK N   1       2.690   1.795  -0.654  0.00  0.00     0.000 C 
BRANCH  10  11
HETATM   11  C   UNK N   1       3.767   1.373   0.325  0.00  0.00     0.000 C 
BRANCH  11  12
HETATM   12  C   UNK N   1       4.703   0.393  -0.349  0.00  0.00     0.000 C 
BRANCH  12  13
HETATM   13  C   UNK N   1       6.016   0.350   0.402  0.00  0.00    -0.000 C 
BRANCH  13  14
HETATM   14  C   UNK N   1       6.978  -0.566  -0.324  0.00  0.00    -0.005 C 
HETATM   15  C   UNK N   1       8.361  -0.426   0.278  0.00  0.00     0.005 C 
ENDBRANCH  13  14
ENDBRANCH  12  13
ENDBRANCH  11  12
ENDBRANCH  10  11
ENDBRANCH   9  10
ENDBRANCH   8   9
ENDBRANCH   7   8
ENDBRANCH   4   7
BRANCH   1  16
HETATM   16  C   UNK N   1       0.101  -1.008  -0.772  0.00  0.00     0.202 C 
BRANCH  16  17
HETATM   17  O   UNK N   1       0.609  -2.262  -0.427  0.00  0.00    -0.399 OA
HETATM   18  H   UNK N   1       0.032  -3.004  -0.188  0.00  0.00     0.209 HD
ENDBRANCH  16  17
ENDBRANCH   1  16
BRANCH   2  19
HETATM   19  O   UNK N   1      -1.999  -2.861   0.407  0.00  0.00    -0.391 OA
HETATM   20  H   UNK N   1      -2.660  -3.469   0.775  0.00  0.00     0.210 HD
ENDBRANCH   2  19
BRANCH   3  21
HETATM   21  O   UNK N   1      -4.736   0.007  -1.292  0.00  0.00    -0.391 OA
HETATM   22  H   UNK N   1      -5.200   0.399  -2.049  0.00  0.00     0.210 HD
ENDBRANCH   3  21
BRANCH   6  23
HETATM   23  O   UNK N   1      -4.594  -1.898   0.537  0.00  0.00    -0.390 OA
HETATM   24  H   UNK N   1      -5.506  -1.566   0.535  0.00  0.00     0.210 HD
ENDBRANCH   6  23
TORSDOF 13
