MODEL 1
REMARK VINA RESULT:      -5.2      0.000      0.000
REMARK  13 active torsions:
REMARK  status: ('A' for Active; 'I' for Inactive)
REMARK    1  A    between atoms: O_1  and  C_2 
REMARK    2  A    between atoms: C_3  and  C_2 
REMARK    3  A    between atoms: C_4  and  O_5 
REMARK    4  A    between atoms: C_20  and  O_6 
REMARK    5  A    between atoms: C_7  and  O_8 
REMARK    6  A    between atoms: N_9  and  C_10 
REMARK    7  A    between atoms: C_10  and  C_11 
REMARK    8  A    between atoms: C_11  and  C_13 
REMARK    9  A    between atoms: C_13  and  C_14 
REMARK   10  A    between atoms: C_14  and  C_15 
REMARK   11  A    between atoms: C_15  and  C_16 
REMARK   12  A    between atoms: C_16  and  C_17 
REMARK   13  A    between atoms: C_17  and  C_19 
ROOT
HETATM    1  C   UNK N   1      30.546  17.257   7.060  0.00  0.00     0.277 C 
HETATM    2  C   UNK N   1      30.434  17.303   8.616  0.00  0.00     0.184 C 
HETATM    3  C   UNK N   1      28.268  18.562   8.501  0.00  0.00     0.177 C 
HETATM    4  N   UNK N   1      29.327  17.801   6.384  0.00  0.00     0.100 N 
HETATM    5  C   UNK N   1      28.121  17.747   7.205  0.00  0.00     0.307 C 
HETATM    6  C   UNK N   1      29.735  18.611   8.996  0.00  0.00     0.179 C 
ENDROOT
BRANCH   4   7
HETATM    7  C   UNK N   1      29.016  17.170   5.101  0.00  0.00     0.273 C 
BRANCH   7   8
HETATM    8  C   UNK N   1      27.547  16.798   5.019  0.00  0.00     0.030 C 
BRANCH   8   9
HETATM    9  C   UNK N   1      27.115  16.794   3.563  0.00  0.00     0.002 C 
BRANCH   9  10
HETATM   10  C   UNK N   1      25.643  17.147   3.445  0.00  0.00     0.000 C 
BRANCH  10  11
HETATM   11  C   UNK N   1      25.355  18.411   4.231  0.00  0.00     0.000 C 
BRANCH  11  12
HETATM   12  C   UNK N   1      25.641  19.618   3.364  0.00  0.00     0.000 C 
BRANCH  12  13
HETATM   13  C   UNK N   1      26.684  20.486   4.035  0.00  0.00    -0.000 C 
BRANCH  13  14
HETATM   14  C   UNK N   1      26.498  20.422   5.536  0.00  0.00    -0.005 C 
HETATM   15  C   UNK N   1      27.067  21.675   6.169  0.00  0.00     0.005 C 
ENDBRANCH  13  14
ENDBRANCH  12  13
ENDBRANCH  11  12
ENDBRANCH  10  11
ENDBRANCH   9  10
ENDBRANCH   8   9
ENDBRANCH   7   8
ENDBRANCH   4   7
BRANCH   1  16
HETATM   16  C   UNK N   1      30.941  15.841   6.603  0.00  0.00     0.202 C 
BRANCH  16  17
HETATM   17  O   UNK N   1      32.298  15.605   6.829  0.00  0.00    -0.399 OA
HETATM   18  H   UNK N   1      32.917  15.422   6.105  0.00  0.00     0.209 HD
ENDBRANCH  16  17
ENDBRANCH   1  16
BRANCH   2  19
HETATM   19  O   UNK N   1      31.704  17.235   9.193  0.00  0.00    -0.391 OA
HETATM   20  H   UNK N   1      31.927  16.716   9.982  0.00  0.00     0.210 HD
ENDBRANCH   2  19
BRANCH   3  21
HETATM   21  O   UNK N   1      27.458  17.945   9.456  0.00  0.00    -0.391 OA
HETATM   22  H   UNK N   1      26.571  17.583   9.610  0.00  0.00     0.210 HD
ENDBRANCH   3  21
BRANCH   6  23
HETATM   23  O   UNK N   1      29.773  18.831  10.377  0.00  0.00    -0.390 OA
HETATM   24  H   UNK N   1      29.257  18.265  10.973  0.00  0.00     0.210 HD
ENDBRANCH   6  23
TORSDOF 13
ENDMDL
MODEL 2
REMARK VINA RESULT:      -5.2      8.001     11.093
REMARK  13 active torsions:
REMARK  status: ('A' for Active; 'I' for Inactive)
REMARK    1  A    between atoms: O_1  and  C_2 
REMARK    2  A    between atoms: C_3  and  C_2 
REMARK    3  A    between atoms: C_4  and  O_5 
REMARK    4  A    between atoms: C_20  and  O_6 
REMARK    5  A    between atoms: C_7  and  O_8 
REMARK    6  A    between atoms: N_9  and  C_10 
REMARK    7  A    between atoms: C_10  and  C_11 
REMARK    8  A    between atoms: C_11  and  C_13 
REMARK    9  A    between atoms: C_13  and  C_14 
REMARK   10  A    between atoms: C_14  and  C_15 
REMARK   11  A    between atoms: C_15  and  C_16 
REMARK   12  A    between atoms: C_16  and  C_17 
REMARK   13  A    between atoms: C_17  and  C_19 
ROOT
HETATM    1  C   UNK N   1      36.655  13.827  10.213  0.00  0.00     0.277 C 
HETATM    2  C   UNK N   1      36.112  15.166  10.803  0.00  0.00     0.184 C 
HETATM    3  C   UNK N   1      33.790  14.670   9.996  0.00  0.00     0.177 C 
HETATM    4  N   UNK N   1      35.565  12.959   9.667  0.00  0.00     0.100 N 
HETATM    5  C   UNK N   1      34.251  13.225  10.248  0.00  0.00     0.307 C 
HETATM    6  C   UNK N   1      34.982  15.653   9.893  0.00  0.00     0.179 C 
ENDROOT
BRANCH   4   7
HETATM    7  C   UNK N   1      35.818  11.524   9.786  0.00  0.00     0.273 C 
BRANCH   7   8
HETATM    8  C   UNK N   1      34.797  10.864  10.694  0.00  0.00     0.030 C 
BRANCH   8   9
HETATM    9  C   UNK N   1      35.504   9.870  11.599  0.00  0.00     0.002 C 
BRANCH   9  10
HETATM   10  C   UNK N   1      34.651   9.559  12.816  0.00  0.00     0.000 C 
BRANCH  10  11
HETATM   11  C   UNK N   1      33.958  10.820  13.292  0.00  0.00     0.000 C 
BRANCH  11  12
HETATM   12  C   UNK N   1      33.815  10.778  14.798  0.00  0.00     0.000 C 
BRANCH  12  13
HETATM   13  C   UNK N   1      35.013  11.444  15.438  0.00  0.00    -0.000 C 
BRANCH  13  14
HETATM   14  C   UNK N   1      34.605  12.801  15.972  0.00  0.00    -0.005 C 
HETATM   15  C   UNK N   1      35.078  12.944  17.404  0.00  0.00     0.005 C 
ENDBRANCH  13  14
ENDBRANCH  12  13
ENDBRANCH  11  12
ENDBRANCH  10  11
ENDBRANCH   9  10
ENDBRANCH   8   9
ENDBRANCH   7   8
ENDBRANCH   4   7
BRANCH   1  16
HETATM   16  C   UNK N   1      37.560  13.126  11.243  0.00  0.00     0.202 C 
BRANCH  16  17
HETATM   17  O   UNK N   1      37.247  13.535  12.541  0.00  0.00    -0.399 OA
HETATM   18  H   UNK N   1      37.109  14.468  12.769  0.00  0.00     0.209 HD
ENDBRANCH  16  17
ENDBRANCH   1  16
BRANCH   2  19
HETATM   19  O   UNK N   1      37.137  16.112  10.872  0.00  0.00    -0.391 OA
HETATM   20  H   UNK N   1      37.856  16.105  11.523  0.00  0.00     0.210 HD
ENDBRANCH   2  19
BRANCH   3  21
HETATM   21  O   UNK N   1      32.969  15.020  11.069  0.00  0.00    -0.391 OA
HETATM   22  H   UNK N   1      32.089  15.359  11.301  0.00  0.00     0.210 HD
ENDBRANCH   3  21
BRANCH   6  23
HETATM   23  O   UNK N   1      34.574  16.948  10.231  0.00  0.00    -0.390 OA
HETATM   24  H   UNK N   1      34.910  17.708   9.730  0.00  0.00     0.210 HD
ENDBRANCH   6  23
TORSDOF 13
ENDMDL
MODEL 3
REMARK VINA RESULT:      -5.1      7.465     10.069
REMARK  13 active torsions:
REMARK  status: ('A' for Active; 'I' for Inactive)
REMARK    1  A    between atoms: O_1  and  C_2 
REMARK    2  A    between atoms: C_3  and  C_2 
REMARK    3  A    between atoms: C_4  and  O_5 
REMARK    4  A    between atoms: C_20  and  O_6 
REMARK    5  A    between atoms: C_7  and  O_8 
REMARK    6  A    between atoms: N_9  and  C_10 
REMARK    7  A    between atoms: C_10  and  C_11 
REMARK    8  A    between atoms: C_11  and  C_13 
REMARK    9  A    between atoms: C_13  and  C_14 
REMARK   10  A    between atoms: C_14  and  C_15 
REMARK   11  A    between atoms: C_15  and  C_16 
REMARK   12  A    between atoms: C_16  and  C_17 
REMARK   13  A    between atoms: C_17  and  C_19 
ROOT
HETATM    1  C   UNK N   1      20.013  18.324   2.308  0.00  0.00     0.277 C 
HETATM    2  C   UNK N   1      20.909  19.500   1.809  0.00  0.00     0.184 C 
HETATM    3  C   UNK N   1      22.281  19.449   3.908  0.00  0.00     0.177 C 
HETATM    4  N   UNK N   1      20.505  17.736   3.592  0.00  0.00     0.100 N 
HETATM    5  C   UNK N   1      21.929  17.953   3.834  0.00  0.00     0.307 C 
HETATM    6  C   UNK N   1      21.339  20.313   3.033  0.00  0.00     0.179 C 
ENDROOT
BRANCH   4   7
HETATM    7  C   UNK N   1      20.247  16.304   3.739  0.00  0.00     0.273 C 
BRANCH   7   8
HETATM    8  C   UNK N   1      19.358  16.030   4.938  0.00  0.00     0.030 C 
BRANCH   8   9
HETATM    9  C   UNK N   1      20.207  15.493   6.076  0.00  0.00     0.002 C 
BRANCH   9  10
HETATM   10  C   UNK N   1      20.616  16.617   7.011  0.00  0.00     0.000 C 
BRANCH  10  11
HETATM   11  C   UNK N   1      20.392  16.195   8.449  0.00  0.00     0.000 C 
BRANCH  11  12
HETATM   12  C   UNK N   1      20.383  14.684   8.534  0.00  0.00     0.000 C 
BRANCH  12  13
HETATM   13  C   UNK N   1      21.412  14.228   9.545  0.00  0.00    -0.000 C 
BRANCH  13  14
HETATM   14  C   UNK N   1      21.449  12.715   9.573  0.00  0.00    -0.005 C 
HETATM   15  C   UNK N   1      21.586  12.240  11.005  0.00  0.00     0.005 C 
ENDBRANCH  13  14
ENDBRANCH  12  13
ENDBRANCH  11  12
ENDBRANCH  10  11
ENDBRANCH   9  10
ENDBRANCH   8   9
ENDBRANCH   7   8
ENDBRANCH   4   7
BRANCH   1  16
HETATM   16  C   UNK N   1      19.817  17.296   1.179  0.00  0.00     0.202 C 
BRANCH  16  17
HETATM   17  O   UNK N   1      20.352  17.766  -0.022  0.00  0.00    -0.399 OA
HETATM   18  H   UNK N   1      21.293  17.983  -0.117  0.00  0.00     0.209 HD
ENDBRANCH  16  17
ENDBRANCH   1  16
BRANCH   2  19
HETATM   19  O   UNK N   1      20.199  20.298   0.909  0.00  0.00    -0.391 OA
HETATM   20  H   UNK N   1      19.239  20.439   0.930  0.00  0.00     0.210 HD
ENDBRANCH   2  19
BRANCH   3  21
HETATM   21  O   UNK N   1      23.598  19.572   3.463  0.00  0.00    -0.391 OA
HETATM   22  H   UNK N   1      24.521  19.617   3.760  0.00  0.00     0.210 HD
ENDBRANCH   3  21
BRANCH   6  23
HETATM   23  O   UNK N   1      21.976  21.501   2.662  0.00  0.00    -0.390 OA
HETATM   24  H   UNK N   1      22.521  21.529   1.859  0.00  0.00     0.210 HD
ENDBRANCH   6  23
TORSDOF 13
ENDMDL
MODEL 4
REMARK VINA RESULT:      -5.0     10.885     12.820
REMARK  13 active torsions:
REMARK  status: ('A' for Active; 'I' for Inactive)
REMARK    1  A    between atoms: O_1  and  C_2 
REMARK    2  A    between atoms: C_3  and  C_2 
REMARK    3  A    between atoms: C_4  and  O_5 
REMARK    4  A    between atoms: C_20  and  O_6 
REMARK    5  A    between atoms: C_7  and  O_8 
REMARK    6  A    between atoms: N_9  and  C_10 
REMARK    7  A    between atoms: C_10  and  C_11 
REMARK    8  A    between atoms: C_11  and  C_13 
REMARK    9  A    between atoms: C_13  and  C_14 
REMARK   10  A    between atoms: C_14  and  C_15 
REMARK   11  A    between atoms: C_15  and  C_16 
REMARK   12  A    between atoms: C_16  and  C_17 
REMARK   13  A    between atoms: C_17  and  C_19 
ROOT
HETATM    1  C   UNK N   1      30.778  21.896  -3.331  0.00  0.00     0.277 C 
HETATM    2  C   UNK N   1      32.281  21.476  -3.332  0.00  0.00     0.184 C 
HETATM    3  C   UNK N   1      32.184  20.844  -5.757  0.00  0.00     0.177 C 
HETATM    4  N   UNK N   1      30.172  21.854  -4.699  0.00  0.00     0.100 N 
HETATM    5  C   UNK N   1      31.145  21.978  -5.781  0.00  0.00     0.307 C 
HETATM    6  C   UNK N   1      32.443  20.320  -4.323  0.00  0.00     0.179 C 
ENDROOT
BRANCH   4   7
HETATM    7  C   UNK N   1      29.127  22.851  -4.928  0.00  0.00     0.273 C 
BRANCH   7   8
HETATM    8  C   UNK N   1      28.489  22.668  -6.293  0.00  0.00     0.030 C 
BRANCH   8   9
HETATM    9  C   UNK N   1      27.553  23.831  -6.565  0.00  0.00     0.002 C 
BRANCH   9  10
HETATM   10  C   UNK N   1      26.211  23.603  -5.892  0.00  0.00     0.000 C 
BRANCH  10  11
HETATM   11  C   UNK N   1      25.745  24.884  -5.231  0.00  0.00     0.000 C 
BRANCH  11  12
HETATM   12  C   UNK N   1      25.484  25.931  -6.292  0.00  0.00     0.000 C 
BRANCH  12  13
HETATM   13  C   UNK N   1      24.712  27.083  -5.687  0.00  0.00    -0.000 C 
BRANCH  13  14
HETATM   14  C   UNK N   1      25.526  27.700  -4.570  0.00  0.00    -0.005 C 
HETATM   15  C   UNK N   1      26.650  28.527  -5.161  0.00  0.00     0.005 C 
ENDBRANCH  13  14
ENDBRANCH  12  13
ENDBRANCH  11  12
ENDBRANCH  10  11
ENDBRANCH   9  10
ENDBRANCH   8   9
ENDBRANCH   7   8
ENDBRANCH   4   7
BRANCH   1  16
HETATM   16  C   UNK N   1      30.609  23.246  -2.610  0.00  0.00     0.202 C 
BRANCH  16  17
HETATM   17  O   UNK N   1      30.423  23.058  -1.239  0.00  0.00    -0.399 OA
HETATM   18  H   UNK N   1      30.986  23.490  -0.578  0.00  0.00     0.209 HD
ENDBRANCH  16  17
ENDBRANCH   1  16
BRANCH   2  19
HETATM   19  O   UNK N   1      32.673  21.088  -2.049  0.00  0.00    -0.391 OA
HETATM   20  H   UNK N   1      32.824  20.171  -1.769  0.00  0.00     0.210 HD
ENDBRANCH   2  19
BRANCH   3  21
HETATM   21  O   UNK N   1      33.359  21.367  -6.298  0.00  0.00    -0.391 OA
HETATM   22  H   UNK N   1      33.912  21.383  -7.096  0.00  0.00     0.210 HD
ENDBRANCH   3  21
BRANCH   6  23
HETATM   23  O   UNK N   1      33.716  19.747  -4.238  0.00  0.00    -0.390 OA
HETATM   24  H   UNK N   1      34.504  20.314  -4.235  0.00  0.00     0.210 HD
ENDBRANCH   6  23
TORSDOF 13
ENDMDL
MODEL 5
REMARK VINA RESULT:      -5.0      5.655      8.535
REMARK  13 active torsions:
REMARK  status: ('A' for Active; 'I' for Inactive)
REMARK    1  A    between atoms: O_1  and  C_2 
REMARK    2  A    between atoms: C_3  and  C_2 
REMARK    3  A    between atoms: C_4  and  O_5 
REMARK    4  A    between atoms: C_20  and  O_6 
REMARK    5  A    between atoms: C_7  and  O_8 
REMARK    6  A    between atoms: N_9  and  C_10 
REMARK    7  A    between atoms: C_10  and  C_11 
REMARK    8  A    between atoms: C_11  and  C_13 
REMARK    9  A    between atoms: C_13  and  C_14 
REMARK   10  A    between atoms: C_14  and  C_15 
REMARK   11  A    between atoms: C_15  and  C_16 
REMARK   12  A    between atoms: C_16  and  C_17 
REMARK   13  A    between atoms: C_17  and  C_19 
ROOT
HETATM    1  C   UNK N   1      21.604  17.922   3.916  0.00  0.00     0.277 C 
HETATM    2  C   UNK N   1      20.363  17.791   2.979  0.00  0.00     0.184 C 
HETATM    3  C   UNK N   1      20.547  20.189   2.269  0.00  0.00     0.177 C 
HETATM    4  N   UNK N   1      22.283  19.249   3.783  0.00  0.00     0.100 N 
HETATM    5  C   UNK N   1      22.042  19.910   2.503  0.00  0.00     0.307 C 
HETATM    6  C   UNK N   1      19.643  19.142   2.964  0.00  0.00     0.179 C 
ENDROOT
BRANCH   4   7
HETATM    7  C   UNK N   1      23.729  19.212   3.996  0.00  0.00     0.273 C 
BRANCH   7   8
HETATM    8  C   UNK N   1      24.441  20.182   3.071  0.00  0.00     0.030 C 
BRANCH   8   9
HETATM    9  C   UNK N   1      25.919  20.206   3.416  0.00  0.00     0.002 C 
BRANCH   9  10
HETATM   10  C   UNK N   1      26.115  20.462   4.900  0.00  0.00     0.000 C 
BRANCH  10  11
HETATM   11  C   UNK N   1      27.531  20.100   5.300  0.00  0.00     0.000 C 
BRANCH  11  12
HETATM   12  C   UNK N   1      27.613  19.981   6.806  0.00  0.00     0.000 C 
BRANCH  12  13
HETATM   13  C   UNK N   1      28.188  18.631   7.175  0.00  0.00    -0.000 C 
BRANCH  13  14
HETATM   14  C   UNK N   1      28.222  18.496   8.683  0.00  0.00    -0.005 C 
HETATM   15  C   UNK N   1      29.642  18.683   9.175  0.00  0.00     0.005 C 
ENDBRANCH  13  14
ENDBRANCH  12  13
ENDBRANCH  11  12
ENDBRANCH  10  11
ENDBRANCH   9  10
ENDBRANCH   8   9
ENDBRANCH   7   8
ENDBRANCH   4   7
BRANCH   1  16
HETATM   16  C   UNK N   1      22.540  16.715   3.723  0.00  0.00     0.202 C 
BRANCH  16  17
HETATM   17  O   UNK N   1      22.143  15.947   2.627  0.00  0.00    -0.399 OA
HETATM   18  H   UNK N   1      21.963  14.997   2.701  0.00  0.00     0.209 HD
ENDBRANCH  16  17
ENDBRANCH   1  16
BRANCH   2  19
HETATM   19  O   UNK N   1      19.515  16.782   3.441  0.00  0.00    -0.391 OA
HETATM   20  H   UNK N   1      19.134  16.743   4.333  0.00  0.00     0.210 HD
ENDBRANCH   2  19
BRANCH   3  21
HETATM   21  O   UNK N   1      20.347  20.157   0.888  0.00  0.00    -0.391 OA
HETATM   22  H   UNK N   1      20.659  20.524   0.045  0.00  0.00     0.210 HD
ENDBRANCH   3  21
BRANCH   6  23
HETATM   23  O   UNK N   1      18.408  19.058   2.312  0.00  0.00    -0.390 OA
HETATM   24  H   UNK N   1      18.359  19.176   1.350  0.00  0.00     0.210 HD
ENDBRANCH   6  23
TORSDOF 13
ENDMDL
MODEL 6
REMARK VINA RESULT:      -5.0      8.009     10.239
REMARK  13 active torsions:
REMARK  status: ('A' for Active; 'I' for Inactive)
REMARK    1  A    between atoms: O_1  and  C_2 
REMARK    2  A    between atoms: C_3  and  C_2 
REMARK    3  A    between atoms: C_4  and  O_5 
REMARK    4  A    between atoms: C_20  and  O_6 
REMARK    5  A    between atoms: C_7  and  O_8 
REMARK    6  A    between atoms: N_9  and  C_10 
REMARK    7  A    between atoms: C_10  and  C_11 
REMARK    8  A    between atoms: C_11  and  C_13 
REMARK    9  A    between atoms: C_13  and  C_14 
REMARK   10  A    between atoms: C_14  and  C_15 
REMARK   11  A    between atoms: C_15  and  C_16 
REMARK   12  A    between atoms: C_16  and  C_17 
REMARK   13  A    between atoms: C_17  and  C_19 
ROOT
HETATM    1  C   UNK N   1      20.207  17.711   2.243  0.00  0.00     0.277 C 
HETATM    2  C   UNK N   1      20.747  18.759   1.221  0.00  0.00     0.184 C 
HETATM    3  C   UNK N   1      20.923  20.518   3.000  0.00  0.00     0.177 C 
HETATM    4  N   UNK N   1      20.230  18.219   3.650  0.00  0.00     0.100 N 
HETATM    5  C   UNK N   1      21.202  19.285   3.877  0.00  0.00     0.307 C 
HETATM    6  C   UNK N   1      20.249  20.138   1.658  0.00  0.00     0.179 C 
ENDROOT
BRANCH   4   7
HETATM    7  C   UNK N   1      20.461  17.189   4.662  0.00  0.00     0.273 C 
BRANCH   7   8
HETATM    8  C   UNK N   1      21.566  17.600   5.616  0.00  0.00     0.030 C 
BRANCH   8   9
HETATM    9  C   UNK N   1      21.879  16.441   6.546  0.00  0.00     0.002 C 
BRANCH   9  10
HETATM   10  C   UNK N   1      21.015  15.239   6.206  0.00  0.00     0.000 C 
BRANCH  10  11
HETATM   11  C   UNK N   1      20.982  14.283   7.381  0.00  0.00     0.000 C 
BRANCH  11  12
HETATM   12  C   UNK N   1      20.794  15.067   8.662  0.00  0.00     0.000 C 
BRANCH  12  13
HETATM   13  C   UNK N   1      20.474  14.115   9.794  0.00  0.00    -0.000 C 
BRANCH  13  14
HETATM   14  C   UNK N   1      21.278  12.844   9.622  0.00  0.00    -0.005 C 
HETATM   15  C   UNK N   1      21.536  12.221  10.978  0.00  0.00     0.005 C 
ENDBRANCH  13  14
ENDBRANCH  12  13
ENDBRANCH  11  12
ENDBRANCH  10  11
ENDBRANCH   9  10
ENDBRANCH   8   9
ENDBRANCH   7   8
ENDBRANCH   4   7
BRANCH   1  16
HETATM   16  C   UNK N   1      20.929  16.365   2.048  0.00  0.00     0.202 C 
BRANCH  16  17
HETATM   17  O   UNK N   1      20.808  15.920   0.730  0.00  0.00    -0.399 OA
HETATM   18  H   UNK N   1      20.382  16.456   0.043  0.00  0.00     0.209 HD
ENDBRANCH  16  17
ENDBRANCH   1  16
BRANCH   2  19
HETATM   19  O   UNK N   1      20.297  18.454  -0.066  0.00  0.00    -0.391 OA
HETATM   20  H   UNK N   1      20.053  17.566  -0.372  0.00  0.00     0.210 HD
ENDBRANCH   2  19
BRANCH   3  21
HETATM   21  O   UNK N   1      22.157  21.127   2.763  0.00  0.00    -0.391 OA
HETATM   22  H   UNK N   1      22.771  21.400   2.062  0.00  0.00     0.210 HD
ENDBRANCH   3  21
BRANCH   6  23
HETATM   23  O   UNK N   1      20.515  21.111   0.689  0.00  0.00    -0.390 OA
HETATM   24  H   UNK N   1      20.447  22.053   0.916  0.00  0.00     0.210 HD
ENDBRANCH   6  23
TORSDOF 13
ENDMDL
MODEL 7
REMARK VINA RESULT:      -5.0      5.449      8.501
REMARK  13 active torsions:
REMARK  status: ('A' for Active; 'I' for Inactive)
REMARK    1  A    between atoms: O_1  and  C_2 
REMARK    2  A    between atoms: C_3  and  C_2 
REMARK    3  A    between atoms: C_4  and  O_5 
REMARK    4  A    between atoms: C_20  and  O_6 
REMARK    5  A    between atoms: C_7  and  O_8 
REMARK    6  A    between atoms: N_9  and  C_10 
REMARK    7  A    between atoms: C_10  and  C_11 
REMARK    8  A    between atoms: C_11  and  C_13 
REMARK    9  A    between atoms: C_13  and  C_14 
REMARK   10  A    between atoms: C_14  and  C_15 
REMARK   11  A    between atoms: C_15  and  C_16 
REMARK   12  A    between atoms: C_16  and  C_17 
REMARK   13  A    between atoms: C_17  and  C_19 
ROOT
HETATM    1  C   UNK N   1      21.095  19.146   2.741  0.00  0.00     0.277 C 
HETATM    2  C   UNK N   1      19.795  18.561   3.375  0.00  0.00     0.184 C 
HETATM    3  C   UNK N   1      21.114  17.093   4.922  0.00  0.00     0.177 C 
HETATM    4  N   UNK N   1      22.332  18.679   3.442  0.00  0.00     0.100 N 
HETATM    5  C   UNK N   1      22.107  18.264   4.825  0.00  0.00     0.307 C 
HETATM    6  C   UNK N   1      20.078  17.110   3.771  0.00  0.00     0.179 C 
ENDROOT
BRANCH   4   7
HETATM    7  C   UNK N   1      23.428  19.648   3.446  0.00  0.00     0.273 C 
BRANCH   7   8
HETATM    8  C   UNK N   1      24.575  19.171   4.317  0.00  0.00     0.030 C 
BRANCH   8   9
HETATM    9  C   UNK N   1      25.858  19.189   3.506  0.00  0.00     0.002 C 
BRANCH   9  10
HETATM   10  C   UNK N   1      26.849  20.173   4.101  0.00  0.00     0.000 C 
BRANCH  10  11
HETATM   11  C   UNK N   1      26.304  20.726   5.402  0.00  0.00     0.000 C 
BRANCH  11  12
HETATM   12  C   UNK N   1      27.385  20.681   6.460  0.00  0.00     0.000 C 
BRANCH  12  13
HETATM   13  C   UNK N   1      27.995  19.297   6.501  0.00  0.00    -0.000 C 
BRANCH  13  14
HETATM   14  C   UNK N   1      28.209  18.886   7.942  0.00  0.00    -0.005 C 
HETATM   15  C   UNK N   1      29.209  17.750   8.000  0.00  0.00     0.005 C 
ENDBRANCH  13  14
ENDBRANCH  12  13
ENDBRANCH  11  12
ENDBRANCH  10  11
ENDBRANCH   9  10
ENDBRANCH   8   9
ENDBRANCH   7   8
ENDBRANCH   4   7
BRANCH   1  16
HETATM   16  C   UNK N   1      20.981  20.676   2.620  0.00  0.00     0.202 C 
BRANCH  16  17
HETATM   17  O   UNK N   1      20.217  21.203   3.663  0.00  0.00    -0.399 OA
HETATM   18  H   UNK N   1      20.353  20.938   4.586  0.00  0.00     0.209 HD
ENDBRANCH  16  17
ENDBRANCH   1  16
BRANCH   2  19
HETATM   19  O   UNK N   1      18.741  18.629   2.460  0.00  0.00    -0.391 OA
HETATM   20  H   UNK N   1      17.972  18.036   2.455  0.00  0.00     0.210 HD
ENDBRANCH   2  19
BRANCH   3  21
HETATM   21  O   UNK N   1      20.468  17.219   6.153  0.00  0.00    -0.391 OA
HETATM   22  H   UNK N   1      20.472  16.907   7.072  0.00  0.00     0.210 HD
ENDBRANCH   3  21
BRANCH   6  23
HETATM   23  O   UNK N   1      18.910  16.447   4.160  0.00  0.00    -0.390 OA
HETATM   24  H   UNK N   1      18.526  15.765   3.586  0.00  0.00     0.210 HD
ENDBRANCH   6  23
TORSDOF 13
ENDMDL
MODEL 8
REMARK VINA RESULT:      -4.9      1.437      2.354
REMARK  13 active torsions:
REMARK  status: ('A' for Active; 'I' for Inactive)
REMARK    1  A    between atoms: O_1  and  C_2 
REMARK    2  A    between atoms: C_3  and  C_2 
REMARK    3  A    between atoms: C_4  and  O_5 
REMARK    4  A    between atoms: C_20  and  O_6 
REMARK    5  A    between atoms: C_7  and  O_8 
REMARK    6  A    between atoms: N_9  and  C_10 
REMARK    7  A    between atoms: C_10  and  C_11 
REMARK    8  A    between atoms: C_11  and  C_13 
REMARK    9  A    between atoms: C_13  and  C_14 
REMARK   10  A    between atoms: C_14  and  C_15 
REMARK   11  A    between atoms: C_15  and  C_16 
REMARK   12  A    between atoms: C_16  and  C_17 
REMARK   13  A    between atoms: C_17  and  C_19 
ROOT
HETATM    1  C   UNK N   1      30.376  17.254   6.912  0.00  0.00     0.277 C 
HETATM    2  C   UNK N   1      30.254  17.185   8.466  0.00  0.00     0.184 C 
HETATM    3  C   UNK N   1      28.297  18.753   8.461  0.00  0.00     0.177 C 
HETATM    4  N   UNK N   1      29.257  18.026   6.285  0.00  0.00     0.100 N 
HETATM    5  C   UNK N   1      28.047  18.080   7.101  0.00  0.00     0.307 C 
HETATM    6  C   UNK N   1      29.750  18.544   8.957  0.00  0.00     0.179 C 
ENDROOT
BRANCH   4   7
HETATM    7  C   UNK N   1      28.871  17.558   4.954  0.00  0.00     0.273 C 
BRANCH   7   8
HETATM    8  C   UNK N   1      27.528  18.132   4.543  0.00  0.00     0.030 C 
BRANCH   8   9
HETATM    9  C   UNK N   1      27.750  19.432   3.791  0.00  0.00     0.002 C 
BRANCH   9  10
HETATM   10  C   UNK N   1      26.596  20.389   4.031  0.00  0.00     0.000 C 
BRANCH  10  11
HETATM   11  C   UNK N   1      25.553  20.217   2.945  0.00  0.00     0.000 C 
BRANCH  11  12
HETATM   12  C   UNK N   1      24.241  19.795   3.570  0.00  0.00     0.000 C 
BRANCH  12  13
HETATM   13  C   UNK N   1      23.098  20.488   2.861  0.00  0.00    -0.000 C 
BRANCH  13  14
HETATM   14  C   UNK N   1      21.824  19.698   3.073  0.00  0.00    -0.005 C 
HETATM   15  C   UNK N   1      22.069  18.611   4.100  0.00  0.00     0.005 C 
ENDBRANCH  13  14
ENDBRANCH  12  13
ENDBRANCH  11  12
ENDBRANCH  10  11
ENDBRANCH   9  10
ENDBRANCH   8   9
ENDBRANCH   7   8
ENDBRANCH   4   7
BRANCH   1  16
HETATM   16  C   UNK N   1      30.565  15.840   6.334  0.00  0.00     0.202 C 
BRANCH  16  17
HETATM   17  O   UNK N   1      31.875  15.395   6.524  0.00  0.00    -0.399 OA
HETATM   18  H   UNK N   1      32.524  15.381   5.804  0.00  0.00     0.209 HD
ENDBRANCH  16  17
ENDBRANCH   1  16
BRANCH   2  19
HETATM   19  O   UNK N   1      31.495  16.883   9.033  0.00  0.00    -0.391 OA
HETATM   20  H   UNK N   1      31.813  15.986   9.224  0.00  0.00     0.210 HD
ENDBRANCH   2  19
BRANCH   3  21
HETATM   21  O   UNK N   1      27.395  18.182   9.361  0.00  0.00    -0.391 OA
HETATM   22  H   UNK N   1      27.212  18.051  10.305  0.00  0.00     0.210 HD
ENDBRANCH   3  21
BRANCH   6  23
HETATM   23  O   UNK N   1      29.805  18.638  10.351  0.00  0.00    -0.390 OA
HETATM   24  H   UNK N   1      29.337  19.356  10.807  0.00  0.00     0.210 HD
ENDBRANCH   6  23
TORSDOF 13
ENDMDL
MODEL 9
REMARK VINA RESULT:      -4.8      5.015      7.641
REMARK  13 active torsions:
REMARK  status: ('A' for Active; 'I' for Inactive)
REMARK    1  A    between atoms: O_1  and  C_2 
REMARK    2  A    between atoms: C_3  and  C_2 
REMARK    3  A    between atoms: C_4  and  O_5 
REMARK    4  A    between atoms: C_20  and  O_6 
REMARK    5  A    between atoms: C_7  and  O_8 
REMARK    6  A    between atoms: N_9  and  C_10 
REMARK    7  A    between atoms: C_10  and  C_11 
REMARK    8  A    between atoms: C_11  and  C_13 
REMARK    9  A    between atoms: C_13  and  C_14 
REMARK   10  A    between atoms: C_14  and  C_15 
REMARK   11  A    between atoms: C_15  and  C_16 
REMARK   12  A    between atoms: C_16  and  C_17 
REMARK   13  A    between atoms: C_17  and  C_19 
ROOT
HETATM    1  C   UNK N   1      34.380  13.497   9.851  0.00  0.00     0.277 C 
HETATM    2  C   UNK N   1      35.185  13.910  11.123  0.00  0.00     0.184 C 
HETATM    3  C   UNK N   1      37.337  13.966   9.838  0.00  0.00     0.177 C 
HETATM    4  N   UNK N   1      35.221  13.509   8.614  0.00  0.00     0.100 N 
HETATM    5  C   UNK N   1      36.388  14.382   8.701  0.00  0.00     0.307 C 
HETATM    6  C   UNK N   1      36.582  13.295  11.011  0.00  0.00     0.179 C 
ENDROOT
BRANCH   4   7
HETATM    7  C   UNK N   1      34.496  13.862   7.393  0.00  0.00     0.273 C 
BRANCH   7   8
HETATM    8  C   UNK N   1      35.138  15.051   6.703  0.00  0.00     0.030 C 
BRANCH   8   9
HETATM    9  C   UNK N   1      34.108  16.157   6.554  0.00  0.00     0.002 C 
BRANCH   9  10
HETATM   10  C   UNK N   1      34.272  17.186   7.659  0.00  0.00     0.000 C 
BRANCH  10  11
HETATM   11  C   UNK N   1      33.101  18.149   7.639  0.00  0.00     0.000 C 
BRANCH  11  12
HETATM   12  C   UNK N   1      31.984  17.599   8.499  0.00  0.00     0.000 C 
BRANCH  12  13
HETATM   13  C   UNK N   1      30.763  17.348   7.641  0.00  0.00    -0.000 C 
BRANCH  13  14
HETATM   14  C   UNK N   1      29.613  18.193   8.147  0.00  0.00    -0.005 C 
HETATM   15  C   UNK N   1      29.890  18.619   9.574  0.00  0.00     0.005 C 
ENDBRANCH  13  14
ENDBRANCH  12  13
ENDBRANCH  11  12
ENDBRANCH  10  11
ENDBRANCH   9  10
ENDBRANCH   8   9
ENDBRANCH   7   8
ENDBRANCH   4   7
BRANCH   1  16
HETATM   16  C   UNK N   1      33.094  14.337   9.746  0.00  0.00     0.202 C 
BRANCH  16  17
HETATM   17  O   UNK N   1      32.922  15.130  10.882  0.00  0.00    -0.399 OA
HETATM   18  H   UNK N   1      33.147  14.813  11.771  0.00  0.00     0.209 HD
ENDBRANCH  16  17
ENDBRANCH   1  16
BRANCH   2  19
HETATM   19  O   UNK N   1      34.534  13.457  12.273  0.00  0.00    -0.391 OA
HETATM   20  H   UNK N   1      33.934  12.695  12.306  0.00  0.00     0.210 HD
ENDBRANCH   2  19
BRANCH   3  21
HETATM   21  O   UNK N   1      37.971  15.130  10.275  0.00  0.00    -0.391 OA
HETATM   22  H   UNK N   1      37.815  16.002  10.671  0.00  0.00     0.210 HD
ENDBRANCH   3  21
BRANCH   6  23
HETATM   23  O   UNK N   1      37.304  13.444  12.200  0.00  0.00    -0.390 OA
HETATM   24  H   UNK N   1      38.039  12.843  12.399  0.00  0.00     0.210 HD
ENDBRANCH   6  23
TORSDOF 13
ENDMDL
