MODEL 1
REMARK VINA RESULT:      -6.8      0.000      0.000
REMARK  6 active torsions:
REMARK  status: ('A' for Active; 'I' for Inactive)
REMARK    1  A    between atoms: C_7  and  N_8 
REMARK    2  A    between atoms: N_8  and  C_9 
REMARK    3  A    between atoms: C_9  and  O_11 
REMARK    4  A    between atoms: O_11  and  C_12 
REMARK    5  A    between atoms: C_12  and  C_13 
REMARK    6  A    between atoms: C_13  and  N_14 
ROOT
HETATM    1  C   UNK N   1      35.956  14.611  12.089  0.00  0.00     0.198 C 
ENDROOT
BRANCH   1   2
HETATM    2  O   UNK N   1      36.352  13.357  12.494  0.00  0.00    -0.325 OA
BRANCH   2   3
HETATM    3  C   UNK N   1      35.508  12.297  12.481  0.00  0.00     0.214 C 
HETATM    4  S   UNK N   1      35.741  11.191  11.576  0.00  0.00    -0.033 SA
BRANCH   3   5
HETATM    5  N   UNK N   1      34.500  12.223  13.485  0.00  0.00    -0.328 N 
HETATM    6  H   UNK N   1      33.566  12.357  13.203  0.00  0.00     0.169 HD
BRANCH   5   7
HETATM    7  C   UNK N   1      34.739  11.972  14.859  0.00  0.00     0.034 A 
HETATM    8  C   UNK N   1      34.687  10.656  15.315  0.00  0.00     0.031 A 
HETATM    9  C   UNK N   1      34.889  10.369  16.663  0.00  0.00     0.020 A 
HETATM   10  C   UNK N   1      35.165  11.399  17.563  0.00  0.00     0.006 A 
HETATM   11  I   UNK N   1      35.458  10.933  19.592  0.00  0.00    -0.045 I 
HETATM   12  C   UNK N   1      35.239  12.724  17.113  0.00  0.00     0.020 A 
HETATM   13  C   UNK N   1      35.020  13.014  15.759  0.00  0.00     0.031 A 
ENDBRANCH   5   7
ENDBRANCH   3   5
ENDBRANCH   2   3
ENDBRANCH   1   2
BRANCH   1  14
HETATM   14  C   UNK N   1      36.343  14.872  10.646  0.00  0.00     0.162 C 
BRANCH  14  15
HETATM   15  N   UNK N   1      35.196  15.362   9.913  0.00  0.00    -0.278 N 
HETATM   16  C   UNK N   1      34.280  14.596   9.273  0.00  0.00     0.261 A 
HETATM   17  O   UNK N   1      34.294  13.376   9.245  0.00  0.00    -0.267 OA
HETATM   18  C   UNK N   1      33.293  15.456   8.630  0.00  0.00     0.048 A 
HETATM   19  C   UNK N   1      32.178  15.162   7.854  0.00  0.00     0.018 A 
HETATM   20  C   UNK N   1      33.662  16.752   8.918  0.00  0.00     0.048 A 
HETATM   21  C   UNK N   1      31.423  16.242   7.361  0.00  0.00     0.001 A 
HETATM   22  C   UNK N   1      31.801  17.574   7.652  0.00  0.00     0.001 A 
HETATM   23  C   UNK N   1      32.935  17.839   8.443  0.00  0.00     0.018 A 
HETATM   24  C   UNK N   1      34.872  16.664   9.738  0.00  0.00     0.261 A 
HETATM   25  O   UNK N   1      35.509  17.601  10.191  0.00  0.00    -0.267 OA
ENDBRANCH  14  15
ENDBRANCH   1  14
TORSDOF 6
ENDMDL
MODEL 2
REMARK VINA RESULT:      -6.7     21.450     23.034
REMARK  6 active torsions:
REMARK  status: ('A' for Active; 'I' for Inactive)
REMARK    1  A    between atoms: C_7  and  N_8 
REMARK    2  A    between atoms: N_8  and  C_9 
REMARK    3  A    between atoms: C_9  and  O_11 
REMARK    4  A    between atoms: O_11  and  C_12 
REMARK    5  A    between atoms: C_12  and  C_13 
REMARK    6  A    between atoms: C_13  and  N_14 
ROOT
HETATM    1  C   UNK N   1      28.295  29.866  -2.264  0.00  0.00     0.198 C 
ENDROOT
BRANCH   1   2
HETATM    2  O   UNK N   1      29.471  30.323  -2.813  0.00  0.00    -0.325 OA
BRANCH   2   3
HETATM    3  C   UNK N   1      30.556  29.524  -2.956  0.00  0.00     0.214 C 
HETATM    4  S   UNK N   1      31.347  29.156  -1.800  0.00  0.00    -0.033 SA
BRANCH   3   5
HETATM    5  N   UNK N   1      30.795  28.928  -4.228  0.00  0.00    -0.328 N 
HETATM    6  H   UNK N   1      31.314  29.448  -4.884  0.00  0.00     0.169 HD
BRANCH   5   7
HETATM    7  C   UNK N   1      30.341  27.645  -4.621  0.00  0.00     0.034 A 
HETATM    8  C   UNK N   1      30.618  27.208  -5.914  0.00  0.00     0.031 A 
HETATM    9  C   UNK N   1      30.165  25.964  -6.350  0.00  0.00     0.020 A 
HETATM   10  C   UNK N   1      29.447  25.139  -5.483  0.00  0.00     0.006 A 
HETATM   11  I   UNK N   1      28.772  23.271  -6.172  0.00  0.00    -0.045 I 
HETATM   12  C   UNK N   1      29.180  25.560  -4.173  0.00  0.00     0.020 A 
HETATM   13  C   UNK N   1      29.621  26.818  -3.741  0.00  0.00     0.031 A 
ENDBRANCH   5   7
ENDBRANCH   3   5
ENDBRANCH   2   3
ENDBRANCH   1   2
BRANCH   1  14
HETATM   14  C   UNK N   1      27.103  30.242  -3.124  0.00  0.00     0.162 C 
BRANCH  14  15
HETATM   15  N   UNK N   1      26.857  29.203  -4.100  0.00  0.00    -0.278 N 
HETATM   16  C   UNK N   1      27.360  29.164  -5.357  0.00  0.00     0.261 A 
HETATM   17  O   UNK N   1      28.108  30.004  -5.831  0.00  0.00    -0.267 OA
HETATM   18  C   UNK N   1      26.863  27.977  -6.042  0.00  0.00     0.048 A 
HETATM   19  C   UNK N   1      27.072  27.498  -7.330  0.00  0.00     0.018 A 
HETATM   20  C   UNK N   1      26.053  27.320  -5.142  0.00  0.00     0.048 A 
HETATM   21  C   UNK N   1      26.424  26.305  -7.697  0.00  0.00     0.001 A 
HETATM   22  C   UNK N   1      25.590  25.630  -6.775  0.00  0.00     0.001 A 
HETATM   23  C   UNK N   1      25.398  26.139  -5.477  0.00  0.00     0.018 A 
HETATM   24  C   UNK N   1      26.070  28.118  -3.914  0.00  0.00     0.261 A 
HETATM   25  O   UNK N   1      25.469  27.870  -2.881  0.00  0.00    -0.267 OA
ENDBRANCH  14  15
ENDBRANCH   1  14
TORSDOF 6
ENDMDL
MODEL 3
REMARK VINA RESULT:      -6.7      7.064      9.164
REMARK  6 active torsions:
REMARK  status: ('A' for Active; 'I' for Inactive)
REMARK    1  A    between atoms: C_7  and  N_8 
REMARK    2  A    between atoms: N_8  and  C_9 
REMARK    3  A    between atoms: C_9  and  O_11 
REMARK    4  A    between atoms: O_11  and  C_12 
REMARK    5  A    between atoms: C_12  and  C_13 
REMARK    6  A    between atoms: C_13  and  N_14 
ROOT
HETATM    1  C   UNK N   1      34.331  12.441   4.452  0.00  0.00     0.198 C 
ENDROOT
BRANCH   1   2
HETATM    2  O   UNK N   1      34.886  13.256   3.492  0.00  0.00    -0.325 OA
BRANCH   2   3
HETATM    3  C   UNK N   1      34.151  13.780   2.481  0.00  0.00     0.214 C 
HETATM    4  S   UNK N   1      33.564  12.914   1.481  0.00  0.00    -0.033 SA
BRANCH   3   5
HETATM    5  N   UNK N   1      33.835  15.169   2.525  0.00  0.00    -0.328 N 
HETATM    6  H   UNK N   1      34.391  15.780   1.989  0.00  0.00     0.169 HD
BRANCH   5   7
HETATM    7  C   UNK N   1      32.780  15.738   3.283  0.00  0.00     0.034 A 
HETATM    8  C   UNK N   1      31.755  14.905   3.726  0.00  0.00     0.031 A 
HETATM    9  C   UNK N   1      30.686  15.429   4.450  0.00  0.00     0.020 A 
HETATM   10  C   UNK N   1      30.646  16.791   4.751  0.00  0.00     0.006 A 
HETATM   11  I   UNK N   1      29.015  17.551   5.839  0.00  0.00    -0.045 I 
HETATM   12  C   UNK N   1      31.681  17.634   4.327  0.00  0.00     0.020 A 
HETATM   13  C   UNK N   1      32.749  17.110   3.585  0.00  0.00     0.031 A 
ENDBRANCH   5   7
ENDBRANCH   3   5
ENDBRANCH   2   3
ENDBRANCH   1   2
BRANCH   1  14
HETATM   14  C   UNK N   1      34.915  12.728   5.822  0.00  0.00     0.162 C 
BRANCH  14  15
HETATM   15  N   UNK N   1      34.336  13.941   6.357  0.00  0.00    -0.278 N 
HETATM   16  C   UNK N   1      34.880  15.179   6.277  0.00  0.00     0.261 A 
HETATM   17  O   UNK N   1      35.936  15.438   5.722  0.00  0.00    -0.267 OA
HETATM   18  C   UNK N   1      34.013  16.135   6.956  0.00  0.00     0.048 A 
HETATM   19  C   UNK N   1      34.130  17.505   7.161  0.00  0.00     0.018 A 
HETATM   20  C   UNK N   1      32.941  15.414   7.435  0.00  0.00     0.048 A 
HETATM   21  C   UNK N   1      33.108  18.146   7.884  0.00  0.00     0.001 A 
HETATM   22  C   UNK N   1      32.008  17.408   8.379  0.00  0.00     0.001 A 
HETATM   23  C   UNK N   1      31.916  16.021   8.154  0.00  0.00     0.018 A 
HETATM   24  C   UNK N   1      33.169  14.023   7.037  0.00  0.00     0.261 A 
HETATM   25  O   UNK N   1      32.443  13.072   7.279  0.00  0.00    -0.267 OA
ENDBRANCH  14  15
ENDBRANCH   1  14
TORSDOF 6
ENDMDL
MODEL 4
REMARK VINA RESULT:      -6.6     19.204     21.946
REMARK  6 active torsions:
REMARK  status: ('A' for Active; 'I' for Inactive)
REMARK    1  A    between atoms: C_7  and  N_8 
REMARK    2  A    between atoms: N_8  and  C_9 
REMARK    3  A    between atoms: C_9  and  O_11 
REMARK    4  A    between atoms: O_11  and  C_12 
REMARK    5  A    between atoms: C_12  and  C_13 
REMARK    6  A    between atoms: C_13  and  N_14 
ROOT
HETATM    1  C   UNK N   1      26.006  26.472  -5.784  0.00  0.00     0.198 C 
ENDROOT
BRANCH   1   2
HETATM    2  O   UNK N   1      25.247  25.383  -6.145  0.00  0.00    -0.325 OA
BRANCH   2   3
HETATM    3  C   UNK N   1      25.552  24.617  -7.220  0.00  0.00     0.214 C 
HETATM    4  S   UNK N   1      25.936  25.237  -8.471  0.00  0.00    -0.033 SA
BRANCH   3   5
HETATM    5  N   UNK N   1      25.649  23.207  -7.040  0.00  0.00    -0.328 N 
HETATM    6  H   UNK N   1      24.831  22.724  -6.778  0.00  0.00     0.169 HD
BRANCH   5   7
HETATM    7  C   UNK N   1      26.833  22.447  -7.209  0.00  0.00     0.034 A 
HETATM    8  C   UNK N   1      26.811  21.366  -8.088  0.00  0.00     0.031 A 
HETATM    9  C   UNK N   1      27.945  20.576  -8.261  0.00  0.00     0.020 A 
HETATM   10  C   UNK N   1      29.119  20.876  -7.568  0.00  0.00     0.006 A 
HETATM   11  I   UNK N   1      30.811  19.660  -7.847  0.00  0.00    -0.045 I 
HETATM   12  C   UNK N   1      29.158  21.972  -6.696  0.00  0.00     0.020 A 
HETATM   13  C   UNK N   1      28.012  22.757  -6.509  0.00  0.00     0.031 A 
ENDBRANCH   5   7
ENDBRANCH   3   5
ENDBRANCH   2   3
ENDBRANCH   1   2
BRANCH   1  14
HETATM   14  C   UNK N   1      26.260  26.496  -4.289  0.00  0.00     0.162 C 
BRANCH  14  15
HETATM   15  N   UNK N   1      27.402  25.666  -3.973  0.00  0.00    -0.278 N 
HETATM   16  C   UNK N   1      28.694  25.955  -4.261  0.00  0.00     0.261 A 
HETATM   17  O   UNK N   1      29.069  26.974  -4.816  0.00  0.00    -0.267 OA
HETATM   18  C   UNK N   1      29.547  24.862  -3.809  0.00  0.00     0.048 A 
HETATM   19  C   UNK N   1      30.923  24.674  -3.881  0.00  0.00     0.018 A 
HETATM   20  C   UNK N   1      28.711  23.924  -3.245  0.00  0.00     0.048 A 
HETATM   21  C   UNK N   1      31.447  23.480  -3.355  0.00  0.00     0.001 A 
HETATM   22  C   UNK N   1      30.591  22.514  -2.777  0.00  0.00     0.001 A 
HETATM   23  C   UNK N   1      29.201  22.733  -2.718  0.00  0.00     0.018 A 
HETATM   24  C   UNK N   1      27.354  24.461  -3.359  0.00  0.00     0.261 A 
HETATM   25  O   UNK N   1      26.327  23.921  -2.978  0.00  0.00    -0.267 OA
ENDBRANCH  14  15
ENDBRANCH   1  14
TORSDOF 6
ENDMDL
MODEL 5
REMARK VINA RESULT:      -6.6      4.094      8.359
REMARK  6 active torsions:
REMARK  status: ('A' for Active; 'I' for Inactive)
REMARK    1  A    between atoms: C_7  and  N_8 
REMARK    2  A    between atoms: N_8  and  C_9 
REMARK    3  A    between atoms: C_9  and  O_11 
REMARK    4  A    between atoms: O_11  and  C_12 
REMARK    5  A    between atoms: C_12  and  C_13 
REMARK    6  A    between atoms: C_13  and  N_14 
ROOT
HETATM    1  C   UNK N   1      35.294  16.069  11.123  0.00  0.00     0.198 C 
ENDROOT
BRANCH   1   2
HETATM    2  O   UNK N   1      35.398  16.607   9.860  0.00  0.00    -0.325 OA
BRANCH   2   3
HETATM    3  C   UNK N   1      34.339  17.163   9.225  0.00  0.00     0.214 C 
HETATM    4  S   UNK N   1      34.543  18.215   8.251  0.00  0.00    -0.033 SA
BRANCH   3   5
HETATM    5  N   UNK N   1      33.053  16.578   9.413  0.00  0.00    -0.328 N 
HETATM    6  H   UNK N   1      32.876  16.136  10.276  0.00  0.00     0.169 HD
BRANCH   5   7
HETATM    7  C   UNK N   1      32.011  16.582   8.453  0.00  0.00     0.034 A 
HETATM    8  C   UNK N   1      30.962  17.484   8.612  0.00  0.00     0.031 A 
HETATM    9  C   UNK N   1      29.904  17.502   7.706  0.00  0.00     0.020 A 
HETATM   10  C   UNK N   1      29.900  16.626   6.619  0.00  0.00     0.006 A 
HETATM   11  I   UNK N   1      28.285  16.673   5.274  0.00  0.00    -0.045 I 
HETATM   12  C   UNK N   1      30.959  15.727   6.438  0.00  0.00     0.020 A 
HETATM   13  C   UNK N   1      32.016  15.698   7.360  0.00  0.00     0.031 A 
ENDBRANCH   5   7
ENDBRANCH   3   5
ENDBRANCH   2   3
ENDBRANCH   1   2
BRANCH   1  14
HETATM   14  C   UNK N   1      36.362  15.020  11.365  0.00  0.00     0.162 C 
BRANCH  14  15
HETATM   15  N   UNK N   1      35.883  14.046  12.321  0.00  0.00    -0.278 N 
HETATM   16  C   UNK N   1      35.172  12.932  12.027  0.00  0.00     0.261 A 
HETATM   17  O   UNK N   1      34.851  12.592  10.899  0.00  0.00    -0.267 OA
HETATM   18  C   UNK N   1      34.852  12.220  13.258  0.00  0.00     0.048 A 
HETATM   19  C   UNK N   1      34.141  11.049  13.490  0.00  0.00     0.018 A 
HETATM   20  C   UNK N   1      35.403  12.955  14.285  0.00  0.00     0.048 A 
HETATM   21  C   UNK N   1      33.995  10.627  14.824  0.00  0.00     0.001 A 
HETATM   22  C   UNK N   1      34.557  11.381  15.881  0.00  0.00     0.001 A 
HETATM   23  C   UNK N   1      35.274  12.563  15.614  0.00  0.00     0.018 A 
HETATM   24  C   UNK N   1      36.056  14.108  13.662  0.00  0.00     0.261 A 
HETATM   25  O   UNK N   1      36.655  15.001  14.240  0.00  0.00    -0.267 OA
ENDBRANCH  14  15
ENDBRANCH   1  14
TORSDOF 6
ENDMDL
MODEL 6
REMARK VINA RESULT:      -6.6      5.857      7.624
REMARK  6 active torsions:
REMARK  status: ('A' for Active; 'I' for Inactive)
REMARK    1  A    between atoms: C_7  and  N_8 
REMARK    2  A    between atoms: N_8  and  C_9 
REMARK    3  A    between atoms: C_9  and  O_11 
REMARK    4  A    between atoms: O_11  and  C_12 
REMARK    5  A    between atoms: C_12  and  C_13 
REMARK    6  A    between atoms: C_13  and  N_14 
ROOT
HETATM    1  C   UNK N   1      34.263  15.753   9.602  0.00  0.00     0.198 C 
ENDROOT
BRANCH   1   2
HETATM    2  O   UNK N   1      35.528  15.504   9.121  0.00  0.00    -0.325 OA
BRANCH   2   3
HETATM    3  C   UNK N   1      35.795  14.455   8.306  0.00  0.00     0.214 C 
HETATM    4  S   UNK N   1      35.973  13.129   8.860  0.00  0.00    -0.033 SA
BRANCH   3   5
HETATM    5  N   UNK N   1      35.726  14.658   6.897  0.00  0.00    -0.328 N 
HETATM    6  H   UNK N   1      36.507  15.068   6.458  0.00  0.00     0.169 HD
BRANCH   5   7
HETATM    7  C   UNK N   1      34.619  14.317   6.081  0.00  0.00     0.034 A 
HETATM    8  C   UNK N   1      34.728  14.494   4.704  0.00  0.00     0.031 A 
HETATM    9  C   UNK N   1      33.653  14.197   3.868  0.00  0.00     0.020 A 
HETATM   10  C   UNK N   1      32.465  13.700   4.407  0.00  0.00     0.006 A 
HETATM   11  I   UNK N   1      30.860  13.269   3.120  0.00  0.00    -0.045 I 
HETATM   12  C   UNK N   1      32.351  13.499   5.789  0.00  0.00     0.020 A 
HETATM   13  C   UNK N   1      33.427  13.814   6.631  0.00  0.00     0.031 A 
ENDBRANCH   5   7
ENDBRANCH   3   5
ENDBRANCH   2   3
ENDBRANCH   1   2
BRANCH   1  14
HETATM   14  C   UNK N   1      33.809  17.158   9.256  0.00  0.00     0.162 C 
BRANCH  14  15
HETATM   15  N   UNK N   1      33.048  17.137   8.027  0.00  0.00    -0.278 N 
HETATM   16  C   UNK N   1      33.523  17.445   6.796  0.00  0.00     0.261 A 
HETATM   17  O   UNK N   1      34.675  17.768   6.559  0.00  0.00    -0.267 OA
HETATM   18  C   UNK N   1      32.447  17.333   5.818  0.00  0.00     0.048 A 
HETATM   19  C   UNK N   1      32.420  17.551   4.446  0.00  0.00     0.018 A 
HETATM   20  C   UNK N   1      31.325  16.947   6.518  0.00  0.00     0.048 A 
HETATM   21  C   UNK N   1      31.196  17.366   3.779  0.00  0.00     0.001 A 
HETATM   22  C   UNK N   1      30.041  16.972   4.496  0.00  0.00     0.001 A 
HETATM   23  C   UNK N   1      30.100  16.757   5.886  0.00  0.00     0.018 A 
HETATM   24  C   UNK N   1      31.735  16.826   7.919  0.00  0.00     0.261 A 
HETATM   25  O   UNK N   1      31.022  16.508   8.857  0.00  0.00    -0.267 OA
ENDBRANCH  14  15
ENDBRANCH   1  14
TORSDOF 6
ENDMDL
MODEL 7
REMARK VINA RESULT:      -6.6     18.077     21.512
REMARK  6 active torsions:
REMARK  status: ('A' for Active; 'I' for Inactive)
REMARK    1  A    between atoms: C_7  and  N_8 
REMARK    2  A    between atoms: N_8  and  C_9 
REMARK    3  A    between atoms: C_9  and  O_11 
REMARK    4  A    between atoms: O_11  and  C_12 
REMARK    5  A    between atoms: C_12  and  C_13 
REMARK    6  A    between atoms: C_13  and  N_14 
ROOT
HETATM    1  C   UNK N   1      28.860  25.110  -3.750  0.00  0.00     0.198 C 
ENDROOT
BRANCH   1   2
HETATM    2  O   UNK N   1      27.955  25.584  -4.671  0.00  0.00    -0.325 OA
BRANCH   2   3
HETATM    3  C   UNK N   1      26.672  25.870  -4.340  0.00  0.00     0.214 C 
HETATM    4  S   UNK N   1      26.380  26.958  -3.431  0.00  0.00    -0.033 SA
BRANCH   3   5
HETATM    5  N   UNK N   1      25.628  25.191  -5.032  0.00  0.00    -0.328 N 
HETATM    6  H   UNK N   1      24.726  25.220  -4.636  0.00  0.00     0.169 HD
BRANCH   5   7
HETATM    7  C   UNK N   1      25.789  24.476  -6.244  0.00  0.00     0.034 A 
HETATM    8  C   UNK N   1      25.890  23.087  -6.190  0.00  0.00     0.031 A 
HETATM    9  C   UNK N   1      26.077  22.348  -7.357  0.00  0.00     0.020 A 
HETATM   10  C   UNK N   1      26.144  22.996  -8.591  0.00  0.00     0.006 A 
HETATM   11  I   UNK N   1      26.434  21.854 -10.332  0.00  0.00    -0.045 I 
HETATM   12  C   UNK N   1      26.025  24.391  -8.660  0.00  0.00     0.020 A 
HETATM   13  C   UNK N   1      25.853  25.135  -7.484  0.00  0.00     0.031 A 
ENDBRANCH   5   7
ENDBRANCH   3   5
ENDBRANCH   2   3
ENDBRANCH   1   2
BRANCH   1  14
HETATM   14  C   UNK N   1      28.536  23.686  -3.340  0.00  0.00     0.162 C 
BRANCH  14  15
HETATM   15  N   UNK N   1      29.696  22.845  -3.536  0.00  0.00    -0.278 N 
HETATM   16  C   UNK N   1      30.665  22.608  -2.621  0.00  0.00     0.261 A 
HETATM   17  O   UNK N   1      30.678  23.067  -1.490  0.00  0.00    -0.267 OA
HETATM   18  C   UNK N   1      31.677  21.732  -3.200  0.00  0.00     0.048 A 
HETATM   19  C   UNK N   1      32.858  21.215  -2.681  0.00  0.00     0.018 A 
HETATM   20  C   UNK N   1      31.265  21.463  -4.487  0.00  0.00     0.048 A 
HETATM   21  C   UNK N   1      33.636  20.396  -3.519  0.00  0.00     0.001 A 
HETATM   22  C   UNK N   1      33.217  20.119  -4.842  0.00  0.00     0.001 A 
HETATM   23  C   UNK N   1      32.014  20.657  -5.339  0.00  0.00     0.018 A 
HETATM   24  C   UNK N   1      30.001  22.178  -4.673  0.00  0.00     0.261 A 
HETATM   25  O   UNK N   1      29.322  22.196  -5.687  0.00  0.00    -0.267 OA
ENDBRANCH  14  15
ENDBRANCH   1  14
TORSDOF 6
ENDMDL
MODEL 8
REMARK VINA RESULT:      -6.5     22.070     24.610
REMARK  6 active torsions:
REMARK  status: ('A' for Active; 'I' for Inactive)
REMARK    1  A    between atoms: C_7  and  N_8 
REMARK    2  A    between atoms: N_8  and  C_9 
REMARK    3  A    between atoms: C_9  and  O_11 
REMARK    4  A    between atoms: O_11  and  C_12 
REMARK    5  A    between atoms: C_12  and  C_13 
REMARK    6  A    between atoms: C_13  and  N_14 
ROOT
HETATM    1  C   UNK N   1      26.308  23.249 -11.039  0.00  0.00     0.198 C 
ENDROOT
BRANCH   1   2
HETATM    2  O   UNK N   1      25.316  24.145 -10.711  0.00  0.00    -0.325 OA
BRANCH   2   3
HETATM    3  C   UNK N   1      25.535  25.481 -10.681  0.00  0.00     0.214 C 
HETATM    4  S   UNK N   1      24.557  26.392 -11.239  0.00  0.00    -0.033 SA
BRANCH   3   5
HETATM    5  N   UNK N   1      26.654  25.968  -9.945  0.00  0.00    -0.328 N 
HETATM    6  H   UNK N   1      27.530  25.967 -10.395  0.00  0.00     0.169 HD
BRANCH   5   7
HETATM    7  C   UNK N   1      26.601  26.451  -8.613  0.00  0.00     0.034 A 
HETATM    8  C   UNK N   1      25.405  26.334  -7.909  0.00  0.00     0.031 A 
HETATM    9  C   UNK N   1      25.303  26.821  -6.608  0.00  0.00     0.020 A 
HETATM   10  C   UNK N   1      26.408  27.414  -5.995  0.00  0.00     0.006 A 
HETATM   11  I   UNK N   1      26.219  28.145  -4.033  0.00  0.00    -0.045 I 
HETATM   12  C   UNK N   1      27.622  27.519  -6.687  0.00  0.00     0.020 A 
HETATM   13  C   UNK N   1      27.720  27.043  -8.002  0.00  0.00     0.031 A 
ENDBRANCH   5   7
ENDBRANCH   3   5
ENDBRANCH   2   3
ENDBRANCH   1   2
BRANCH   1  14
HETATM   14  C   UNK N   1      26.357  22.096 -10.054  0.00  0.00     0.162 C 
BRANCH  14  15
HETATM   15  N   UNK N   1      26.553  22.606  -8.714  0.00  0.00    -0.278 N 
HETATM   16  C   UNK N   1      27.738  22.978  -8.174  0.00  0.00     0.261 A 
HETATM   17  O   UNK N   1      28.808  22.946  -8.761  0.00  0.00    -0.267 OA
HETATM   18  C   UNK N   1      27.530  23.410  -6.797  0.00  0.00     0.048 A 
HETATM   19  C   UNK N   1      28.416  23.866  -5.828  0.00  0.00     0.018 A 
HETATM   20  C   UNK N   1      26.181  23.281  -6.550  0.00  0.00     0.048 A 
HETATM   21  C   UNK N   1      27.890  24.197  -4.567  0.00  0.00     0.001 A 
HETATM   22  C   UNK N   1      26.506  24.063  -4.309  0.00  0.00     0.001 A 
HETATM   23  C   UNK N   1      25.632  23.599  -5.312  0.00  0.00     0.018 A 
HETATM   24  C   UNK N   1      25.583  22.772  -7.786  0.00  0.00     0.261 A 
HETATM   25  O   UNK N   1      24.402  22.519  -7.968  0.00  0.00    -0.267 OA
ENDBRANCH  14  15
ENDBRANCH   1  14
TORSDOF 6
ENDMDL
MODEL 9
REMARK VINA RESULT:      -6.5      8.740     12.883
REMARK  6 active torsions:
REMARK  status: ('A' for Active; 'I' for Inactive)
REMARK    1  A    between atoms: C_7  and  N_8 
REMARK    2  A    between atoms: N_8  and  C_9 
REMARK    3  A    between atoms: C_9  and  O_11 
REMARK    4  A    between atoms: O_11  and  C_12 
REMARK    5  A    between atoms: C_12  and  C_13 
REMARK    6  A    between atoms: C_13  and  N_14 
ROOT
HETATM    1  C   UNK N   1      28.174  18.392   4.431  0.00  0.00     0.198 C 
ENDROOT
BRANCH   1   2
HETATM    2  O   UNK N   1      27.776  19.195   5.475  0.00  0.00    -0.325 OA
BRANCH   2   3
HETATM    3  C   UNK N   1      26.944  20.249   5.295  0.00  0.00     0.214 C 
HETATM    4  S   UNK N   1      26.892  21.312   6.276  0.00  0.00    -0.033 SA
BRANCH   3   5
HETATM    5  N   UNK N   1      26.257  20.364   4.052  0.00  0.00    -0.328 N 
HETATM    6  H   UNK N   1      26.752  20.750   3.293  0.00  0.00     0.169 HD
BRANCH   5   7
HETATM    7  C   UNK N   1      24.916  19.966   3.825  0.00  0.00     0.034 A 
HETATM    8  C   UNK N   1      24.126  20.740   2.977  0.00  0.00     0.031 A 
HETATM    9  C   UNK N   1      22.794  20.399   2.750  0.00  0.00     0.020 A 
HETATM   10  C   UNK N   1      22.249  19.267   3.358  0.00  0.00     0.006 A 
HETATM   11  I   UNK N   1      20.234  18.785   2.999  0.00  0.00    -0.045 I 
HETATM   12  C   UNK N   1      23.039  18.471   4.197  0.00  0.00     0.020 A 
HETATM   13  C   UNK N   1      24.375  18.823   4.438  0.00  0.00     0.031 A 
ENDBRANCH   5   7
ENDBRANCH   3   5
ENDBRANCH   2   3
ENDBRANCH   1   2
BRANCH   1  14
HETATM   14  C   UNK N   1      28.608  17.024   4.922  0.00  0.00     0.162 C 
BRANCH  14  15
HETATM   15  N   UNK N   1      29.871  17.133   5.619  0.00  0.00    -0.278 N 
HETATM   16  C   UNK N   1      30.029  17.221   6.961  0.00  0.00     0.261 A 
HETATM   17  O   UNK N   1      29.115  17.205   7.770  0.00  0.00    -0.267 OA
HETATM   18  C   UNK N   1      31.448  17.343   7.276  0.00  0.00     0.048 A 
HETATM   19  C   UNK N   1      32.117  17.474   8.487  0.00  0.00     0.018 A 
HETATM   20  C   UNK N   1      32.116  17.321   6.071  0.00  0.00     0.048 A 
HETATM   21  C   UNK N   1      33.518  17.586   8.449  0.00  0.00     0.001 A 
HETATM   22  C   UNK N   1      34.207  17.566   7.214  0.00  0.00     0.001 A 
HETATM   23  C   UNK N   1      33.501  17.430   6.003  0.00  0.00     0.018 A 
HETATM   24  C   UNK N   1      31.090  17.182   5.035  0.00  0.00     0.261 A 
HETATM   25  O   UNK N   1      31.281  17.129   3.830  0.00  0.00    -0.267 OA
ENDBRANCH  14  15
ENDBRANCH   1  14
TORSDOF 6
ENDMDL
