MODEL 1
REMARK VINA RESULT:      -6.7      0.000      0.000
REMARK  7 active torsions:
REMARK  status: ('A' for Active; 'I' for Inactive)
REMARK    1  A    between atoms: O_1  and  C_2 
REMARK    2  A    between atoms: C_2  and  C_3 
REMARK    3  A    between atoms: C_3  and  C_4 
REMARK    4  A    between atoms: C_3  and  N_6 
REMARK       I    between atoms: C_7  and  N_6 
REMARK       I    between atoms: N_22  and  C_10 
REMARK    5  A    between atoms: C_15  and  C_16 
REMARK    6  A    between atoms: N_22  and  C_23 
REMARK    7  A    between atoms: C_24  and  C_23 
ROOT
HETATM    1  N   UNK N   1      27.040  17.230   7.060  0.00  0.00    -0.219 N 
HETATM    2  C   UNK N   1      26.290  16.121   6.611  0.00  0.00     0.694 A 
HETATM    3  N   UNK N   1      25.874  15.169   7.505  0.00  0.00    -0.021 N 
ATOM      4  HN  UNK N   1      26.032  15.303   8.504  1.00  0.00     0.203 HD
HETATM    5  C   UNK N   1      25.250  14.040   7.060  0.00  0.00     0.716 A 
HETATM    6  N   UNK N   1      25.082  13.886   5.729  0.00  0.00    -0.069 N 
HETATM    7  N   UNK N   1      24.536  12.868   5.085  0.00  0.00    -0.289 N 
ATOM      8  HN  UNK N   1      24.136  12.033   5.512  1.00  0.00     0.187 HD
HETATM    9  C   UNK N   1      24.607  13.133   3.754  0.00  0.00     0.119 A 
HETATM   10  C   UNK N   1      25.223  14.373   3.589  0.00  0.00     0.009 A 
HETATM   11  C   UNK N   1      25.493  14.804   4.863  0.00  0.00     0.168 A 
HETATM   12  N   UNK N   1      26.101  15.941   5.271  0.00  0.00    -0.173 N 
ATOM     13  HN  UNK N   1      26.409  16.642   4.597  1.00  0.00     0.186 HD
HETATM   14  N   UNK N   1      24.822  13.032   7.953  0.00  0.00    -0.220 N 
HETATM   15  H   UNK N   1      26.631  18.125   7.090  0.00  0.00     0.178 HD
HETATM   16  H   UNK N   1      24.488  12.183   7.582  0.00  0.00     0.178 HD
ENDROOT
BRANCH  14  17
HETATM   17  C   UNK N   1      24.858  13.196   9.386  0.00  0.00     0.176 C 
BRANCH  17  18
HETATM   18  C   UNK N   1      23.513  12.915   9.990  0.00  0.00    -0.040 A 
HETATM   19  C   UNK N   1      23.380  12.129  11.148  0.00  0.00     0.009 A 
HETATM   20  C   UNK N   1      22.119  11.894  11.702  0.00  0.00     0.001 A 
HETATM   21  C   UNK N   1      20.983  12.446  11.106  0.00  0.00     0.000 A 
HETATM   22  C   UNK N   1      21.107  13.229   9.956  0.00  0.00     0.001 A 
HETATM   23  C   UNK N   1      22.370  13.463   9.399  0.00  0.00     0.009 A 
ENDBRANCH  17  18
ENDBRANCH  14  17
BRANCH   1  24
HETATM   24  C   UNK N   1      28.411  17.041   7.476  0.00  0.00     0.122 C 
BRANCH  24  25
HETATM   25  C   UNK N   1      28.594  17.542   8.901  0.00  0.00     0.189 C 
BRANCH  25  26
HETATM   26  O   UNK N   1      27.414  18.136   9.356  0.00  0.00    -0.399 OA
HETATM   27  H   UNK N   1      26.763  18.716   8.932  0.00  0.00     0.209 HD
ENDBRANCH  25  26
ENDBRANCH  24  25
BRANCH  24  28
HETATM   28  C   UNK N   1      29.359  17.772   6.514  0.00  0.00     0.023 C 
HETATM   29  C   UNK N   1      30.458  16.864   5.978  0.00  0.00     0.007 C 
ENDBRANCH  24  28
ENDBRANCH   1  24
BRANCH  10  30
HETATM   30  C   UNK N   1      25.539  15.044   2.292  0.00  0.00     0.016 C 
HETATM   31  C   UNK N   1      24.623  14.529   1.195  0.00  0.00     0.015 C 
HETATM   32  C   UNK N   1      26.985  14.814   1.902  0.00  0.00     0.015 C 
ENDBRANCH  10  30
TORSDOF 7
ENDMDL
MODEL 2
REMARK VINA RESULT:      -6.7      4.879      8.402
REMARK  7 active torsions:
REMARK  status: ('A' for Active; 'I' for Inactive)
REMARK    1  A    between atoms: O_1  and  C_2 
REMARK    2  A    between atoms: C_2  and  C_3 
REMARK    3  A    between atoms: C_3  and  C_4 
REMARK    4  A    between atoms: C_3  and  N_6 
REMARK       I    between atoms: C_7  and  N_6 
REMARK       I    between atoms: N_22  and  C_10 
REMARK    5  A    between atoms: C_15  and  C_16 
REMARK    6  A    between atoms: N_22  and  C_23 
REMARK    7  A    between atoms: C_24  and  C_23 
ROOT
HETATM    1  N   UNK N   1      21.521  19.770   3.492  0.00  0.00    -0.219 N 
HETATM    2  C   UNK N   1      22.025  18.733   4.306  0.00  0.00     0.694 A 
HETATM    3  N   UNK N   1      23.183  18.088   3.953  0.00  0.00    -0.021 N 
ATOM      4  HN  UNK N   1      23.726  18.414   3.153  1.00  0.00     0.203 HD
HETATM    5  C   UNK N   1      23.611  17.011   4.673  0.00  0.00     0.716 A 
HETATM    6  N   UNK N   1      22.853  16.595   5.710  0.00  0.00    -0.069 N 
HETATM    7  N   UNK N   1      23.062  15.565   6.515  0.00  0.00    -0.289 N 
ATOM      8  HN  UNK N   1      23.856  14.927   6.480  1.00  0.00     0.187 HD
HETATM    9  C   UNK N   1      22.027  15.511   7.394  0.00  0.00     0.119 A 
HETATM   10  C   UNK N   1      21.155  16.560   7.106  0.00  0.00     0.009 A 
HETATM   11  C   UNK N   1      21.728  17.213   6.045  0.00  0.00     0.168 A 
HETATM   12  N   UNK N   1      21.283  18.293   5.363  0.00  0.00    -0.173 N 
ATOM     13  HN  UNK N   1      20.419  18.763   5.631  1.00  0.00     0.186 HD
HETATM   14  N   UNK N   1      24.791  16.314   4.329  0.00  0.00    -0.220 N 
HETATM   15  H   UNK N   1      21.567  20.705   3.796  0.00  0.00     0.178 HD
HETATM   16  H   UNK N   1      24.998  15.474   4.798  0.00  0.00     0.178 HD
ENDROOT
BRANCH  14  17
HETATM   17  C   UNK N   1      25.705  16.786   3.317  0.00  0.00     0.176 C 
BRANCH  17  18
HETATM   18  C   UNK N   1      26.579  17.882   3.853  0.00  0.00    -0.040 A 
HETATM   19  C   UNK N   1      27.678  17.604   4.684  0.00  0.00     0.009 A 
HETATM   20  C   UNK N   1      28.486  18.641   5.158  0.00  0.00     0.001 A 
HETATM   21  C   UNK N   1      28.204  19.962   4.802  0.00  0.00     0.000 A 
HETATM   22  C   UNK N   1      27.114  20.246   3.975  0.00  0.00     0.001 A 
HETATM   23  C   UNK N   1      26.303  19.208   3.502  0.00  0.00     0.009 A 
ENDBRANCH  17  18
ENDBRANCH  14  17
BRANCH   1  24
HETATM   24  C   UNK N   1      20.937  19.450   2.209  0.00  0.00     0.122 C 
BRANCH  24  25
HETATM   25  C   UNK N   1      20.613  20.730   1.453  0.00  0.00     0.189 C 
BRANCH  25  26
HETATM   26  O   UNK N   1      20.611  20.488   0.076  0.00  0.00    -0.399 OA
HETATM   27  H   UNK N   1      21.161  20.817  -0.651  0.00  0.00     0.209 HD
ENDBRANCH  25  26
ENDBRANCH  24  25
BRANCH  24  28
HETATM   28  C   UNK N   1      19.677  18.596   2.402  0.00  0.00     0.023 C 
HETATM   29  C   UNK N   1      19.791  17.229   1.738  0.00  0.00     0.007 C 
ENDBRANCH  24  28
ENDBRANCH   1  24
BRANCH  10  30
HETATM   30  C   UNK N   1      19.866  16.862   7.800  0.00  0.00     0.016 C 
HETATM   31  C   UNK N   1      19.957  18.191   8.528  0.00  0.00     0.015 C 
HETATM   32  C   UNK N   1      19.512  15.763   8.782  0.00  0.00     0.015 C 
ENDBRANCH  10  30
TORSDOF 7
ENDMDL
MODEL 3
REMARK VINA RESULT:      -6.6      3.509      4.111
REMARK  7 active torsions:
REMARK  status: ('A' for Active; 'I' for Inactive)
REMARK    1  A    between atoms: O_1  and  C_2 
REMARK    2  A    between atoms: C_2  and  C_3 
REMARK    3  A    between atoms: C_3  and  C_4 
REMARK    4  A    between atoms: C_3  and  N_6 
REMARK       I    between atoms: C_7  and  N_6 
REMARK       I    between atoms: N_22  and  C_10 
REMARK    5  A    between atoms: C_15  and  C_16 
REMARK    6  A    between atoms: N_22  and  C_23 
REMARK    7  A    between atoms: C_24  and  C_23 
ROOT
HETATM    1  N   UNK N   1      24.804  19.019   5.200  0.00  0.00    -0.219 N 
HETATM    2  C   UNK N   1      23.922  17.928   5.044  0.00  0.00     0.694 A 
HETATM    3  N   UNK N   1      24.162  16.753   5.709  0.00  0.00    -0.021 N 
ATOM      4  HN  UNK N   1      24.927  16.695   6.382  1.00  0.00     0.203 HD
HETATM    5  C   UNK N   1      23.379  15.662   5.470  0.00  0.00     0.716 A 
HETATM    6  N   UNK N   1      22.393  15.771   4.555  0.00  0.00    -0.069 N 
HETATM    7  N   UNK N   1      21.544  14.840   4.151  0.00  0.00    -0.289 N 
ATOM      8  HN  UNK N   1      21.497  13.881   4.494  1.00  0.00     0.187 HD
HETATM    9  C   UNK N   1      20.748  15.391   3.197  0.00  0.00     0.119 A 
HETATM   10  C   UNK N   1      21.135  16.719   3.020  0.00  0.00     0.009 A 
HETATM   11  C   UNK N   1      22.167  16.906   3.905  0.00  0.00     0.168 A 
HETATM   12  N   UNK N   1      22.914  18.011   4.127  0.00  0.00    -0.173 N 
ATOM     13  HN  UNK N   1      22.729  18.879   3.625  1.00  0.00     0.186 HD
HETATM   14  N   UNK N   1      23.607  14.431   6.127  0.00  0.00    -0.220 N 
HETATM   15  H   UNK N   1      24.525  19.812   5.714  0.00  0.00     0.178 HD
HETATM   16  H   UNK N   1      23.099  13.640   5.838  0.00  0.00     0.178 HD
ENDROOT
BRANCH  14  17
HETATM   17  C   UNK N   1      24.557  14.289   7.204  0.00  0.00     0.176 C 
BRANCH  17  18
HETATM   18  C   UNK N   1      23.969  13.501   8.337  0.00  0.00    -0.040 A 
HETATM   19  C   UNK N   1      22.602  13.177   8.373  0.00  0.00     0.009 A 
HETATM   20  C   UNK N   1      22.080  12.428   9.430  0.00  0.00     0.001 A 
HETATM   21  C   UNK N   1      22.921  11.994  10.458  0.00  0.00     0.000 A 
HETATM   22  C   UNK N   1      24.282  12.311  10.428  0.00  0.00     0.001 A 
HETATM   23  C   UNK N   1      24.805  13.063   9.371  0.00  0.00     0.009 A 
ENDBRANCH  17  18
ENDBRANCH  14  17
BRANCH   1  24
HETATM   24  C   UNK N   1      26.119  18.965   4.603  0.00  0.00     0.122 C 
BRANCH  24  25
HETATM   25  C   UNK N   1      27.176  18.813   5.688  0.00  0.00     0.189 C 
BRANCH  25  26
HETATM   26  O   UNK N   1      27.033  17.579   6.327  0.00  0.00    -0.399 OA
HETATM   27  H   UNK N   1      26.351  16.891   6.286  0.00  0.00     0.209 HD
ENDBRANCH  25  26
ENDBRANCH  24  25
BRANCH  24  28
HETATM   28  C   UNK N   1      26.371  20.228   3.768  0.00  0.00     0.023 C 
HETATM   29  C   UNK N   1      25.280  20.468   2.732  0.00  0.00     0.007 C 
ENDBRANCH  24  28
ENDBRANCH   1  24
BRANCH  10  30
HETATM   30  C   UNK N   1      20.555  17.693   2.047  0.00  0.00     0.016 C 
HETATM   31  C   UNK N   1      19.502  18.552   2.724  0.00  0.00     0.015 C 
HETATM   32  C   UNK N   1      19.943  16.972   0.862  0.00  0.00     0.015 C 
ENDBRANCH  10  30
TORSDOF 7
ENDMDL
MODEL 4
REMARK VINA RESULT:      -6.6     10.243     13.896
REMARK  7 active torsions:
REMARK  status: ('A' for Active; 'I' for Inactive)
REMARK    1  A    between atoms: O_1  and  C_2 
REMARK    2  A    between atoms: C_2  and  C_3 
REMARK    3  A    between atoms: C_3  and  C_4 
REMARK    4  A    between atoms: C_3  and  N_6 
REMARK       I    between atoms: C_7  and  N_6 
REMARK       I    between atoms: N_22  and  C_10 
REMARK    5  A    between atoms: C_15  and  C_16 
REMARK    6  A    between atoms: N_22  and  C_23 
REMARK    7  A    between atoms: C_24  and  C_23 
ROOT
HETATM    1  N   UNK N   1      33.779  10.589  12.522  0.00  0.00    -0.219 N 
HETATM    2  C   UNK N   1      34.582  11.651  12.991  0.00  0.00     0.694 A 
HETATM    3  N   UNK N   1      35.447  12.284  12.137  0.00  0.00    -0.021 N 
ATOM      4  HN  UNK N   1      35.450  12.046  11.144  1.00  0.00     0.203 HD
HETATM    5  C   UNK N   1      36.306  13.231  12.613  0.00  0.00     0.716 A 
HETATM    6  N   UNK N   1      36.290  13.501  13.936  0.00  0.00    -0.069 N 
HETATM    7  N   UNK N   1      37.049  14.351  14.608  0.00  0.00    -0.289 N 
ATOM      8  HN  UNK N   1      37.766  14.957  14.211  1.00  0.00     0.187 HD
HETATM    9  C   UNK N   1      36.702  14.270  15.919  0.00  0.00     0.119 A 
HETATM   10  C   UNK N   1      35.682  13.326  16.042  0.00  0.00     0.009 A 
HETATM   11  C   UNK N   1      35.458  12.882  14.764  0.00  0.00     0.168 A 
HETATM   12  N   UNK N   1      34.584  11.948  14.323  0.00  0.00    -0.173 N 
ATOM     13  HN  UNK N   1      33.946  11.482  14.968  1.00  0.00     0.186 HD
HETATM   14  N   UNK N   1      37.222  13.892  11.763  0.00  0.00    -0.220 N 
HETATM   15  H   UNK N   1      32.810  10.715  12.402  0.00  0.00     0.178 HD
HETATM   16  H   UNK N   1      37.902  14.478  12.166  0.00  0.00     0.178 HD
ENDROOT
BRANCH  14  17
HETATM   17  C   UNK N   1      37.198  13.742  10.329  0.00  0.00     0.176 C 
BRANCH  17  18
HETATM   18  C   UNK N   1      36.260  14.731   9.701  0.00  0.00    -0.040 A 
HETATM   19  C   UNK N   1      35.728  14.524   8.417  0.00  0.00     0.009 A 
HETATM   20  C   UNK N   1      34.844  15.451   7.860  0.00  0.00     0.001 A 
HETATM   21  C   UNK N   1      34.481  16.589   8.584  0.00  0.00     0.000 A 
HETATM   22  C   UNK N   1      35.004  16.801   9.862  0.00  0.00     0.001 A 
HETATM   23  C   UNK N   1      35.892  15.874  10.420  0.00  0.00     0.009 A 
ENDBRANCH  17  18
ENDBRANCH  14  17
BRANCH   1  24
HETATM   24  C   UNK N   1      34.390   9.315  12.218  0.00  0.00     0.122 C 
BRANCH  24  25
HETATM   25  C   UNK N   1      35.876   9.360  12.546  0.00  0.00     0.189 C 
BRANCH  25  26
HETATM   26  O   UNK N   1      36.624   9.456  11.369  0.00  0.00    -0.399 OA
HETATM   27  H   UNK N   1      37.063  10.199  10.927  0.00  0.00     0.209 HD
ENDBRANCH  25  26
ENDBRANCH  24  25
BRANCH  24  28
HETATM   28  C   UNK N   1      34.168   8.963  10.740  0.00  0.00     0.023 C 
HETATM   29  C   UNK N   1      32.828   9.467  10.217  0.00  0.00     0.007 C 
ENDBRANCH  24  28
ENDBRANCH   1  24
BRANCH  10  30
HETATM   30  C   UNK N   1      35.021  12.891  17.310  0.00  0.00     0.016 C 
HETATM   31  C   UNK N   1      35.245  13.921  18.402  0.00  0.00     0.015 C 
HETATM   32  C   UNK N   1      35.551  11.544  17.760  0.00  0.00     0.015 C 
ENDBRANCH  10  30
TORSDOF 7
ENDMDL
MODEL 5
REMARK VINA RESULT:      -6.5     14.393     16.590
REMARK  7 active torsions:
REMARK  status: ('A' for Active; 'I' for Inactive)
REMARK    1  A    between atoms: O_1  and  C_2 
REMARK    2  A    between atoms: C_2  and  C_3 
REMARK    3  A    between atoms: C_3  and  C_4 
REMARK    4  A    between atoms: C_3  and  N_6 
REMARK       I    between atoms: C_7  and  N_6 
REMARK       I    between atoms: N_22  and  C_10 
REMARK    5  A    between atoms: C_15  and  C_16 
REMARK    6  A    between atoms: N_22  and  C_23 
REMARK    7  A    between atoms: C_24  and  C_23 
ROOT
HETATM    1  N   UNK N   1      30.226  22.855  -4.811  0.00  0.00    -0.219 N 
HETATM    2  C   UNK N   1      28.987  23.177  -5.406  0.00  0.00     0.694 A 
HETATM    3  N   UNK N   1      28.145  24.069  -4.793  0.00  0.00    -0.021 N 
ATOM      4  HN  UNK N   1      28.448  24.565  -3.954  1.00  0.00     0.203 HD
HETATM    5  C   UNK N   1      26.899  24.293  -5.304  0.00  0.00     0.716 A 
HETATM    6  N   UNK N   1      26.524  23.600  -6.400  0.00  0.00    -0.069 N 
HETATM    7  N   UNK N   1      25.365  23.640  -7.036  0.00  0.00    -0.289 N 
ATOM      8  HN  UNK N   1      24.568  24.228  -6.796  1.00  0.00     0.187 HD
HETATM    9  C   UNK N   1      25.428  22.754  -8.066  0.00  0.00     0.119 A 
HETATM   10  C   UNK N   1      26.687  22.155  -8.049  0.00  0.00     0.009 A 
HETATM   11  C   UNK N   1      27.337  22.731  -6.987  0.00  0.00     0.168 A 
HETATM   12  N   UNK N   1      28.582  22.494  -6.516  0.00  0.00    -0.173 N 
ATOM     13  HN  UNK N   1      29.200  21.827  -6.978  1.00  0.00     0.186 HD
HETATM   14  N   UNK N   1      26.001  25.195  -4.689  0.00  0.00    -0.220 N 
HETATM   15  H   UNK N   1      31.065  23.184  -5.207  0.00  0.00     0.178 HD
HETATM   16  H   UNK N   1      25.074  25.236  -5.019  0.00  0.00     0.178 HD
ENDROOT
BRANCH  14  17
HETATM   17  C   UNK N   1      26.388  26.055  -3.598  0.00  0.00     0.176 C 
BRANCH  17  18
HETATM   18  C   UNK N   1      26.684  27.443  -4.088  0.00  0.00    -0.040 A 
HETATM   19  C   UNK N   1      27.310  27.664  -5.327  0.00  0.00     0.009 A 
HETATM   20  C   UNK N   1      27.562  28.965  -5.770  0.00  0.00     0.001 A 
HETATM   21  C   UNK N   1      27.184  30.054  -4.981  0.00  0.00     0.000 A 
HETATM   22  C   UNK N   1      26.559  29.842  -3.749  0.00  0.00     0.001 A 
HETATM   23  C   UNK N   1      26.310  28.539  -3.304  0.00  0.00     0.009 A 
ENDBRANCH  17  18
ENDBRANCH  14  17
BRANCH   1  24
HETATM   24  C   UNK N   1      30.254  22.041  -3.617  0.00  0.00     0.122 C 
BRANCH  24  25
HETATM   25  C   UNK N   1      31.151  22.687  -2.570  0.00  0.00     0.189 C 
BRANCH  25  26
HETATM   26  O   UNK N   1      30.405  23.016  -1.435  0.00  0.00    -0.399 OA
HETATM   27  H   UNK N   1      29.508  22.785  -1.148  0.00  0.00     0.209 HD
ENDBRANCH  25  26
ENDBRANCH  24  25
BRANCH  24  28
HETATM   28  C   UNK N   1      30.742  20.626  -3.956  0.00  0.00     0.023 C 
HETATM   29  C   UNK N   1      31.538  20.580  -5.253  0.00  0.00     0.007 C 
ENDBRANCH  24  28
ENDBRANCH   1  24
BRANCH  10  30
HETATM   30  C   UNK N   1      27.179  21.094  -8.980  0.00  0.00     0.016 C 
HETATM   31  C   UNK N   1      28.077  20.119  -8.240  0.00  0.00     0.015 C 
HETATM   32  C   UNK N   1      27.935  21.706 -10.143  0.00  0.00     0.015 C 
ENDBRANCH  10  30
TORSDOF 7
ENDMDL
MODEL 6
REMARK VINA RESULT:      -6.5      6.614     10.264
REMARK  7 active torsions:
REMARK  status: ('A' for Active; 'I' for Inactive)
REMARK    1  A    between atoms: O_1  and  C_2 
REMARK    2  A    between atoms: C_2  and  C_3 
REMARK    3  A    between atoms: C_3  and  C_4 
REMARK    4  A    between atoms: C_3  and  N_6 
REMARK       I    between atoms: C_7  and  N_6 
REMARK       I    between atoms: N_22  and  C_10 
REMARK    5  A    between atoms: C_15  and  C_16 
REMARK    6  A    between atoms: N_22  and  C_23 
REMARK    7  A    between atoms: C_24  and  C_23 
ROOT
HETATM    1  N   UNK N   1      32.861  12.348   8.108  0.00  0.00    -0.219 N 
HETATM    2  C   UNK N   1      33.243  13.517   8.801  0.00  0.00     0.694 A 
HETATM    3  N   UNK N   1      32.919  14.750   8.296  0.00  0.00    -0.021 N 
ATOM      4  HN  UNK N   1      32.328  14.822   7.467  1.00  0.00     0.203 HD
HETATM    5  C   UNK N   1      33.386  15.880   8.902  0.00  0.00     0.716 A 
HETATM    6  N   UNK N   1      34.184  15.742   9.981  0.00  0.00    -0.069 N 
HETATM    7  N   UNK N   1      34.766  16.692  10.696  0.00  0.00    -0.289 N 
ATOM      8  HN  UNK N   1      34.680  17.696  10.542  1.00  0.00     0.187 HD
HETATM    9  C   UNK N   1      35.498  16.089  11.669  0.00  0.00     0.119 A 
HETATM   10  C   UNK N   1      35.348  14.709  11.535  0.00  0.00     0.009 A 
HETATM   11  C   UNK N   1      34.505  14.549  10.464  0.00  0.00     0.168 A 
HETATM   12  N   UNK N   1      34.048  13.409   9.898  0.00  0.00    -0.173 N 
ATOM     13  HN  UNK N   1      34.298  12.497  10.280  1.00  0.00     0.186 HD
HETATM   14  N   UNK N   1      33.083  17.165   8.399  0.00  0.00    -0.220 N 
HETATM   15  H   UNK N   1      32.145  11.773   8.463  0.00  0.00     0.178 HD
HETATM   16  H   UNK N   1      33.537  17.945   8.792  0.00  0.00     0.178 HD
ENDROOT
BRANCH  14  17
HETATM   17  C   UNK N   1      32.136  17.380   7.332  0.00  0.00     0.176 C 
BRANCH  17  18
HETATM   18  C   UNK N   1      30.758  17.617   7.879  0.00  0.00    -0.040 A 
HETATM   19  C   UNK N   1      30.554  18.356   9.056  0.00  0.00     0.009 A 
HETATM   20  C   UNK N   1      29.261  18.577   9.537  0.00  0.00     0.001 A 
HETATM   21  C   UNK N   1      28.162  18.065   8.843  0.00  0.00     0.000 A 
HETATM   22  C   UNK N   1      28.358  17.330   7.670  0.00  0.00     0.001 A 
HETATM   23  C   UNK N   1      29.653  17.106   7.190  0.00  0.00     0.009 A 
ENDBRANCH  17  18
ENDBRANCH  14  17
BRANCH   1  24
HETATM   24  C   UNK N   1      33.526  12.003   6.872  0.00  0.00     0.122 C 
BRANCH  24  25
HETATM   25  C   UNK N   1      32.573  12.188   5.700  0.00  0.00     0.189 C 
BRANCH  25  26
HETATM   26  O   UNK N   1      31.664  13.212   5.978  0.00  0.00    -0.399 OA
HETATM   27  H   UNK N   1      31.723  14.016   6.518  0.00  0.00     0.209 HD
ENDBRANCH  25  26
ENDBRANCH  24  25
BRANCH  24  28
HETATM   28  C   UNK N   1      34.038  10.557   6.936  0.00  0.00     0.023 C 
HETATM   29  C   UNK N   1      34.864  10.287   8.187  0.00  0.00     0.007 C 
ENDBRANCH  24  28
ENDBRANCH   1  24
BRANCH  10  30
HETATM   30  C   UNK N   1      36.002  13.657  12.371  0.00  0.00     0.016 C 
HETATM   31  C   UNK N   1      36.378  14.222  13.729  0.00  0.00     0.015 C 
HETATM   32  C   UNK N   1      37.238  13.112  11.683  0.00  0.00     0.015 C 
ENDBRANCH  10  30
TORSDOF 7
ENDMDL
MODEL 7
REMARK VINA RESULT:      -6.5      3.933      5.559
REMARK  7 active torsions:
REMARK  status: ('A' for Active; 'I' for Inactive)
REMARK    1  A    between atoms: O_1  and  C_2 
REMARK    2  A    between atoms: C_2  and  C_3 
REMARK    3  A    between atoms: C_3  and  C_4 
REMARK    4  A    between atoms: C_3  and  N_6 
REMARK       I    between atoms: C_7  and  N_6 
REMARK       I    between atoms: N_22  and  C_10 
REMARK    5  A    between atoms: C_15  and  C_16 
REMARK    6  A    between atoms: N_22  and  C_23 
REMARK    7  A    between atoms: C_24  and  C_23 
ROOT
HETATM    1  N   UNK N   1      21.701  16.666   3.453  0.00  0.00    -0.219 N 
HETATM    2  C   UNK N   1      22.895  16.509   4.190  0.00  0.00     0.694 A 
HETATM    3  N   UNK N   1      22.949  15.604   5.220  0.00  0.00    -0.021 N 
ATOM      4  HN  UNK N   1      22.158  14.985   5.398  1.00  0.00     0.203 HD
HETATM    5  C   UNK N   1      24.061  15.533   6.007  0.00  0.00     0.716 A 
HETATM    6  N   UNK N   1      25.077  16.385   5.756  0.00  0.00    -0.069 N 
HETATM    7  N   UNK N   1      26.223  16.507   6.406  0.00  0.00    -0.289 N 
ATOM      8  HN  UNK N   1      26.523  15.948   7.205  1.00  0.00     0.187 HD
HETATM    9  C   UNK N   1      26.927  17.511   5.821  0.00  0.00     0.119 A 
HETATM   10  C   UNK N   1      26.169  18.016   4.765  0.00  0.00     0.009 A 
HETATM   11  C   UNK N   1      25.021  17.266   4.765  0.00  0.00     0.168 A 
HETATM   12  N   UNK N   1      23.940  17.354   3.957  0.00  0.00    -0.173 N 
ATOM     13  HN  UNK N   1      23.909  18.032   3.195  1.00  0.00     0.186 HD
HETATM   14  N   UNK N   1      24.145  14.623   7.085  0.00  0.00    -0.220 N 
HETATM   15  H   UNK N   1      21.644  16.335   2.527  0.00  0.00     0.178 HD
HETATM   16  H   UNK N   1      24.911  14.687   7.700  0.00  0.00     0.178 HD
ENDROOT
BRANCH  14  17
HETATM   17  C   UNK N   1      23.151  13.604   7.322  0.00  0.00     0.176 C 
BRANCH  17  18
HETATM   18  C   UNK N   1      23.243  13.081   8.726  0.00  0.00    -0.040 A 
HETATM   19  C   UNK N   1      22.094  12.871   9.507  0.00  0.00     0.009 A 
HETATM   20  C   UNK N   1      22.204  12.368  10.806  0.00  0.00     0.001 A 
HETATM   21  C   UNK N   1      23.463  12.067  11.332  0.00  0.00     0.000 A 
HETATM   22  C   UNK N   1      24.610  12.271  10.560  0.00  0.00     0.001 A 
HETATM   23  C   UNK N   1      24.500  12.778   9.260  0.00  0.00     0.009 A 
ENDBRANCH  17  18
ENDBRANCH  14  17
BRANCH   1  24
HETATM   24  C   UNK N   1      20.565  17.315   4.066  0.00  0.00     0.122 C 
BRANCH  24  25
HETATM   25  C   UNK N   1      19.457  16.301   4.309  0.00  0.00     0.189 C 
BRANCH  25  26
HETATM   26  O   UNK N   1      19.306  15.477   3.191  0.00  0.00    -0.399 OA
HETATM   27  H   UNK N   1      19.943  15.029   2.612  0.00  0.00     0.209 HD
ENDBRANCH  25  26
ENDBRANCH  24  25
BRANCH  24  28
HETATM   28  C   UNK N   1      20.069  18.461   3.173  0.00  0.00     0.023 C 
HETATM   29  C   UNK N   1      20.850  19.751   3.393  0.00  0.00     0.007 C 
ENDBRANCH  24  28
ENDBRANCH   1  24
BRANCH  10  30
HETATM   30  C   UNK N   1      26.540  19.152   3.867  0.00  0.00     0.016 C 
HETATM   31  C   UNK N   1      27.877  19.739   4.283  0.00  0.00     0.015 C 
HETATM   32  C   UNK N   1      25.476  20.231   3.894  0.00  0.00     0.015 C 
ENDBRANCH  10  30
TORSDOF 7
ENDMDL
MODEL 8
REMARK VINA RESULT:      -6.4      4.034      7.717
REMARK  7 active torsions:
REMARK  status: ('A' for Active; 'I' for Inactive)
REMARK    1  A    between atoms: O_1  and  C_2 
REMARK    2  A    between atoms: C_2  and  C_3 
REMARK    3  A    between atoms: C_3  and  C_4 
REMARK    4  A    between atoms: C_3  and  N_6 
REMARK       I    between atoms: C_7  and  N_6 
REMARK       I    between atoms: N_22  and  C_10 
REMARK    5  A    between atoms: C_15  and  C_16 
REMARK    6  A    between atoms: N_22  and  C_23 
REMARK    7  A    between atoms: C_24  and  C_23 
ROOT
HETATM    1  N   UNK N   1      21.340  18.504   4.798  0.00  0.00    -0.219 N 
HETATM    2  C   UNK N   1      22.295  17.599   5.309  0.00  0.00     0.694 A 
HETATM    3  N   UNK N   1      23.591  17.649   4.866  0.00  0.00    -0.021 N 
ATOM      4  HN  UNK N   1      23.886  18.393   4.232  1.00  0.00     0.203 HD
HETATM    5  C   UNK N   1      24.488  16.703   5.270  0.00  0.00     0.716 A 
HETATM    6  N   UNK N   1      24.055  15.721   6.088  0.00  0.00    -0.069 N 
HETATM    7  N   UNK N   1      24.739  14.698   6.573  0.00  0.00    -0.289 N 
ATOM      8  HN  UNK N   1      25.726  14.504   6.408  1.00  0.00     0.187 HD
HETATM    9  C   UNK N   1      23.890  13.951   7.326  0.00  0.00     0.119 A 
HETATM   10  C   UNK N   1      22.633  14.555   7.295  0.00  0.00     0.009 A 
HETATM   11  C   UNK N   1      22.797  15.668   6.510  0.00  0.00     0.168 A 
HETATM   12  N   UNK N   1      21.886  16.597   6.141  0.00  0.00    -0.173 N 
ATOM     13  HN  UNK N   1      20.924  16.549   6.475  1.00  0.00     0.186 HD
HETATM   14  N   UNK N   1      25.828  16.716   4.820  0.00  0.00    -0.220 N 
HETATM   15  H   UNK N   1      20.999  19.236   5.362  0.00  0.00     0.178 HD
HETATM   16  H   UNK N   1      26.407  15.951   5.039  0.00  0.00     0.178 HD
ENDROOT
BRANCH  14  17
HETATM   17  C   UNK N   1      26.380  17.806   4.053  0.00  0.00     0.176 C 
BRANCH  17  18
HETATM   18  C   UNK N   1      26.790  18.938   4.949  0.00  0.00    -0.040 A 
HETATM   19  C   UNK N   1      27.524  18.713   6.126  0.00  0.00     0.009 A 
HETATM   20  C   UNK N   1      27.907  19.785   6.936  0.00  0.00     0.001 A 
HETATM   21  C   UNK N   1      27.565  21.089   6.573  0.00  0.00     0.000 A 
HETATM   22  C   UNK N   1      26.836  21.321   5.403  0.00  0.00     0.001 A 
HETATM   23  C   UNK N   1      26.449  20.248   4.593  0.00  0.00     0.009 A 
ENDBRANCH  17  18
ENDBRANCH  14  17
BRANCH   1  24
HETATM   24  C   UNK N   1      20.867  18.351   3.441  0.00  0.00     0.122 C 
BRANCH  24  25
HETATM   25  C   UNK N   1      20.352  19.684   2.917  0.00  0.00     0.189 C 
BRANCH  25  26
HETATM   26  O   UNK N   1      20.365  20.638   3.939  0.00  0.00    -0.399 OA
HETATM   27  H   UNK N   1      20.468  20.571   4.901  0.00  0.00     0.209 HD
ENDBRANCH  25  26
ENDBRANCH  24  25
BRANCH  24  28
HETATM   28  C   UNK N   1      19.768  17.281   3.383  0.00  0.00     0.023 C 
HETATM   29  C   UNK N   1      20.180  16.066   2.562  0.00  0.00     0.007 C 
ENDBRANCH  24  28
ENDBRANCH   1  24
BRANCH  10  30
HETATM   30  C   UNK N   1      21.390  14.057   7.957  0.00  0.00     0.016 C 
HETATM   31  C   UNK N   1      21.447  14.317   9.452  0.00  0.00     0.015 C 
HETATM   32  C   UNK N   1      21.200  12.575   7.702  0.00  0.00     0.015 C 
ENDBRANCH  10  30
TORSDOF 7
ENDMDL
MODEL 9
REMARK VINA RESULT:      -6.4      3.158      7.554
REMARK  7 active torsions:
REMARK  status: ('A' for Active; 'I' for Inactive)
REMARK    1  A    between atoms: O_1  and  C_2 
REMARK    2  A    between atoms: C_2  and  C_3 
REMARK    3  A    between atoms: C_3  and  C_4 
REMARK    4  A    between atoms: C_3  and  N_6 
REMARK       I    between atoms: C_7  and  N_6 
REMARK       I    between atoms: N_22  and  C_10 
REMARK    5  A    between atoms: C_15  and  C_16 
REMARK    6  A    between atoms: N_22  and  C_23 
REMARK    7  A    between atoms: C_24  and  C_23 
ROOT
HETATM    1  N   UNK N   1      27.552  19.409   7.123  0.00  0.00    -0.219 N 
HETATM    2  C   UNK N   1      27.841  18.127   6.607  0.00  0.00     0.694 A 
HETATM    3  N   UNK N   1      28.978  17.929   5.866  0.00  0.00    -0.021 N 
ATOM      4  HN  UNK N   1      29.657  18.683   5.761  1.00  0.00     0.203 HD
HETATM    5  C   UNK N   1      29.202  16.723   5.269  0.00  0.00     0.716 A 
HETATM    6  N   UNK N   1      28.269  15.757   5.411  0.00  0.00    -0.069 N 
HETATM    7  N   UNK N   1      28.268  14.538   4.898  0.00  0.00    -0.289 N 
ATOM      8  HN  UNK N   1      29.001  14.130   4.318  1.00  0.00     0.187 HD
HETATM    9  C   UNK N   1      27.116  13.928   5.281  0.00  0.00     0.119 A 
HETATM   10  C   UNK N   1      26.389  14.823   6.065  0.00  0.00     0.009 A 
HETATM   11  C   UNK N   1      27.164  15.953   6.120  0.00  0.00     0.168 A 
HETATM   12  N   UNK N   1      26.918  17.131   6.737  0.00  0.00    -0.173 N 
ATOM     13  HN  UNK N   1      26.068  17.269   7.283  1.00  0.00     0.186 HD
HETATM   14  N   UNK N   1      30.355  16.488   4.487  0.00  0.00    -0.220 N 
HETATM   15  H   UNK N   1      27.634  19.584   8.089  0.00  0.00     0.178 HD
HETATM   16  H   UNK N   1      30.418  15.649   3.977  0.00  0.00     0.178 HD
ENDROOT
BRANCH  14  17
HETATM   17  C   UNK N   1      31.444  17.432   4.405  0.00  0.00     0.176 C 
BRANCH  17  18
HETATM   18  C   UNK N   1      32.646  16.928   5.149  0.00  0.00    -0.040 A 
HETATM   19  C   UNK N   1      33.044  17.497   6.370  0.00  0.00     0.009 A 
HETATM   20  C   UNK N   1      34.158  17.001   7.053  0.00  0.00     0.001 A 
HETATM   21  C   UNK N   1      34.879  15.930   6.522  0.00  0.00     0.000 A 
HETATM   22  C   UNK N   1      34.489  15.357   5.308  0.00  0.00     0.001 A 
HETATM   23  C   UNK N   1      33.375  15.855   4.623  0.00  0.00     0.009 A 
ENDBRANCH  17  18
ENDBRANCH  14  17
BRANCH   1  24
HETATM   24  C   UNK N   1      27.136  20.462   6.226  0.00  0.00     0.122 C 
BRANCH  24  25
HETATM   25  C   UNK N   1      26.377  21.532   6.998  0.00  0.00     0.189 C 
BRANCH  25  26
HETATM   26  O   UNK N   1      25.855  20.993   8.177  0.00  0.00    -0.399 OA
HETATM   27  H   UNK N   1      24.975  21.030   8.584  0.00  0.00     0.209 HD
ENDBRANCH  25  26
ENDBRANCH  24  25
BRANCH  24  28
HETATM   28  C   UNK N   1      26.267  19.883   5.100  0.00  0.00     0.023 C 
HETATM   29  C   UNK N   1      26.822  20.196   3.716  0.00  0.00     0.007 C 
ENDBRANCH  24  28
ENDBRANCH   1  24
BRANCH  10  30
HETATM   30  C   UNK N   1      25.043  14.586   6.671  0.00  0.00     0.016 C 
HETATM   31  C   UNK N   1      25.177  13.783   7.953  0.00  0.00     0.015 C 
HETATM   32  C   UNK N   1      24.136  13.856   5.702  0.00  0.00     0.015 C 
ENDBRANCH  10  30
TORSDOF 7
ENDMDL
