REMARK  7 active torsions:
REMARK  status: ('A' for Active; 'I' for Inactive)
REMARK    1  A    between atoms: O_1  and  C_2 
REMARK    2  A    between atoms: C_2  and  C_3 
REMARK    3  A    between atoms: C_3  and  C_4 
REMARK    4  A    between atoms: C_3  and  N_6 
REMARK       I    between atoms: C_7  and  N_6 
REMARK       I    between atoms: N_22  and  C_10 
REMARK    5  A    between atoms: C_15  and  C_16 
REMARK    6  A    between atoms: N_22  and  C_23 
REMARK    7  A    between atoms: C_24  and  C_23 
ROOT
HETATM    1  N   UNK N   1       1.715  -1.798  -1.208  0.00  0.00    -0.219 N 
HETATM    2  C   UNK N   1       0.701  -0.986  -0.656  0.00  0.00     0.694 A 
HETATM    3  N   UNK N   1       1.013   0.251  -0.153  0.00  0.00    -0.021 N 
ATOM      4  HN  UNK N   1       1.959   0.620  -0.255  1.00  0.00     0.203 HD
HETATM    5  C   UNK N   1       0.059   0.989   0.485  0.00  0.00     0.716 A 
HETATM    6  N   UNK N   1      -1.174   0.457   0.622  0.00  0.00    -0.069 N 
HETATM    7  N   UNK N   1      -2.229   0.980   1.225  0.00  0.00    -0.289 N 
ATOM      8  HN  UNK N   1      -2.272   1.895   1.673  1.00  0.00     0.187 HD
HETATM    9  C   UNK N   1      -3.243   0.079   1.142  0.00  0.00     0.119 A 
HETATM   10  C   UNK N   1      -2.776  -1.040   0.453  0.00  0.00     0.009 A 
HETATM   11  C   UNK N   1      -1.473  -0.744   0.143  0.00  0.00     0.168 A 
HETATM   12  N   UNK N   1      -0.556  -1.496  -0.507  0.00  0.00    -0.173 N 
ATOM     13  HN  UNK N   1      -0.798  -2.416  -0.875  1.00  0.00     0.186 HD
HETATM   14  N   UNK N   1       0.350   2.261   1.028  0.00  0.00    -0.220 N 
HETATM   15  H   UNK N   1       1.758  -1.944  -2.181  0.00  0.00     0.178 HD
HETATM   16  H   UNK N   1      -0.331   2.705   1.583  0.00  0.00     0.178 HD
ENDROOT
BRANCH  14  17
HETATM   17  C   UNK N   1       1.606   2.934   0.802  0.00  0.00     0.176 C 
BRANCH  17  18
HETATM   18  C   UNK N   1       1.383   4.326   0.287  0.00  0.00    -0.040 A 
HETATM   19  C   UNK N   1       0.091   4.811   0.022  0.00  0.00     0.009 A 
HETATM   20  C   UNK N   1      -0.093   6.116  -0.442  0.00  0.00     0.001 A 
HETATM   21  C   UNK N   1       1.012   6.947  -0.640  0.00  0.00     0.000 A 
HETATM   22  C   UNK N   1       2.300   6.472  -0.377  0.00  0.00     0.001 A 
HETATM   23  C   UNK N   1       2.485   5.164   0.085  0.00  0.00     0.009 A 
ENDBRANCH  17  18
ENDBRANCH  14  17
BRANCH   1  24
HETATM   24  C   UNK N   1       2.690  -2.413  -0.336  0.00  0.00     0.122 C 
BRANCH  24  25
HETATM   25  C   UNK N   1       3.752  -3.122  -1.164  0.00  0.00     0.189 C 
BRANCH  25  26
HETATM   26  O   UNK N   1       4.740  -3.649  -0.328  0.00  0.00    -0.399 OA
HETATM   27  H   UNK N   1       4.766  -4.426   0.252  0.00  0.00     0.209 HD
ENDBRANCH  25  26
ENDBRANCH  24  25
BRANCH  24  28
HETATM   28  C   UNK N   1       1.997  -3.395   0.619  0.00  0.00     0.023 C 
HETATM   29  C   UNK N   1       1.229  -4.483  -0.121  0.00  0.00     0.007 C 
ENDBRANCH  24  28
ENDBRANCH   1  24
BRANCH  10  30
HETATM   30  C   UNK N   1      -3.543  -2.289   0.161  0.00  0.00     0.016 C 
HETATM   31  C   UNK N   1      -2.878  -3.483   0.822  0.00  0.00     0.015 C 
HETATM   32  C   UNK N   1      -3.646  -2.522  -1.333  0.00  0.00     0.015 C 
ENDBRANCH  10  30
TORSDOF 7
