MODEL 1
REMARK VINA RESULT:      -6.1      0.000      0.000
REMARK  4 active torsions:
REMARK  status: ('A' for Active; 'I' for Inactive)
REMARK    1  A    between atoms: C_1  and  C_2 
REMARK    2  A    between atoms: C_1  and  O_14 
REMARK    3  A    between atoms: C_2  and  O_15 
REMARK    4  A    between atoms: C_3  and  O_15 
ROOT
HETATM    1  C   UNK N   1      34.769  12.039  15.160  0.00  0.00     0.080 A 
HETATM    2  C   UNK N   1      34.770  10.731  14.648  0.00  0.00     0.038 A 
HETATM    3  C   UNK N   1      34.962   9.627  15.481  0.00  0.00     0.004 A 
HETATM    4  C   UNK N   1      35.159   9.803  16.850  0.00  0.00     0.012 A 
HETATM    5  C   UNK N   1      35.164  11.088  17.397  0.00  0.00    -0.023 A 
HETATM    6  C   UNK N   1      35.362  11.246  18.771  0.00  0.00     0.012 A 
HETATM    7  C   UNK N   1      35.371  12.523  19.338  0.00  0.00     0.001 A 
HETATM    8  C   UNK N   1      35.183  13.644  18.533  0.00  0.00     0.001 A 
HETATM    9  C   UNK N   1      34.985  13.492  17.161  0.00  0.00     0.015 A 
HETATM   10  C   UNK N   1      34.971  12.216  16.564  0.00  0.00     0.007 A 
ENDROOT
BRANCH   1  11
HETATM   11  O   UNK N   1      34.575  13.059  14.277  0.00  0.00    -0.340 OA
BRANCH  11  12
HETATM   12  C   UNK N   1      35.349  13.285  13.155  0.00  0.00     0.285 C 
BRANCH  12  13
HETATM   13  C   UNK N   1      36.128  14.554  13.226  0.00  0.00     0.164 C 
HETATM   14  O   UNK N   1      36.013  15.371  12.325  0.00  0.00    -0.648 OA
BRANCH  13  15
HETATM   15  O   UNK N   1      36.948  14.811  14.260  0.00  0.00    -0.775 OA
HETATM   16  H   UNK N   1      37.514  15.558  14.234  0.00  0.00     0.167 HD
ENDBRANCH  13  15
ENDBRANCH  12  13
ENDBRANCH  11  12
ENDBRANCH   1  11
TORSDOF 4
ENDMDL
MODEL 2
REMARK VINA RESULT:      -5.9     17.057     19.181
REMARK  4 active torsions:
REMARK  status: ('A' for Active; 'I' for Inactive)
REMARK    1  A    between atoms: C_1  and  C_2 
REMARK    2  A    between atoms: C_1  and  O_14 
REMARK    3  A    between atoms: C_2  and  O_15 
REMARK    4  A    between atoms: C_3  and  O_15 
ROOT
HETATM    1  C   UNK N   1      22.842  19.738   3.340  0.00  0.00     0.080 A 
HETATM    2  C   UNK N   1      22.021  18.679   3.764  0.00  0.00     0.038 A 
HETATM    3  C   UNK N   1      22.563  17.528   4.338  0.00  0.00     0.004 A 
HETATM    4  C   UNK N   1      23.942  17.406   4.505  0.00  0.00     0.012 A 
HETATM    5  C   UNK N   1      24.791  18.437   4.096  0.00  0.00    -0.023 A 
HETATM    6  C   UNK N   1      26.170  18.298   4.271  0.00  0.00     0.012 A 
HETATM    7  C   UNK N   1      27.036  19.318   3.869  0.00  0.00     0.001 A 
HETATM    8  C   UNK N   1      26.526  20.479   3.292  0.00  0.00     0.001 A 
HETATM    9  C   UNK N   1      25.150  20.623   3.116  0.00  0.00     0.015 A 
HETATM   10  C   UNK N   1      24.255  19.610   3.512  0.00  0.00     0.007 A 
ENDROOT
BRANCH   1  11
HETATM   11  O   UNK N   1      22.230  20.825   2.790  0.00  0.00    -0.340 OA
BRANCH  11  12
HETATM   12  C   UNK N   1      20.924  20.847   2.338  0.00  0.00     0.285 C 
BRANCH  12  13
HETATM   13  C   UNK N   1      20.797  21.337   0.936  0.00  0.00     0.164 C 
HETATM   14  O   UNK N   1      21.081  20.584   0.017  0.00  0.00    -0.648 OA
BRANCH  13  15
HETATM   15  O   UNK N   1      20.376  22.586   0.670  0.00  0.00    -0.775 OA
HETATM   16  H   UNK N   1      19.585  22.907   1.058  0.00  0.00     0.167 HD
ENDBRANCH  13  15
ENDBRANCH  12  13
ENDBRANCH  11  12
ENDBRANCH   1  11
TORSDOF 4
ENDMDL
MODEL 3
REMARK VINA RESULT:      -5.9      1.904      3.653
REMARK  4 active torsions:
REMARK  status: ('A' for Active; 'I' for Inactive)
REMARK    1  A    between atoms: C_1  and  C_2 
REMARK    2  A    between atoms: C_1  and  O_14 
REMARK    3  A    between atoms: C_2  and  O_15 
REMARK    4  A    between atoms: C_3  and  O_15 
ROOT
HETATM    1  C   UNK N   1      35.841  13.755  13.401  0.00  0.00     0.080 A 
HETATM    2  C   UNK N   1      36.594  14.637  14.194  0.00  0.00     0.038 A 
HETATM    3  C   UNK N   1      36.767  14.413  15.561  0.00  0.00     0.004 A 
HETATM    4  C   UNK N   1      36.191  13.301  16.172  0.00  0.00     0.012 A 
HETATM    5  C   UNK N   1      35.435  12.401  15.417  0.00  0.00    -0.023 A 
HETATM    6  C   UNK N   1      34.864  11.291  16.046  0.00  0.00     0.012 A 
HETATM    7  C   UNK N   1      34.105  10.379  15.309  0.00  0.00     0.001 A 
HETATM    8  C   UNK N   1      33.914  10.574  13.943  0.00  0.00     0.001 A 
HETATM    9  C   UNK N   1      34.481  11.680  13.311  0.00  0.00     0.015 A 
HETATM   10  C   UNK N   1      35.251  12.615  14.030  0.00  0.00     0.007 A 
ENDROOT
BRANCH   1  11
HETATM   11  O   UNK N   1      35.722  14.048  12.075  0.00  0.00    -0.340 OA
BRANCH  11  12
HETATM   12  C   UNK N   1      34.941  15.066  11.562  0.00  0.00     0.285 C 
BRANCH  12  13
HETATM   13  C   UNK N   1      35.740  16.177  10.971  0.00  0.00     0.164 C 
HETATM   14  O   UNK N   1      35.167  17.197  10.618  0.00  0.00    -0.648 OA
BRANCH  13  15
HETATM   15  O   UNK N   1      37.072  16.074  10.821  0.00  0.00    -0.775 OA
HETATM   16  H   UNK N   1      37.432  15.804   9.999  0.00  0.00     0.167 HD
ENDBRANCH  13  15
ENDBRANCH  12  13
ENDBRANCH  11  12
ENDBRANCH   1  11
TORSDOF 4
ENDMDL
MODEL 4
REMARK VINA RESULT:      -5.9      9.591     11.401
REMARK  4 active torsions:
REMARK  status: ('A' for Active; 'I' for Inactive)
REMARK    1  A    between atoms: C_1  and  C_2 
REMARK    2  A    between atoms: C_1  and  O_14 
REMARK    3  A    between atoms: C_2  and  O_15 
REMARK    4  A    between atoms: C_3  and  O_15 
ROOT
HETATM    1  C   UNK N   1      30.852  17.499   8.034  0.00  0.00     0.080 A 
HETATM    2  C   UNK N   1      30.527  18.318   9.129  0.00  0.00     0.038 A 
HETATM    3  C   UNK N   1      29.198  18.566   9.479  0.00  0.00     0.004 A 
HETATM    4  C   UNK N   1      28.159  18.001   8.743  0.00  0.00     0.012 A 
HETATM    5  C   UNK N   1      28.441  17.181   7.647  0.00  0.00    -0.023 A 
HETATM    6  C   UNK N   1      27.386  16.622   6.920  0.00  0.00     0.012 A 
HETATM    7  C   UNK N   1      27.648  15.799   5.822  0.00  0.00     0.001 A 
HETATM    8  C   UNK N   1      28.963  15.533   5.448  0.00  0.00     0.001 A 
HETATM    9  C   UNK N   1      30.019  16.088   6.170  0.00  0.00     0.015 A 
HETATM   10  C   UNK N   1      29.783  16.921   7.281  0.00  0.00     0.007 A 
ENDROOT
BRANCH   1  11
HETATM   11  O   UNK N   1      32.174  17.310   7.763  0.00  0.00    -0.340 OA
BRANCH  11  12
HETATM   12  C   UNK N   1      33.209  17.688   8.597  0.00  0.00     0.285 C 
BRANCH  12  13
HETATM   13  C   UNK N   1      34.364  18.283   7.865  0.00  0.00     0.164 C 
HETATM   14  O   UNK N   1      34.515  18.020   6.681  0.00  0.00    -0.648 OA
BRANCH  13  15
HETATM   15  O   UNK N   1      35.234  19.100   8.483  0.00  0.00    -0.775 OA
HETATM   16  H   UNK N   1      35.912  18.741   9.022  0.00  0.00     0.167 HD
ENDBRANCH  13  15
ENDBRANCH  12  13
ENDBRANCH  11  12
ENDBRANCH   1  11
TORSDOF 4
ENDMDL
MODEL 5
REMARK VINA RESULT:      -5.8      9.677     11.982
REMARK  4 active torsions:
REMARK  status: ('A' for Active; 'I' for Inactive)
REMARK    1  A    between atoms: C_1  and  C_2 
REMARK    2  A    between atoms: C_1  and  O_14 
REMARK    3  A    between atoms: C_2  and  O_15 
REMARK    4  A    between atoms: C_3  and  O_15 
ROOT
HETATM    1  C   UNK N   1      31.651  17.361   7.956  0.00  0.00     0.080 A 
HETATM    2  C   UNK N   1      32.869  17.503   8.642  0.00  0.00     0.038 A 
HETATM    3  C   UNK N   1      34.081  17.587   7.955  0.00  0.00     0.004 A 
HETATM    4  C   UNK N   1      34.107  17.532   6.563  0.00  0.00     0.012 A 
HETATM    5  C   UNK N   1      32.917  17.392   5.845  0.00  0.00    -0.023 A 
HETATM    6  C   UNK N   1      32.961  17.338   4.449  0.00  0.00     0.012 A 
HETATM    7  C   UNK N   1      31.782  17.198   3.714  0.00  0.00     0.001 A 
HETATM    8  C   UNK N   1      30.557  17.111   4.370  0.00  0.00     0.001 A 
HETATM    9  C   UNK N   1      30.507  17.164   5.762  0.00  0.00     0.015 A 
HETATM   10  C   UNK N   1      31.681  17.305   6.529  0.00  0.00     0.007 A 
ENDROOT
BRANCH   1  11
HETATM   11  O   UNK N   1      30.514  17.286   8.705  0.00  0.00    -0.340 OA
BRANCH  11  12
HETATM   12  C   UNK N   1      29.876  18.371   9.275  0.00  0.00     0.285 C 
BRANCH  12  13
HETATM   13  C   UNK N   1      28.493  18.576   8.757  0.00  0.00     0.164 C 
HETATM   14  O   UNK N   1      28.335  19.201   7.719  0.00  0.00    -0.648 OA
BRANCH  13  15
HETATM   15  O   UNK N   1      27.425  18.085   9.410  0.00  0.00    -0.775 OA
HETATM   16  H   UNK N   1      26.560  18.346   9.156  0.00  0.00     0.167 HD
ENDBRANCH  13  15
ENDBRANCH  12  13
ENDBRANCH  11  12
ENDBRANCH   1  11
TORSDOF 4
ENDMDL
MODEL 6
REMARK VINA RESULT:      -5.7     22.175     25.333
REMARK  4 active torsions:
REMARK  status: ('A' for Active; 'I' for Inactive)
REMARK    1  A    between atoms: C_1  and  C_2 
REMARK    2  A    between atoms: C_1  and  O_14 
REMARK    3  A    between atoms: C_2  and  O_15 
REMARK    4  A    between atoms: C_3  and  O_15 
ROOT
HETATM    1  C   UNK N   1      27.306  24.335  -4.439  0.00  0.00     0.080 A 
HETATM    2  C   UNK N   1      27.275  23.466  -5.543  0.00  0.00     0.038 A 
HETATM    3  C   UNK N   1      26.534  23.772  -6.685  0.00  0.00     0.004 A 
HETATM    4  C   UNK N   1      25.803  24.956  -6.754  0.00  0.00     0.012 A 
HETATM    5  C   UNK N   1      25.808  25.846  -5.678  0.00  0.00    -0.023 A 
HETATM    6  C   UNK N   1      25.069  27.029  -5.764  0.00  0.00     0.012 A 
HETATM    7  C   UNK N   1      25.062  27.932  -4.698  0.00  0.00     0.001 A 
HETATM    8  C   UNK N   1      25.791  27.656  -3.544  0.00  0.00     0.001 A 
HETATM    9  C   UNK N   1      26.530  26.477  -3.453  0.00  0.00     0.015 A 
HETATM   10  C   UNK N   1      26.555  25.549  -4.513  0.00  0.00     0.007 A 
ENDROOT
BRANCH   1  11
HETATM   11  O   UNK N   1      28.056  23.959  -3.364  0.00  0.00    -0.340 OA
BRANCH  11  12
HETATM   12  C   UNK N   1      29.436  24.016  -3.310  0.00  0.00     0.285 C 
BRANCH  12  13
HETATM   13  C   UNK N   1      30.042  22.856  -2.597  0.00  0.00     0.164 C 
HETATM   14  O   UNK N   1      30.446  23.008  -1.453  0.00  0.00    -0.648 OA
BRANCH  13  15
HETATM   15  O   UNK N   1      30.150  21.653  -3.188  0.00  0.00    -0.775 OA
HETATM   16  H   UNK N   1      30.591  20.952  -2.747  0.00  0.00     0.167 HD
ENDBRANCH  13  15
ENDBRANCH  12  13
ENDBRANCH  11  12
ENDBRANCH   1  11
TORSDOF 4
ENDMDL
MODEL 7
REMARK VINA RESULT:      -5.5      7.141     10.405
REMARK  4 active torsions:
REMARK  status: ('A' for Active; 'I' for Inactive)
REMARK    1  A    between atoms: C_1  and  C_2 
REMARK    2  A    between atoms: C_1  and  O_14 
REMARK    3  A    between atoms: C_2  and  O_15 
REMARK    4  A    between atoms: C_3  and  O_15 
ROOT
HETATM    1  C   UNK N   1      33.302  17.444   7.999  0.00  0.00     0.080 A 
HETATM    2  C   UNK N   1      34.161  17.374   6.890  0.00  0.00     0.038 A 
HETATM    3  C   UNK N   1      33.660  17.262   5.592  0.00  0.00     0.004 A 
HETATM    4  C   UNK N   1      32.285  17.217   5.368  0.00  0.00     0.012 A 
HETATM    5  C   UNK N   1      31.398  17.284   6.445  0.00  0.00    -0.023 A 
HETATM    6  C   UNK N   1      30.023  17.238   6.204  0.00  0.00     0.012 A 
HETATM    7  C   UNK N   1      29.120  17.304   7.267  0.00  0.00     0.001 A 
HETATM    8  C   UNK N   1      29.588  17.416   8.574  0.00  0.00     0.001 A 
HETATM    9  C   UNK N   1      30.960  17.463   8.821  0.00  0.00     0.015 A 
HETATM   10  C   UNK N   1      31.892  17.398   7.767  0.00  0.00     0.007 A 
ENDROOT
BRANCH   1  11
HETATM   11  O   UNK N   1      33.875  17.553   9.231  0.00  0.00    -0.340 OA
BRANCH  11  12
HETATM   12  C   UNK N   1      34.728  16.618   9.786  0.00  0.00     0.285 C 
BRANCH  12  13
HETATM   13  C   UNK N   1      34.074  15.300  10.031  0.00  0.00     0.164 C 
HETATM   14  O   UNK N   1      34.339  14.361   9.295  0.00  0.00    -0.648 OA
BRANCH  13  15
HETATM   15  O   UNK N   1      33.206  15.131  11.043  0.00  0.00    -0.775 OA
HETATM   16  H   UNK N   1      33.512  14.841  11.880  0.00  0.00     0.167 HD
ENDBRANCH  13  15
ENDBRANCH  12  13
ENDBRANCH  11  12
ENDBRANCH   1  11
TORSDOF 4
ENDMDL
MODEL 8
REMARK VINA RESULT:      -5.5     14.218     15.430
REMARK  4 active torsions:
REMARK  status: ('A' for Active; 'I' for Inactive)
REMARK    1  A    between atoms: C_1  and  C_2 
REMARK    2  A    between atoms: C_1  and  O_14 
REMARK    3  A    between atoms: C_2  and  O_15 
REMARK    4  A    between atoms: C_3  and  O_15 
ROOT
HETATM    1  C   UNK N   1      21.092  13.352   9.657  0.00  0.00     0.080 A 
HETATM    2  C   UNK N   1      20.900  12.646  10.856  0.00  0.00     0.038 A 
HETATM    3  C   UNK N   1      21.966  12.029  11.512  0.00  0.00     0.004 A 
HETATM    4  C   UNK N   1      23.255  12.102  10.985  0.00  0.00     0.012 A 
HETATM    5  C   UNK N   1      23.486  12.796   9.794  0.00  0.00    -0.023 A 
HETATM    6  C   UNK N   1      24.784  12.859   9.280  0.00  0.00     0.012 A 
HETATM    7  C   UNK N   1      25.036  13.547   8.091  0.00  0.00     0.001 A 
HETATM    8  C   UNK N   1      23.992  14.173   7.413  0.00  0.00     0.001 A 
HETATM    9  C   UNK N   1      22.696  14.113   7.922  0.00  0.00     0.015 A 
HETATM   10  C   UNK N   1      22.414  13.426   9.119  0.00  0.00     0.007 A 
ENDROOT
BRANCH   1  11
HETATM   11  O   UNK N   1      19.995  13.924   9.083  0.00  0.00    -0.340 OA
BRANCH  11  12
HETATM   12  C   UNK N   1      19.424  15.114   9.493  0.00  0.00     0.285 C 
BRANCH  12  13
HETATM   13  C   UNK N   1      19.592  16.216   8.503  0.00  0.00     0.164 C 
HETATM   14  O   UNK N   1      18.817  16.291   7.562  0.00  0.00    -0.648 OA
BRANCH  13  15
HETATM   15  O   UNK N   1      20.577  17.123   8.631  0.00  0.00    -0.775 OA
HETATM   16  H   UNK N   1      20.435  17.900   9.137  0.00  0.00     0.167 HD
ENDBRANCH  13  15
ENDBRANCH  12  13
ENDBRANCH  11  12
ENDBRANCH   1  11
TORSDOF 4
ENDMDL
MODEL 9
REMARK VINA RESULT:      -5.3     15.001     16.189
REMARK  4 active torsions:
REMARK  status: ('A' for Active; 'I' for Inactive)
REMARK    1  A    between atoms: C_1  and  C_2 
REMARK    2  A    between atoms: C_1  and  O_14 
REMARK    3  A    between atoms: C_2  and  O_15 
REMARK    4  A    between atoms: C_3  and  O_15 
ROOT
HETATM    1  C   UNK N   1      20.916  14.653   8.167  0.00  0.00     0.080 A 
HETATM    2  C   UNK N   1      21.676  15.132   7.087  0.00  0.00     0.038 A 
HETATM    3  C   UNK N   1      22.998  14.728   6.896  0.00  0.00     0.004 A 
HETATM    4  C   UNK N   1      23.596  13.832   7.780  0.00  0.00     0.012 A 
HETATM    5  C   UNK N   1      22.873  13.332   8.866  0.00  0.00    -0.023 A 
HETATM    6  C   UNK N   1      23.488  12.435   9.743  0.00  0.00     0.012 A 
HETATM    7  C   UNK N   1      22.782  11.924  10.835  0.00  0.00     0.001 A 
HETATM    8  C   UNK N   1      21.461  12.309  11.053  0.00  0.00     0.001 A 
HETATM    9  C   UNK N   1      20.843  13.204  10.181  0.00  0.00     0.015 A 
HETATM   10  C   UNK N   1      21.531  13.734   9.073  0.00  0.00     0.007 A 
ENDROOT
BRANCH   1  11
HETATM   11  O   UNK N   1      19.633  15.100   8.279  0.00  0.00    -0.340 OA
BRANCH  11  12
HETATM   12  C   UNK N   1      19.162  16.281   7.739  0.00  0.00     0.285 C 
BRANCH  12  13
HETATM   13  C   UNK N   1      19.128  17.402   8.721  0.00  0.00     0.164 C 
HETATM   14  O   UNK N   1      20.152  18.035   8.934  0.00  0.00    -0.648 OA
BRANCH  13  15
HETATM   15  O   UNK N   1      17.996  17.726   9.370  0.00  0.00    -0.775 OA
HETATM   16  H   UNK N   1      17.624  18.579   9.266  0.00  0.00     0.167 HD
ENDBRANCH  13  15
ENDBRANCH  12  13
ENDBRANCH  11  12
ENDBRANCH   1  11
TORSDOF 4
ENDMDL
