REMARK  8 active torsions:
REMARK  status: ('A' for Active; 'I' for Inactive)
REMARK    1  A    between atoms: C_2  and  O_7 
REMARK    2  A    between atoms: C_6  and  S_19 
REMARK    3  A    between atoms: C_8  and  N_9 
REMARK    4  A    between atoms: C_8  and  C_23 
REMARK       I    between atoms: N_9  and  C_10 
REMARK    5  A    between atoms: C_12  and  C_10 
REMARK    6  A    between atoms: C_17  and  C_18 
REMARK    7  A    between atoms: C_18  and  S_19 
REMARK    8  A    between atoms: C_23  and  N_24 
ROOT
HETATM    1  C   UNK N   1       1.475  -1.731   0.620  0.00  0.00     0.083 C 
HETATM    2  C   UNK N   1       1.781  -3.236   0.677  0.00  0.00     0.014 C 
HETATM    3  C   UNK N   1       0.712  -4.107  -0.008  0.00  0.00     0.001 C 
HETATM    4  C   UNK N   1      -0.642  -3.404  -0.144  0.00  0.00     0.000 C 
HETATM    5  C   UNK N   1      -0.544  -2.049  -0.869  0.00  0.00     0.006 C 
HETATM    6  C   UNK N   1       0.835  -1.378  -0.747  0.00  0.00     0.013 C 
ENDROOT
BRANCH   6   7
HETATM    7  C   UNK N   1       0.741   0.124  -1.059  0.00  0.00     0.151 C 
BRANCH   7   8
HETATM    8  S   UNK N   1      -0.178   1.201   0.103  0.00  0.00     0.175 S 
HETATM    9  O   UNK N   1      -0.198   0.606   1.516  0.00  0.00    -0.223 OA
HETATM   10  O   UNK N   1       0.809   2.342   0.399  0.00  0.00    -0.223 OA
BRANCH   8  11
HETATM   11  C   UNK N   1      -1.754   2.009  -0.132  0.00  0.00     0.059 A 
HETATM   12  C   UNK N   1      -1.827   3.405  -0.200  0.00  0.00     0.026 A 
HETATM   13  C   UNK N   1      -3.065   4.037  -0.331  0.00  0.00     0.038 A 
HETATM   14  C   UNK N   1      -4.240   3.282  -0.391  0.00  0.00     0.068 A 
HETATM   15  C   UNK N   1      -4.162   1.878  -0.327  0.00  0.00     0.038 A 
HETATM   16  C   UNK N   1      -2.923   1.247  -0.195  0.00  0.00     0.026 A 
BRANCH  14  17
HETATM   17  O   UNK N   1      -5.426   3.923  -0.505  0.00  0.00    -0.356 OA
HETATM   18  C   UNK N   1      -6.636   3.267  -0.553  0.00  0.00     0.210 C 
ENDBRANCH  14  17
ENDBRANCH   8  11
ENDBRANCH   7   8
ENDBRANCH   6   7
BRANCH   1  19
HETATM   19  C   UNK N   1       2.694  -0.895   0.978  0.00  0.00     0.222 C 
HETATM   20  N   UNK N   1       3.842  -0.896   0.257  0.00  0.00    -0.359 N 
HETATM   21  H   UNK N   1       4.562  -0.288   0.542  0.00  0.00     0.162 HD
HETATM   22  O   UNK N   1       2.630  -0.171   1.960  0.00  0.00    -0.273 OA
BRANCH  20  23
HETATM   23  C   UNK N   1       4.085  -1.722  -0.897  0.00  0.00     0.141 C 
BRANCH  23  24
HETATM   24  C   UNK N   1       5.523  -2.213  -0.861  0.00  0.00     0.130 C 
BRANCH  24  25
HETATM   25  N   UNK N   1       6.437  -1.083  -0.907  0.00  0.00    -0.429 N 
HETATM   26  H   UNK N   1       7.444  -1.242  -0.940  0.00  0.00     0.149 HD
HETATM   27  H   UNK N   1       6.071  -0.130  -0.907  0.00  0.00     0.149 HD
ENDBRANCH  24  25
ENDBRANCH  23  24
ENDBRANCH  20  23
ENDBRANCH   1  19
TORSDOF 8
