MODEL 1
REMARK VINA RESULT:      -6.5      0.000      0.000
REMARK  8 active torsions:
REMARK  status: ('A' for Active; 'I' for Inactive)
REMARK    1  A    between atoms: C_2  and  O_7 
REMARK    2  A    between atoms: C_6  and  S_19 
REMARK    3  A    between atoms: C_8  and  N_9 
REMARK    4  A    between atoms: C_8  and  C_23 
REMARK       I    between atoms: N_9  and  C_10 
REMARK    5  A    between atoms: C_12  and  C_10 
REMARK    6  A    between atoms: C_17  and  C_18 
REMARK    7  A    between atoms: C_18  and  S_19 
REMARK    8  A    between atoms: C_23  and  N_24 
ROOT
HETATM    1  C   UNK N   1      32.895  16.893   7.057  0.00  0.00     0.083 C 
HETATM    2  C   UNK N   1      33.798  17.201   5.851  0.00  0.00     0.014 C 
HETATM    3  C   UNK N   1      33.131  16.910   4.494  0.00  0.00     0.001 C 
HETATM    4  C   UNK N   1      31.961  15.926   4.596  0.00  0.00     0.000 C 
HETATM    5  C   UNK N   1      30.890  16.371   5.608  0.00  0.00     0.006 C 
HETATM    6  C   UNK N   1      31.431  17.278   6.726  0.00  0.00     0.013 C 
ENDROOT
BRANCH   6   7
HETATM    7  C   UNK N   1      30.471  17.298   7.927  0.00  0.00     0.151 C 
BRANCH   7   8
HETATM    8  S   UNK N   1      28.753  17.875   7.661  0.00  0.00     0.175 S 
HETATM    9  O   UNK N   1      27.737  16.786   8.028  0.00  0.00    -0.223 OA
HETATM   10  O   UNK N   1      28.486  18.788   8.869  0.00  0.00    -0.223 OA
BRANCH   8  11
HETATM   11  C   UNK N   1      28.074  18.755   6.263  0.00  0.00     0.059 A 
HETATM   12  C   UNK N   1      27.677  20.091   6.396  0.00  0.00     0.026 A 
HETATM   13  C   UNK N   1      27.098  20.761   5.317  0.00  0.00     0.038 A 
HETATM   14  C   UNK N   1      26.907  20.104   4.098  0.00  0.00     0.068 A 
HETATM   15  C   UNK N   1      27.312  18.762   3.967  0.00  0.00     0.038 A 
HETATM   16  C   UNK N   1      27.890  18.092   5.047  0.00  0.00     0.026 A 
BRANCH  14  17
HETATM   17  O   UNK N   1      26.332  20.776   3.074  0.00  0.00    -0.356 OA
HETATM   18  C   UNK N   1      25.074  20.486   2.594  0.00  0.00     0.210 C 
ENDBRANCH  14  17
ENDBRANCH   8  11
ENDBRANCH   7   8
ENDBRANCH   6   7
BRANCH   1  19
HETATM   19  C   UNK N   1      33.435  17.514   8.336  0.00  0.00     0.222 C 
HETATM   20  N   UNK N   1      33.716  16.801   9.455  0.00  0.00    -0.359 N 
HETATM   21  H   UNK N   1      34.103  17.284  10.220  0.00  0.00     0.162 HD
HETATM   22  O   UNK N   1      33.642  18.718   8.352  0.00  0.00    -0.273 OA
BRANCH  20  23
HETATM   23  C   UNK N   1      33.488  15.387   9.605  0.00  0.00     0.141 C 
BRANCH  23  24
HETATM   24  C   UNK N   1      34.235  14.893  10.833  0.00  0.00     0.130 C 
BRANCH  24  25
HETATM   25  N   UNK N   1      34.289  13.440  10.832  0.00  0.00    -0.429 N 
HETATM   26  H   UNK N   1      33.659  12.905  11.430  0.00  0.00     0.149 HD
HETATM   27  H   UNK N   1      34.957  12.954  10.232  0.00  0.00     0.149 HD
ENDBRANCH  24  25
ENDBRANCH  23  24
ENDBRANCH  20  23
ENDBRANCH   1  19
TORSDOF 8
ENDMDL
MODEL 2
REMARK VINA RESULT:      -6.3     12.808     15.474
REMARK  8 active torsions:
REMARK  status: ('A' for Active; 'I' for Inactive)
REMARK    1  A    between atoms: C_2  and  O_7 
REMARK    2  A    between atoms: C_6  and  S_19 
REMARK    3  A    between atoms: C_8  and  N_9 
REMARK    4  A    between atoms: C_8  and  C_23 
REMARK       I    between atoms: N_9  and  C_10 
REMARK    5  A    between atoms: C_12  and  C_10 
REMARK    6  A    between atoms: C_17  and  C_18 
REMARK    7  A    between atoms: C_18  and  S_19 
REMARK    8  A    between atoms: C_23  and  N_24 
ROOT
HETATM    1  C   UNK N   1      26.625  27.396  -4.601  0.00  0.00     0.083 C 
HETATM    2  C   UNK N   1      25.224  27.320  -5.226  0.00  0.00     0.014 C 
HETATM    3  C   UNK N   1      25.211  26.695  -6.633  0.00  0.00     0.001 C 
HETATM    4  C   UNK N   1      26.575  26.750  -7.329  0.00  0.00     0.000 C 
HETATM    5  C   UNK N   1      27.700  26.110  -6.495  0.00  0.00     0.006 C 
HETATM    6  C   UNK N   1      27.437  26.131  -4.979  0.00  0.00     0.013 C 
ENDROOT
BRANCH   6   7
HETATM    7  C   UNK N   1      28.744  25.931  -4.195  0.00  0.00     0.151 C 
BRANCH   7   8
HETATM    8  S   UNK N   1      29.233  24.227  -3.734  0.00  0.00     0.175 S 
HETATM    9  O   UNK N   1      30.318  24.234  -2.650  0.00  0.00    -0.223 OA
HETATM   10  O   UNK N   1      28.081  23.749  -2.836  0.00  0.00    -0.223 OA
BRANCH   8  11
HETATM   11  C   UNK N   1      29.588  22.839  -4.801  0.00  0.00     0.059 A 
HETATM   12  C   UNK N   1      28.917  22.699  -6.021  0.00  0.00     0.026 A 
HETATM   13  C   UNK N   1      29.156  21.587  -6.830  0.00  0.00     0.038 A 
HETATM   14  C   UNK N   1      30.064  20.603  -6.426  0.00  0.00     0.068 A 
HETATM   15  C   UNK N   1      30.741  20.750  -5.201  0.00  0.00     0.038 A 
HETATM   16  C   UNK N   1      30.499  21.863  -4.392  0.00  0.00     0.026 A 
BRANCH  14  17
HETATM   17  O   UNK N   1      30.266  19.530  -7.225  0.00  0.00    -0.356 OA
HETATM   18  C   UNK N   1      29.240  18.777  -7.749  0.00  0.00     0.210 C 
ENDBRANCH  14  17
ENDBRANCH   8  11
ENDBRANCH   7   8
ENDBRANCH   6   7
BRANCH   1  19
HETATM   19  C   UNK N   1      26.561  27.679  -3.108  0.00  0.00     0.222 C 
HETATM   20  N   UNK N   1      27.179  28.731  -2.516  0.00  0.00    -0.359 N 
HETATM   21  H   UNK N   1      27.043  28.856  -1.549  0.00  0.00     0.162 HD
HETATM   22  O   UNK N   1      25.904  26.926  -2.405  0.00  0.00    -0.273 OA
BRANCH  20  23
HETATM   23  C   UNK N   1      28.019  29.679  -3.200  0.00  0.00     0.141 C 
BRANCH  23  24
HETATM   24  C   UNK N   1      27.392  31.060  -3.099  0.00  0.00     0.130 C 
BRANCH  24  25
HETATM   25  N   UNK N   1      26.025  31.024  -3.592  0.00  0.00    -0.429 N 
HETATM   26  H   UNK N   1      25.499  31.891  -3.701  0.00  0.00     0.149 HD
HETATM   27  H   UNK N   1      25.591  30.131  -3.831  0.00  0.00     0.149 HD
ENDBRANCH  24  25
ENDBRANCH  23  24
ENDBRANCH  20  23
ENDBRANCH   1  19
TORSDOF 8
ENDMDL
MODEL 3
REMARK VINA RESULT:      -6.2     11.679     14.693
REMARK  8 active torsions:
REMARK  status: ('A' for Active; 'I' for Inactive)
REMARK    1  A    between atoms: C_2  and  O_7 
REMARK    2  A    between atoms: C_6  and  S_19 
REMARK    3  A    between atoms: C_8  and  N_9 
REMARK    4  A    between atoms: C_8  and  C_23 
REMARK       I    between atoms: N_9  and  C_10 
REMARK    5  A    between atoms: C_12  and  C_10 
REMARK    6  A    between atoms: C_17  and  C_18 
REMARK    7  A    between atoms: C_18  and  S_19 
REMARK    8  A    between atoms: C_23  and  N_24 
ROOT
HETATM    1  C   UNK N   1      27.218  24.309  -5.045  0.00  0.00     0.083 C 
HETATM    2  C   UNK N   1      26.115  23.527  -5.775  0.00  0.00     0.014 C 
HETATM    3  C   UNK N   1      26.625  22.738  -6.995  0.00  0.00     0.001 C 
HETATM    4  C   UNK N   1      27.954  23.267  -7.543  0.00  0.00     0.000 C 
HETATM    5  C   UNK N   1      29.061  23.330  -6.474  0.00  0.00     0.006 C 
HETATM    6  C   UNK N   1      28.530  23.483  -5.038  0.00  0.00     0.013 C 
ENDROOT
BRANCH   6   7
HETATM    7  C   UNK N   1      29.630  24.006  -4.102  0.00  0.00     0.151 C 
BRANCH   7   8
HETATM    8  S   UNK N   1      30.700  22.789  -3.248  0.00  0.00     0.175 S 
HETATM    9  O   UNK N   1      30.716  23.028  -1.733  0.00  0.00    -0.223 OA
HETATM   10  O   UNK N   1      29.848  21.510  -3.222  0.00  0.00    -0.223 OA
BRANCH   8  11
HETATM   11  C   UNK N   1      32.340  22.238  -3.694  0.00  0.00     0.059 A 
HETATM   12  C   UNK N   1      33.024  22.844  -4.754  0.00  0.00     0.026 A 
HETATM   13  C   UNK N   1      34.283  22.377  -5.135  0.00  0.00     0.038 A 
HETATM   14  C   UNK N   1      34.869  21.299  -4.465  0.00  0.00     0.068 A 
HETATM   15  C   UNK N   1      34.180  20.695  -3.396  0.00  0.00     0.038 A 
HETATM   16  C   UNK N   1      32.920  21.163  -3.016  0.00  0.00     0.026 A 
BRANCH  14  17
HETATM   17  O   UNK N   1      36.084  20.861  -4.865  0.00  0.00    -0.356 OA
HETATM   18  C   UNK N   1      36.264  19.998  -5.923  0.00  0.00     0.210 C 
ENDBRANCH  14  17
ENDBRANCH   8  11
ENDBRANCH   7   8
ENDBRANCH   6   7
BRANCH   1  19
HETATM   19  C   UNK N   1      26.762  24.776  -3.671  0.00  0.00     0.222 C 
HETATM   20  N   UNK N   1      26.642  26.081  -3.324  0.00  0.00    -0.359 N 
HETATM   21  H   UNK N   1      26.297  26.286  -2.425  0.00  0.00     0.162 HD
HETATM   22  O   UNK N   1      26.474  23.929  -2.840  0.00  0.00    -0.273 OA
BRANCH  20  23
HETATM   23  C   UNK N   1      26.982  27.191  -4.177  0.00  0.00     0.141 C 
BRANCH  23  24
HETATM   24  C   UNK N   1      25.766  28.090  -4.328  0.00  0.00     0.130 C 
BRANCH  24  25
HETATM   25  N   UNK N   1      25.882  29.238  -3.444  0.00  0.00    -0.429 N 
HETATM   26  H   UNK N   1      26.130  30.152  -3.824  0.00  0.00     0.149 HD
HETATM   27  H   UNK N   1      25.714  29.131  -2.442  0.00  0.00     0.149 HD
ENDBRANCH  24  25
ENDBRANCH  23  24
ENDBRANCH  20  23
ENDBRANCH   1  19
TORSDOF 8
ENDMDL
MODEL 4
REMARK VINA RESULT:      -6.2      7.576     11.042
REMARK  8 active torsions:
REMARK  status: ('A' for Active; 'I' for Inactive)
REMARK    1  A    between atoms: C_2  and  O_7 
REMARK    2  A    between atoms: C_6  and  S_19 
REMARK    3  A    between atoms: C_8  and  N_9 
REMARK    4  A    between atoms: C_8  and  C_23 
REMARK       I    between atoms: N_9  and  C_10 
REMARK    5  A    between atoms: C_12  and  C_10 
REMARK    6  A    between atoms: C_17  and  C_18 
REMARK    7  A    between atoms: C_18  and  S_19 
REMARK    8  A    between atoms: C_23  and  N_24 
ROOT
HETATM    1  C   UNK N   1      21.548  18.019   4.208  0.00  0.00     0.083 C 
HETATM    2  C   UNK N   1      20.715  19.251   3.821  0.00  0.00     0.014 C 
HETATM    3  C   UNK N   1      19.653  18.963   2.745  0.00  0.00     0.001 C 
HETATM    4  C   UNK N   1      19.955  17.708   1.921  0.00  0.00     0.000 C 
HETATM    5  C   UNK N   1      20.157  16.453   2.791  0.00  0.00     0.006 C 
HETATM    6  C   UNK N   1      20.645  16.759   4.217  0.00  0.00     0.013 C 
ENDROOT
BRANCH   6   7
HETATM    7  C   UNK N   1      21.268  15.510   4.861  0.00  0.00     0.151 C 
BRANCH   7   8
HETATM    8  S   UNK N   1      20.424  14.757   6.301  0.00  0.00     0.175 S 
HETATM    9  O   UNK N   1      19.414  15.728   6.924  0.00  0.00    -0.223 OA
HETATM   10  O   UNK N   1      19.396  13.807   5.665  0.00  0.00    -0.223 OA
BRANCH   8  11
HETATM   11  C   UNK N   1      21.135  13.826   7.650  0.00  0.00     0.059 A 
HETATM   12  C   UNK N   1      21.946  12.715   7.390  0.00  0.00     0.026 A 
HETATM   13  C   UNK N   1      22.457  11.957   8.445  0.00  0.00     0.038 A 
HETATM   14  C   UNK N   1      22.160  12.298   9.768  0.00  0.00     0.068 A 
HETATM   15  C   UNK N   1      21.348  13.419  10.026  0.00  0.00     0.038 A 
HETATM   16  C   UNK N   1      20.836  14.176   8.969  0.00  0.00     0.026 A 
BRANCH  14  17
HETATM   17  O   UNK N   1      22.660  11.538  10.769  0.00  0.00    -0.356 OA
HETATM   18  C   UNK N   1      22.835  12.002  12.053  0.00  0.00     0.210 C 
ENDBRANCH  14  17
ENDBRANCH   8  11
ENDBRANCH   7   8
ENDBRANCH   6   7
BRANCH   1  19
HETATM   19  C   UNK N   1      22.324  18.245   5.496  0.00  0.00     0.222 C 
HETATM   20  N   UNK N   1      23.675  18.181   5.578  0.00  0.00    -0.359 N 
HETATM   21  H   UNK N   1      24.091  18.386   6.447  0.00  0.00     0.162 HD
HETATM   22  O   UNK N   1      21.696  18.516   6.509  0.00  0.00    -0.273 OA
BRANCH  20  23
HETATM   23  C   UNK N   1      24.548  17.835   4.486  0.00  0.00     0.141 C 
BRANCH  23  24
HETATM   24  C   UNK N   1      25.927  18.418   4.750  0.00  0.00     0.130 C 
BRANCH  24  25
HETATM   25  N   UNK N   1      25.854  19.409   5.811  0.00  0.00    -0.429 N 
HETATM   26  H   UNK N   1      26.428  19.305   6.648  0.00  0.00     0.149 HD
HETATM   27  H   UNK N   1      25.229  20.211   5.719  0.00  0.00     0.149 HD
ENDBRANCH  24  25
ENDBRANCH  23  24
ENDBRANCH  20  23
ENDBRANCH   1  19
TORSDOF 8
ENDMDL
MODEL 5
REMARK VINA RESULT:      -6.0      3.038      5.177
REMARK  8 active torsions:
REMARK  status: ('A' for Active; 'I' for Inactive)
REMARK    1  A    between atoms: C_2  and  O_7 
REMARK    2  A    between atoms: C_6  and  S_19 
REMARK    3  A    between atoms: C_8  and  N_9 
REMARK    4  A    between atoms: C_8  and  C_23 
REMARK       I    between atoms: N_9  and  C_10 
REMARK    5  A    between atoms: C_12  and  C_10 
REMARK    6  A    between atoms: C_17  and  C_18 
REMARK    7  A    between atoms: C_18  and  S_19 
REMARK    8  A    between atoms: C_23  and  N_24 
ROOT
HETATM    1  C   UNK N   1      35.649  13.912   9.609  0.00  0.00     0.083 C 
HETATM    2  C   UNK N   1      35.946  12.560   8.941  0.00  0.00     0.014 C 
HETATM    3  C   UNK N   1      34.888  12.142   7.903  0.00  0.00     0.001 C 
HETATM    4  C   UNK N   1      33.542  12.846   8.098  0.00  0.00     0.000 C 
HETATM    5  C   UNK N   1      33.664  14.381   8.115  0.00  0.00     0.006 C 
HETATM    6  C   UNK N   1      35.043  14.889   8.569  0.00  0.00     0.013 C 
ENDROOT
BRANCH   6   7
HETATM    7  C   UNK N   1      34.965  16.357   9.015  0.00  0.00     0.151 C 
BRANCH   7   8
HETATM    8  S   UNK N   1      33.986  17.527   8.001  0.00  0.00     0.175 S 
HETATM    9  O   UNK N   1      34.391  18.979   8.279  0.00  0.00    -0.223 OA
HETATM   10  O   UNK N   1      34.625  17.422   6.607  0.00  0.00    -0.223 OA
BRANCH   8  11
HETATM   11  C   UNK N   1      32.225  17.538   7.697  0.00  0.00     0.059 A 
HETATM   12  C   UNK N   1      31.720  17.110   6.464  0.00  0.00     0.026 A 
HETATM   13  C   UNK N   1      30.348  17.169   6.210  0.00  0.00     0.038 A 
HETATM   14  C   UNK N   1      29.471  17.660   7.181  0.00  0.00     0.068 A 
HETATM   15  C   UNK N   1      29.982  18.085   8.421  0.00  0.00     0.038 A 
HETATM   16  C   UNK N   1      31.355  18.026   8.674  0.00  0.00     0.026 A 
BRANCH  14  17
HETATM   17  O   UNK N   1      28.148  17.717   6.900  0.00  0.00    -0.356 OA
HETATM   18  C   UNK N   1      27.425  16.634   6.454  0.00  0.00     0.210 C 
ENDBRANCH  14  17
ENDBRANCH   8  11
ENDBRANCH   7   8
ENDBRANCH   6   7
BRANCH   1  19
HETATM   19  C   UNK N   1      36.864  14.454  10.347  0.00  0.00     0.222 C 
HETATM   20  N   UNK N   1      36.924  14.591  11.694  0.00  0.00    -0.359 N 
HETATM   21  H   UNK N   1      37.770  14.910  12.084  0.00  0.00     0.162 HD
HETATM   22  O   UNK N   1      37.846  14.768   9.691  0.00  0.00    -0.273 OA
BRANCH  20  23
HETATM   23  C   UNK N   1      35.839  14.304  12.596  0.00  0.00     0.141 C 
BRANCH  23  24
HETATM   24  C   UNK N   1      36.362  14.331  14.023  0.00  0.00     0.130 C 
BRANCH  24  25
HETATM   25  N   UNK N   1      37.217  13.179  14.263  0.00  0.00    -0.429 N 
HETATM   26  H   UNK N   1      37.059  12.588  15.079  0.00  0.00     0.149 HD
HETATM   27  H   UNK N   1      37.974  12.962  13.615  0.00  0.00     0.149 HD
ENDBRANCH  24  25
ENDBRANCH  23  24
ENDBRANCH  20  23
ENDBRANCH   1  19
TORSDOF 8
ENDMDL
MODEL 6
REMARK VINA RESULT:      -6.0      3.384      7.641
REMARK  8 active torsions:
REMARK  status: ('A' for Active; 'I' for Inactive)
REMARK    1  A    between atoms: C_2  and  O_7 
REMARK    2  A    between atoms: C_6  and  S_19 
REMARK    3  A    between atoms: C_8  and  N_9 
REMARK    4  A    between atoms: C_8  and  C_23 
REMARK       I    between atoms: N_9  and  C_10 
REMARK    5  A    between atoms: C_12  and  C_10 
REMARK    6  A    between atoms: C_17  and  C_18 
REMARK    7  A    between atoms: C_18  and  S_19 
REMARK    8  A    between atoms: C_23  and  N_24 
ROOT
HETATM    1  C   UNK N   1      27.713  16.896   6.290  0.00  0.00     0.083 C 
HETATM    2  C   UNK N   1      26.724  15.788   6.686  0.00  0.00     0.014 C 
HETATM    3  C   UNK N   1      26.655  14.634   5.669  0.00  0.00     0.001 C 
HETATM    4  C   UNK N   1      27.152  15.028   4.275  0.00  0.00     0.000 C 
HETATM    5  C   UNK N   1      28.577  15.613   4.289  0.00  0.00     0.006 C 
HETATM    6  C   UNK N   1      28.965  16.268   5.626  0.00  0.00     0.013 C 
ENDROOT
BRANCH   6   7
HETATM    7  C   UNK N   1      30.157  17.221   5.441  0.00  0.00     0.151 C 
BRANCH   7   8
HETATM    8  S   UNK N   1      31.850  16.550   5.641  0.00  0.00     0.175 S 
HETATM    9  O   UNK N   1      31.911  15.068   5.253  0.00  0.00    -0.223 OA
HETATM   10  O   UNK N   1      32.602  17.092   4.415  0.00  0.00    -0.223 OA
BRANCH   8  11
HETATM   11  C   UNK N   1      32.982  16.767   7.005  0.00  0.00     0.059 A 
HETATM   12  C   UNK N   1      33.129  15.759   7.966  0.00  0.00     0.026 A 
HETATM   13  C   UNK N   1      33.976  15.951   9.060  0.00  0.00     0.038 A 
HETATM   14  C   UNK N   1      34.678  17.151   9.206  0.00  0.00     0.068 A 
HETATM   15  C   UNK N   1      34.532  18.160   8.236  0.00  0.00     0.038 A 
HETATM   16  C   UNK N   1      33.684  17.967   7.142  0.00  0.00     0.026 A 
BRANCH  14  17
HETATM   17  O   UNK N   1      35.481  17.313  10.283  0.00  0.00    -0.356 OA
HETATM   18  C   UNK N   1      35.634  16.355  11.260  0.00  0.00     0.210 C 
ENDBRANCH  14  17
ENDBRANCH   8  11
ENDBRANCH   7   8
ENDBRANCH   6   7
BRANCH   1  19
HETATM   19  C   UNK N   1      28.018  17.821   7.458  0.00  0.00     0.222 C 
HETATM   20  N   UNK N   1      27.744  19.149   7.454  0.00  0.00    -0.359 N 
HETATM   21  H   UNK N   1      27.938  19.659   8.273  0.00  0.00     0.162 HD
HETATM   22  O   UNK N   1      28.523  17.339   8.460  0.00  0.00    -0.273 OA
BRANCH  20  23
HETATM   23  C   UNK N   1      27.189  19.869   6.337  0.00  0.00     0.141 C 
BRANCH  23  24
HETATM   24  C   UNK N   1      26.702  21.226   6.815  0.00  0.00     0.130 C 
BRANCH  24  25
HETATM   25  N   UNK N   1      25.877  21.070   8.002  0.00  0.00    -0.429 N 
HETATM   26  H   UNK N   1      26.087  21.607   8.844  0.00  0.00     0.149 HD
HETATM   27  H   UNK N   1      25.087  20.423   7.993  0.00  0.00     0.149 HD
ENDBRANCH  24  25
ENDBRANCH  23  24
ENDBRANCH  20  23
ENDBRANCH   1  19
TORSDOF 8
ENDMDL
MODEL 7
REMARK VINA RESULT:      -6.0      3.358      7.836
REMARK  8 active torsions:
REMARK  status: ('A' for Active; 'I' for Inactive)
REMARK    1  A    between atoms: C_2  and  O_7 
REMARK    2  A    between atoms: C_6  and  S_19 
REMARK    3  A    between atoms: C_8  and  N_9 
REMARK    4  A    between atoms: C_8  and  C_23 
REMARK       I    between atoms: N_9  and  C_10 
REMARK    5  A    between atoms: C_12  and  C_10 
REMARK    6  A    between atoms: C_17  and  C_18 
REMARK    7  A    between atoms: C_18  and  S_19 
REMARK    8  A    between atoms: C_23  and  N_24 
ROOT
HETATM    1  C   UNK N   1      29.912  16.916   6.456  0.00  0.00     0.083 C 
HETATM    2  C   UNK N   1      28.765  17.795   6.980  0.00  0.00     0.014 C 
HETATM    3  C   UNK N   1      29.062  18.443   8.344  0.00  0.00     0.001 C 
HETATM    4  C   UNK N   1      30.155  17.716   9.133  0.00  0.00     0.000 C 
HETATM    5  C   UNK N   1      31.467  17.567   8.340  0.00  0.00     0.006 C 
HETATM    6  C   UNK N   1      31.274  17.564   6.814  0.00  0.00     0.013 C 
ENDROOT
BRANCH   6   7
HETATM    7  C   UNK N   1      32.496  16.953   6.110  0.00  0.00     0.151 C 
BRANCH   7   8
HETATM    8  S   UNK N   1      34.043  16.749   7.068  0.00  0.00     0.175 S 
HETATM    9  O   UNK N   1      35.172  16.192   6.192  0.00  0.00    -0.223 OA
HETATM   10  O   UNK N   1      34.591  18.181   7.184  0.00  0.00    -0.223 OA
BRANCH   8  11
HETATM   11  C   UNK N   1      34.265  16.042   8.694  0.00  0.00     0.059 A 
HETATM   12  C   UNK N   1      34.913  16.771   9.698  0.00  0.00     0.026 A 
HETATM   13  C   UNK N   1      35.132  16.198  10.951  0.00  0.00     0.038 A 
HETATM   14  C   UNK N   1      34.711  14.890  11.213  0.00  0.00     0.068 A 
HETATM   15  C   UNK N   1      34.056  14.161  10.202  0.00  0.00     0.038 A 
HETATM   16  C   UNK N   1      33.838  14.736   8.948  0.00  0.00     0.026 A 
BRANCH  14  17
HETATM   17  O   UNK N   1      34.949  14.357  12.433  0.00  0.00    -0.356 OA
HETATM   18  C   UNK N   1      36.143  14.508  13.102  0.00  0.00     0.210 C 
ENDBRANCH  14  17
ENDBRANCH   8  11
ENDBRANCH   7   8
ENDBRANCH   6   7
BRANCH   1  19
HETATM   19  C   UNK N   1      29.740  16.589   4.980  0.00  0.00     0.222 C 
HETATM   20  N   UNK N   1      29.812  15.332   4.478  0.00  0.00    -0.359 N 
HETATM   21  H   UNK N   1      29.644  15.213   3.515  0.00  0.00     0.162 HD
HETATM   22  O   UNK N   1      29.510  17.507   4.207  0.00  0.00    -0.273 OA
BRANCH  20  23
HETATM   23  C   UNK N   1      30.115  14.156   5.252  0.00  0.00     0.141 C 
BRANCH  23  24
HETATM   24  C   UNK N   1      31.483  13.634   4.845  0.00  0.00     0.130 C 
BRANCH  24  25
HETATM   25  N   UNK N   1      32.056  12.843   5.922  0.00  0.00    -0.429 N 
HETATM   26  H   UNK N   1      32.090  11.826   5.847  0.00  0.00     0.149 HD
HETATM   27  H   UNK N   1      32.425  13.305   6.754  0.00  0.00     0.149 HD
ENDBRANCH  24  25
ENDBRANCH  23  24
ENDBRANCH  20  23
ENDBRANCH   1  19
TORSDOF 8
ENDMDL
MODEL 8
REMARK VINA RESULT:      -5.9      5.418      9.336
REMARK  8 active torsions:
REMARK  status: ('A' for Active; 'I' for Inactive)
REMARK    1  A    between atoms: C_2  and  O_7 
REMARK    2  A    between atoms: C_6  and  S_19 
REMARK    3  A    between atoms: C_8  and  N_9 
REMARK    4  A    between atoms: C_8  and  C_23 
REMARK       I    between atoms: N_9  and  C_10 
REMARK    5  A    between atoms: C_12  and  C_10 
REMARK    6  A    between atoms: C_17  and  C_18 
REMARK    7  A    between atoms: C_18  and  S_19 
REMARK    8  A    between atoms: C_23  and  N_24 
ROOT
HETATM    1  C   UNK N   1      22.882  17.242   4.802  0.00  0.00     0.083 C 
HETATM    2  C   UNK N   1      22.624  15.892   5.491  0.00  0.00     0.014 C 
HETATM    3  C   UNK N   1      23.772  14.882   5.314  0.00  0.00     0.001 C 
HETATM    4  C   UNK N   1      24.669  15.194   4.112  0.00  0.00     0.000 C 
HETATM    5  C   UNK N   1      25.244  16.622   4.148  0.00  0.00     0.006 C 
HETATM    6  C   UNK N   1      24.379  17.620   4.936  0.00  0.00     0.013 C 
ENDROOT
BRANCH   6   7
HETATM    7  C   UNK N   1      24.726  19.067   4.551  0.00  0.00     0.151 C 
BRANCH   7   8
HETATM    8  S   UNK N   1      26.414  19.684   4.908  0.00  0.00     0.175 S 
HETATM    9  O   UNK N   1      27.113  20.162   3.630  0.00  0.00    -0.223 OA
HETATM   10  O   UNK N   1      26.171  21.075   5.515  0.00  0.00    -0.223 OA
BRANCH   8  11
HETATM   11  C   UNK N   1      27.677  18.950   5.936  0.00  0.00     0.059 A 
HETATM   12  C   UNK N   1      28.517  17.956   5.419  0.00  0.00     0.026 A 
HETATM   13  C   UNK N   1      29.468  17.347   6.238  0.00  0.00     0.038 A 
HETATM   14  C   UNK N   1      29.587  17.720   7.580  0.00  0.00     0.068 A 
HETATM   15  C   UNK N   1      28.744  18.722   8.095  0.00  0.00     0.038 A 
HETATM   16  C   UNK N   1      27.792  19.331   7.275  0.00  0.00     0.026 A 
BRANCH  14  17
HETATM   17  O   UNK N   1      30.510  17.102   8.353  0.00  0.00    -0.356 OA
HETATM   18  C   UNK N   1      31.838  17.464   8.377  0.00  0.00     0.210 C 
ENDBRANCH  14  17
ENDBRANCH   8  11
ENDBRANCH   7   8
ENDBRANCH   6   7
BRANCH   1  19
HETATM   19  C   UNK N   1      21.917  18.314   5.285  0.00  0.00     0.222 C 
HETATM   20  N   UNK N   1      21.150  19.062   4.454  0.00  0.00    -0.359 N 
HETATM   21  H   UNK N   1      20.523  19.702   4.862  0.00  0.00     0.162 HD
HETATM   22  O   UNK N   1      21.814  18.500   6.488  0.00  0.00    -0.273 OA
BRANCH  20  23
HETATM   23  C   UNK N   1      21.187  18.989   3.016  0.00  0.00     0.141 C 
BRANCH  23  24
HETATM   24  C   UNK N   1      20.993  20.384   2.444  0.00  0.00     0.130 C 
BRANCH  24  25
HETATM   25  N   UNK N   1      20.629  20.300   1.039  0.00  0.00    -0.429 N 
HETATM   26  H   UNK N   1      19.661  20.118   0.773  0.00  0.00     0.149 HD
HETATM   27  H   UNK N   1      21.341  20.425   0.319  0.00  0.00     0.149 HD
ENDBRANCH  24  25
ENDBRANCH  23  24
ENDBRANCH  20  23
ENDBRANCH   1  19
TORSDOF 8
ENDMDL
MODEL 9
REMARK VINA RESULT:      -5.7     12.971     16.179
REMARK  8 active torsions:
REMARK  status: ('A' for Active; 'I' for Inactive)
REMARK    1  A    between atoms: C_2  and  O_7 
REMARK    2  A    between atoms: C_6  and  S_19 
REMARK    3  A    between atoms: C_8  and  N_9 
REMARK    4  A    between atoms: C_8  and  C_23 
REMARK       I    between atoms: N_9  and  C_10 
REMARK    5  A    between atoms: C_12  and  C_10 
REMARK    6  A    between atoms: C_17  and  C_18 
REMARK    7  A    between atoms: C_18  and  S_19 
REMARK    8  A    between atoms: C_23  and  N_24 
ROOT
HETATM    1  C   UNK N   1      26.864  25.392  -4.281  0.00  0.00     0.083 C 
HETATM    2  C   UNK N   1      26.543  26.580  -3.360  0.00  0.00     0.014 C 
HETATM    3  C   UNK N   1      25.594  27.612  -3.998  0.00  0.00     0.001 C 
HETATM    4  C   UNK N   1      25.571  27.545  -5.528  0.00  0.00     0.000 C 
HETATM    5  C   UNK N   1      25.232  26.141  -6.061  0.00  0.00     0.006 C 
HETATM    6  C   UNK N   1      25.603  25.003  -5.094  0.00  0.00     0.013 C 
ENDROOT
BRANCH   6   7
HETATM    7  C   UNK N   1      25.690  23.661  -5.838  0.00  0.00     0.151 C 
BRANCH   7   8
HETATM    8  S   UNK N   1      26.112  23.676  -7.620  0.00  0.00     0.175 S 
HETATM    9  O   UNK N   1      26.772  22.360  -8.047  0.00  0.00    -0.223 OA
HETATM   10  O   UNK N   1      24.762  23.438  -8.315  0.00  0.00    -0.223 OA
BRANCH   8  11
HETATM   11  C   UNK N   1      26.895  24.970  -8.571  0.00  0.00     0.059 A 
HETATM   12  C   UNK N   1      28.141  25.475  -8.183  0.00  0.00     0.026 A 
HETATM   13  C   UNK N   1      28.727  26.522  -8.897  0.00  0.00     0.038 A 
HETATM   14  C   UNK N   1      28.073  27.077 -10.001  0.00  0.00     0.068 A 
HETATM   15  C   UNK N   1      26.821  26.563 -10.391  0.00  0.00     0.038 A 
HETATM   16  C   UNK N   1      26.236  25.517  -9.675  0.00  0.00     0.026 A 
BRANCH  14  17
HETATM   17  O   UNK N   1      28.659  28.099 -10.665  0.00  0.00    -0.356 OA
HETATM   18  C   UNK N   1      29.859  28.657 -10.283  0.00  0.00     0.210 C 
ENDBRANCH  14  17
ENDBRANCH   8  11
ENDBRANCH   7   8
ENDBRANCH   6   7
BRANCH   1  19
HETATM   19  C   UNK N   1      27.497  24.241  -3.514  0.00  0.00     0.222 C 
HETATM   20  N   UNK N   1      28.667  23.656  -3.869  0.00  0.00    -0.359 N 
HETATM   21  H   UNK N   1      29.020  22.947  -3.285  0.00  0.00     0.162 HD
HETATM   22  O   UNK N   1      26.927  23.831  -2.514  0.00  0.00    -0.273 OA
BRANCH  20  23
HETATM   23  C   UNK N   1      29.433  23.999  -5.039  0.00  0.00     0.141 C 
BRANCH  23  24
HETATM   24  C   UNK N   1      30.867  24.289  -4.626  0.00  0.00     0.130 C 
BRANCH  24  25
HETATM   25  N   UNK N   1      31.140  23.696  -3.326  0.00  0.00    -0.429 N 
HETATM   26  H   UNK N   1      30.742  22.789  -3.085  0.00  0.00     0.149 HD
HETATM   27  H   UNK N   1      31.732  24.189  -2.655  0.00  0.00     0.149 HD
ENDBRANCH  24  25
ENDBRANCH  23  24
ENDBRANCH  20  23
ENDBRANCH   1  19
TORSDOF 8
ENDMDL
