REMARK  8 active torsions:
REMARK  status: ('A' for Active; 'I' for Inactive)
REMARK    1  A    between atoms: C_2  and  N_1 
REMARK    2  A    between atoms: C_2  and  C_3 
REMARK    3  A    between atoms: C_2  and  C_10 
REMARK    4  A    between atoms: C_3  and  C_4 
REMARK    5  A    between atoms: C_10  and  O_11 
REMARK    6  A    between atoms: C_10  and  C_12 
REMARK    7  A    between atoms: C_12  and  O_14 
REMARK    8  A    between atoms: O_14  and  C_15 
ROOT
HETATM    1  C   UNK N   1      -0.365   0.465  -0.399  0.00  0.00     0.113 C 
ENDROOT
BRANCH   1   2
HETATM    2  N   UNK N   1      -0.568  -0.051   0.947  0.00  0.00    -0.423 N 
HETATM    3  H   UNK N   1      -0.953  -0.109   1.891  0.00  0.00     0.150 HD
HETATM    4  H   UNK N   1       0.067  -0.849   0.947  0.00  0.00     0.150 HD
ENDBRANCH   1   2
BRANCH   1   5
HETATM    5  C   UNK N   1      -1.549   1.342  -0.833  0.00  0.00     0.032 C 
BRANCH   5   6
HETATM    6  C   UNK N   1      -2.936   0.692  -0.798  0.00  0.00    -0.013 C 
HETATM    7  C   UNK N   1      -2.971  -0.799  -1.190  0.00  0.00     0.005 C 
HETATM    8  C   UNK N   1      -3.233  -1.689   0.025  0.00  0.00     0.000 C 
HETATM    9  C   UNK N   1      -4.566  -1.333   0.703  0.00  0.00     0.000 C 
HETATM   10  C   UNK N   1      -4.921   0.159   0.626  0.00  0.00     0.000 C 
HETATM   11  C   UNK N   1      -3.666   1.015   0.508  0.00  0.00     0.005 C 
ENDBRANCH   5   6
ENDBRANCH   1   5
BRANCH   1  12
HETATM   12  C   UNK N   1       0.928   1.295  -0.464  0.00  0.00     0.239 C 
BRANCH  12  13
HETATM   13  O   UNK N   1       0.912   2.283   0.527  0.00  0.00    -0.383 OA
HETATM   14  H   UNK N   1       1.500   2.635   1.214  0.00  0.00     0.210 HD
ENDBRANCH  12  13
BRANCH  12  15
HETATM   15  C   UNK N   1       2.161   0.441  -0.334  0.00  0.00     0.290 C 
HETATM   16  O   UNK N   1       2.384  -0.416  -1.183  0.00  0.00    -0.262 OA
BRANCH  15  17
HETATM   17  O   UNK N   1       3.043   0.654   0.681  0.00  0.00    -0.315 OA
BRANCH  17  18
HETATM   18  C   UNK N   1       4.318   0.113   0.752  0.00  0.00     0.123 C 
HETATM   19  C   UNK N   1       5.206   0.664  -0.352  0.00  0.00     0.040 C 
HETATM   20  C   UNK N   1       4.307  -1.408   0.725  0.00  0.00     0.040 C 
ENDBRANCH  17  18
ENDBRANCH  15  17
ENDBRANCH  12  15
ENDBRANCH   1  12
TORSDOF 8
