MODEL 1
REMARK VINA RESULT:      -5.6      0.000      0.000
REMARK  8 active torsions:
REMARK  status: ('A' for Active; 'I' for Inactive)
REMARK    1  A    between atoms: C_2  and  N_1 
REMARK    2  A    between atoms: C_2  and  C_3 
REMARK    3  A    between atoms: C_2  and  C_10 
REMARK    4  A    between atoms: C_3  and  C_4 
REMARK    5  A    between atoms: C_10  and  O_11 
REMARK    6  A    between atoms: C_10  and  C_12 
REMARK    7  A    between atoms: C_12  and  O_14 
REMARK    8  A    between atoms: O_14  and  C_15 
ROOT
HETATM    1  C   UNK N   1      29.876  18.069   8.826  0.00  0.00     0.113 C 
ENDROOT
BRANCH   1   2
HETATM    2  N   UNK N   1      29.822  18.755  10.109  0.00  0.00    -0.423 N 
HETATM    3  H   UNK N   1      30.067  18.978  11.074  0.00  0.00     0.150 HD
HETATM    4  H   UNK N   1      29.078  19.432   9.936  0.00  0.00     0.150 HD
ENDBRANCH   1   2
BRANCH   1   5
HETATM    5  C   UNK N   1      30.600  16.721   8.957  0.00  0.00     0.032 C 
BRANCH   5   6
HETATM    6  C   UNK N   1      31.982  16.616   8.303  0.00  0.00    -0.013 C 
HETATM    7  C   UNK N   1      32.029  15.798   6.997  0.00  0.00     0.005 C 
HETATM    8  C   UNK N   1      32.235  16.701   5.781  0.00  0.00     0.000 C 
HETATM    9  C   UNK N   1      33.539  17.508   5.897  0.00  0.00     0.000 C 
HETATM   10  C   UNK N   1      33.902  17.894   7.338  0.00  0.00     0.000 C 
HETATM   11  C   UNK N   1      32.656  17.987   8.210  0.00  0.00     0.005 C 
ENDBRANCH   5   6
ENDBRANCH   1   5
BRANCH   1  12
HETATM   12  C   UNK N   1      28.456  17.829   8.287  0.00  0.00     0.239 C 
BRANCH  12  13
HETATM   13  O   UNK N   1      27.519  18.462   9.111  0.00  0.00    -0.383 OA
HETATM   14  H   UNK N   1      26.840  19.152   9.046  0.00  0.00     0.210 HD
ENDBRANCH  12  13
BRANCH  12  15
HETATM   15  C   UNK N   1      28.300  18.292   6.863  0.00  0.00     0.290 C 
HETATM   16  O   UNK N   1      28.970  17.756   5.986  0.00  0.00    -0.262 OA
BRANCH  15  17
HETATM   17  O   UNK N   1      27.390  19.254   6.547  0.00  0.00    -0.315 OA
BRANCH  17  18
HETATM   18  C   UNK N   1      27.640  20.346   5.729  0.00  0.00     0.123 C 
HETATM   19  C   UNK N   1      27.088  21.623   6.341  0.00  0.00     0.040 C 
HETATM   20  C   UNK N   1      27.105  20.150   4.318  0.00  0.00     0.040 C 
ENDBRANCH  17  18
ENDBRANCH  15  17
ENDBRANCH  12  15
ENDBRANCH   1  12
TORSDOF 8
ENDMDL
MODEL 2
REMARK VINA RESULT:      -5.5      0.897      1.672
REMARK  8 active torsions:
REMARK  status: ('A' for Active; 'I' for Inactive)
REMARK    1  A    between atoms: C_2  and  N_1 
REMARK    2  A    between atoms: C_2  and  C_3 
REMARK    3  A    between atoms: C_2  and  C_10 
REMARK    4  A    between atoms: C_3  and  C_4 
REMARK    5  A    between atoms: C_10  and  O_11 
REMARK    6  A    between atoms: C_10  and  C_12 
REMARK    7  A    between atoms: C_12  and  O_14 
REMARK    8  A    between atoms: O_14  and  C_15 
ROOT
HETATM    1  C   UNK N   1      29.760  18.275   8.856  0.00  0.00     0.113 C 
ENDROOT
BRANCH   1   2
HETATM    2  N   UNK N   1      29.824  18.670  10.256  0.00  0.00    -0.423 N 
HETATM    3  H   UNK N   1      29.687  19.253  11.083  0.00  0.00     0.150 HD
HETATM    4  H   UNK N   1      30.302  17.865  10.662  0.00  0.00     0.150 HD
ENDBRANCH   1   2
BRANCH   1   5
HETATM    5  C   UNK N   1      30.882  17.283   8.515  0.00  0.00     0.032 C 
BRANCH   5   6
HETATM    6  C   UNK N   1      31.904  17.733   7.466  0.00  0.00    -0.013 C 
HETATM    7  C   UNK N   1      33.373  17.716   7.932  0.00  0.00     0.005 C 
HETATM    8  C   UNK N   1      34.156  16.582   7.269  0.00  0.00     0.000 C 
HETATM    9  C   UNK N   1      34.133  16.708   5.737  0.00  0.00     0.000 C 
HETATM   10  C   UNK N   1      32.832  17.305   5.184  0.00  0.00     0.000 C 
HETATM   11  C   UNK N   1      31.663  17.037   6.124  0.00  0.00     0.005 C 
ENDBRANCH   5   6
ENDBRANCH   1   5
BRANCH   1  12
HETATM   12  C   UNK N   1      28.401  17.626   8.545  0.00  0.00     0.239 C 
BRANCH  12  13
HETATM   13  O   UNK N   1      27.408  18.186   9.357  0.00  0.00    -0.383 OA
HETATM   14  H   UNK N   1      27.109  18.139  10.279  0.00  0.00     0.210 HD
ENDBRANCH  12  13
BRANCH  12  15
HETATM   15  C   UNK N   1      28.026  17.755   7.093  0.00  0.00     0.290 C 
HETATM   16  O   UNK N   1      27.381  16.857   6.562  0.00  0.00    -0.262 OA
BRANCH  15  17
HETATM   17  O   UNK N   1      28.352  18.877   6.394  0.00  0.00    -0.315 OA
BRANCH  17  18
HETATM   18  C   UNK N   1      27.441  19.717   5.771  0.00  0.00     0.123 C 
HETATM   19  C   UNK N   1      27.665  19.745   4.268  0.00  0.00     0.040 C 
HETATM   20  C   UNK N   1      27.463  21.126   6.345  0.00  0.00     0.040 C 
ENDBRANCH  17  18
ENDBRANCH  15  17
ENDBRANCH  12  15
ENDBRANCH   1  12
TORSDOF 8
ENDMDL
MODEL 3
REMARK VINA RESULT:      -5.5      8.237     11.458
REMARK  8 active torsions:
REMARK  status: ('A' for Active; 'I' for Inactive)
REMARK    1  A    between atoms: C_2  and  N_1 
REMARK    2  A    between atoms: C_2  and  C_3 
REMARK    3  A    between atoms: C_2  and  C_10 
REMARK    4  A    between atoms: C_3  and  C_4 
REMARK    5  A    between atoms: C_10  and  O_11 
REMARK    6  A    between atoms: C_10  and  C_12 
REMARK    7  A    between atoms: C_12  and  O_14 
REMARK    8  A    between atoms: O_14  and  C_15 
ROOT
HETATM    1  C   UNK N   1      20.068  18.337   2.001  0.00  0.00     0.113 C 
ENDROOT
BRANCH   1   2
HETATM    2  N   UNK N   1      18.697  18.677   2.355  0.00  0.00    -0.423 N 
HETATM    3  H   UNK N   1      17.763  19.075   2.250  0.00  0.00     0.150 HD
HETATM    4  H   UNK N   1      18.626  18.254   3.280  0.00  0.00     0.150 HD
ENDBRANCH   1   2
BRANCH   1   5
HETATM    5  C   UNK N   1      20.104  17.434   0.759  0.00  0.00     0.032 C 
BRANCH   5   6
HETATM    6  C   UNK N   1      20.371  15.945   0.999  0.00  0.00    -0.013 C 
HETATM    7  C   UNK N   1      20.755  15.573   2.445  0.00  0.00     0.005 C 
HETATM    8  C   UNK N   1      19.624  14.823   3.148  0.00  0.00     0.000 C 
HETATM    9  C   UNK N   1      19.254  13.534   2.396  0.00  0.00     0.000 C 
HETATM   10  C   UNK N   1      19.412  13.639   0.872  0.00  0.00     0.000 C 
HETATM   11  C   UNK N   1      19.257  15.080   0.404  0.00  0.00     0.005 C 
ENDBRANCH   5   6
ENDBRANCH   1   5
BRANCH   1  12
HETATM   12  C   UNK N   1      20.879  19.613   1.720  0.00  0.00     0.239 C 
BRANCH  12  13
HETATM   13  O   UNK N   1      20.138  20.483   0.911  0.00  0.00    -0.383 OA
HETATM   14  H   UNK N   1      20.235  21.358   0.503  0.00  0.00     0.210 HD
ENDBRANCH  12  13
BRANCH  12  15
HETATM   15  C   UNK N   1      21.305  20.309   2.986  0.00  0.00     0.290 C 
HETATM   16  O   UNK N   1      20.474  20.499   3.869  0.00  0.00    -0.262 OA
BRANCH  15  17
HETATM   17  O   UNK N   1      22.604  20.671   3.170  0.00  0.00    -0.315 OA
BRANCH  17  18
HETATM   18  C   UNK N   1      23.688  19.810   3.086  0.00  0.00     0.123 C 
HETATM   19  C   UNK N   1      23.758  18.901   4.302  0.00  0.00     0.040 C 
HETATM   20  C   UNK N   1      25.004  20.549   2.890  0.00  0.00     0.040 C 
ENDBRANCH  17  18
ENDBRANCH  15  17
ENDBRANCH  12  15
ENDBRANCH   1  12
TORSDOF 8
ENDMDL
MODEL 4
REMARK VINA RESULT:      -5.4      6.834      8.585
REMARK  8 active torsions:
REMARK  status: ('A' for Active; 'I' for Inactive)
REMARK    1  A    between atoms: C_2  and  N_1 
REMARK    2  A    between atoms: C_2  and  C_3 
REMARK    3  A    between atoms: C_2  and  C_10 
REMARK    4  A    between atoms: C_3  and  C_4 
REMARK    5  A    between atoms: C_10  and  O_11 
REMARK    6  A    between atoms: C_10  and  C_12 
REMARK    7  A    between atoms: C_12  and  O_14 
REMARK    8  A    between atoms: O_14  and  C_15 
ROOT
HETATM    1  C   UNK N   1      36.059  14.288  11.335  0.00  0.00     0.113 C 
ENDROOT
BRANCH   1   2
HETATM    2  N   UNK N   1      37.230  14.975  10.808  0.00  0.00    -0.423 N 
HETATM    3  H   UNK N   1      38.018  15.162  10.185  0.00  0.00     0.150 HD
HETATM    4  H   UNK N   1      37.317  15.746  11.469  0.00  0.00     0.150 HD
ENDBRANCH   1   2
BRANCH   1   5
HETATM    5  C   UNK N   1      35.935  14.504  12.850  0.00  0.00     0.032 C 
BRANCH   5   6
HETATM    6  C   UNK N   1      36.159  13.278  13.741  0.00  0.00    -0.013 C 
HETATM    7  C   UNK N   1      36.780  13.574  15.121  0.00  0.00     0.005 C 
HETATM    8  C   UNK N   1      35.757  13.399  16.242  0.00  0.00     0.000 C 
HETATM    9  C   UNK N   1      35.187  11.971  16.262  0.00  0.00     0.000 C 
HETATM   10  C   UNK N   1      35.070  11.331  14.871  0.00  0.00     0.000 C 
HETATM   11  C   UNK N   1      34.910  12.394  13.791  0.00  0.00     0.005 C 
ENDBRANCH   5   6
ENDBRANCH   1   5
BRANCH   1  12
HETATM   12  C   UNK N   1      34.784  14.801  10.646  0.00  0.00     0.239 C 
BRANCH  12  13
HETATM   13  O   UNK N   1      33.718  14.801  11.552  0.00  0.00    -0.383 OA
HETATM   14  H   UNK N   1      32.981  14.225  11.810  0.00  0.00     0.210 HD
ENDBRANCH  12  13
BRANCH  12  15
HETATM   15  C   UNK N   1      34.968  16.173  10.053  0.00  0.00     0.290 C 
HETATM   16  O   UNK N   1      35.179  17.122  10.801  0.00  0.00    -0.262 OA
BRANCH  15  17
HETATM   17  O   UNK N   1      34.955  16.347   8.702  0.00  0.00    -0.315 OA
BRANCH  17  18
HETATM   18  C   UNK N   1      33.890  16.861   7.978  0.00  0.00     0.123 C 
HETATM   19  C   UNK N   1      33.990  18.373   7.859  0.00  0.00     0.040 C 
HETATM   20  C   UNK N   1      32.543  16.455   8.557  0.00  0.00     0.040 C 
ENDBRANCH  17  18
ENDBRANCH  15  17
ENDBRANCH  12  15
ENDBRANCH   1  12
TORSDOF 8
ENDMDL
MODEL 5
REMARK VINA RESULT:      -5.4     12.774     15.479
REMARK  8 active torsions:
REMARK  status: ('A' for Active; 'I' for Inactive)
REMARK    1  A    between atoms: C_2  and  N_1 
REMARK    2  A    between atoms: C_2  and  C_3 
REMARK    3  A    between atoms: C_2  and  C_10 
REMARK    4  A    between atoms: C_3  and  C_4 
REMARK    5  A    between atoms: C_10  and  O_11 
REMARK    6  A    between atoms: C_10  and  C_12 
REMARK    7  A    between atoms: C_12  and  O_14 
REMARK    8  A    between atoms: O_14  and  C_15 
ROOT
HETATM    1  C   UNK N   1      25.982  25.525  -6.093  0.00  0.00     0.113 C 
ENDROOT
BRANCH   1   2
HETATM    2  N   UNK N   1      25.857  25.042  -7.460  0.00  0.00    -0.423 N 
HETATM    3  H   UNK N   1      25.494  24.977  -8.412  0.00  0.00     0.150 HD
HETATM    4  H   UNK N   1      26.582  24.325  -7.480  0.00  0.00     0.150 HD
ENDBRANCH   1   2
BRANCH   1   5
HETATM    5  C   UNK N   1      25.018  26.693  -5.835  0.00  0.00     0.032 C 
BRANCH   5   6
HETATM    6  C   UNK N   1      25.622  27.964  -5.229  0.00  0.00    -0.013 C 
HETATM    7  C   UNK N   1      25.645  28.008  -3.688  0.00  0.00     0.005 C 
HETATM    8  C   UNK N   1      27.066  27.848  -3.146  0.00  0.00     0.000 C 
HETATM    9  C   UNK N   1      27.995  28.952  -3.678  0.00  0.00     0.000 C 
HETATM   10  C   UNK N   1      27.655  29.415  -5.102  0.00  0.00     0.000 C 
HETATM   11  C   UNK N   1      26.961  28.308  -5.887  0.00  0.00     0.005 C 
ENDBRANCH   5   6
ENDBRANCH   1   5
BRANCH   1  12
HETATM   12  C   UNK N   1      25.681  24.393  -5.096  0.00  0.00     0.239 C 
BRANCH  12  13
HETATM   13  O   UNK N   1      25.448  23.198  -5.787  0.00  0.00    -0.383 OA
HETATM   14  H   UNK N   1      24.935  22.382  -5.676  0.00  0.00     0.210 HD
ENDBRANCH  12  13
BRANCH  12  15
HETATM   15  C   UNK N   1      26.786  24.211  -4.090  0.00  0.00     0.290 C 
HETATM   16  O   UNK N   1      26.495  24.039  -2.911  0.00  0.00    -0.262 OA
BRANCH  15  17
HETATM   17  O   UNK N   1      28.086  24.183  -4.492  0.00  0.00    -0.315 OA
BRANCH  17  18
HETATM   18  C   UNK N   1      29.098  24.973  -3.965  0.00  0.00     0.123 C 
HETATM   19  C   UNK N   1      29.702  25.868  -5.035  0.00  0.00     0.040 C 
HETATM   20  C   UNK N   1      30.178  24.152  -3.276  0.00  0.00     0.040 C 
ENDBRANCH  17  18
ENDBRANCH  15  17
ENDBRANCH  12  15
ENDBRANCH   1  12
TORSDOF 8
ENDMDL
MODEL 6
REMARK VINA RESULT:      -5.3      4.230      6.470
REMARK  8 active torsions:
REMARK  status: ('A' for Active; 'I' for Inactive)
REMARK    1  A    between atoms: C_2  and  N_1 
REMARK    2  A    between atoms: C_2  and  C_3 
REMARK    3  A    between atoms: C_2  and  C_10 
REMARK    4  A    between atoms: C_3  and  C_4 
REMARK    5  A    between atoms: C_10  and  O_11 
REMARK    6  A    between atoms: C_10  and  C_12 
REMARK    7  A    between atoms: C_12  and  O_14 
REMARK    8  A    between atoms: O_14  and  C_15 
ROOT
HETATM    1  C   UNK N   1      32.572  16.897   7.240  0.00  0.00     0.113 C 
ENDROOT
BRANCH   1   2
HETATM    2  N   UNK N   1      31.963  17.505   8.415  0.00  0.00    -0.423 N 
HETATM    3  H   UNK N   1      31.496  18.217   8.978  0.00  0.00     0.150 HD
HETATM    4  H   UNK N   1      32.066  16.754   9.097  0.00  0.00     0.150 HD
ENDBRANCH   1   2
BRANCH   1   5
HETATM    5  C   UNK N   1      31.969  17.475   5.951  0.00  0.00     0.032 C 
BRANCH   5   6
HETATM    6  C   UNK N   1      31.649  16.477   4.833  0.00  0.00    -0.013 C 
HETATM    7  C   UNK N   1      32.138  16.887   3.429  0.00  0.00     0.005 C 
HETATM    8  C   UNK N   1      33.319  16.028   2.978  0.00  0.00     0.000 C 
HETATM    9  C   UNK N   1      32.947  14.536   2.947  0.00  0.00     0.000 C 
HETATM   10  C   UNK N   1      31.939  14.127   4.031  0.00  0.00     0.000 C 
HETATM   11  C   UNK N   1      32.028  15.051   5.239  0.00  0.00     0.005 C 
ENDBRANCH   5   6
ENDBRANCH   1   5
BRANCH   1  12
HETATM   12  C   UNK N   1      34.090  17.139   7.239  0.00  0.00     0.239 C 
BRANCH  12  13
HETATM   13  O   UNK N   1      34.465  17.820   6.075  0.00  0.00    -0.383 OA
HETATM   14  H   UNK N   1      34.586  17.636   5.130  0.00  0.00     0.210 HD
ENDBRANCH  12  13
BRANCH  12  15
HETATM   15  C   UNK N   1      34.548  17.893   8.459  0.00  0.00     0.290 C 
HETATM   16  O   UNK N   1      34.863  19.074   8.346  0.00  0.00    -0.262 OA
BRANCH  15  17
HETATM   17  O   UNK N   1      34.561  17.288   9.679  0.00  0.00    -0.315 OA
BRANCH  17  18
HETATM   18  C   UNK N   1      35.040  16.011   9.927  0.00  0.00     0.123 C 
HETATM   19  C   UNK N   1      33.909  15.068  10.304  0.00  0.00     0.040 C 
HETATM   20  C   UNK N   1      36.131  15.994  10.987  0.00  0.00     0.040 C 
ENDBRANCH  17  18
ENDBRANCH  15  17
ENDBRANCH  12  15
ENDBRANCH   1  12
TORSDOF 8
ENDMDL
MODEL 7
REMARK VINA RESULT:      -5.3      3.676      6.572
REMARK  8 active torsions:
REMARK  status: ('A' for Active; 'I' for Inactive)
REMARK    1  A    between atoms: C_2  and  N_1 
REMARK    2  A    between atoms: C_2  and  C_3 
REMARK    3  A    between atoms: C_2  and  C_10 
REMARK    4  A    between atoms: C_3  and  C_4 
REMARK    5  A    between atoms: C_10  and  O_11 
REMARK    6  A    between atoms: C_10  and  C_12 
REMARK    7  A    between atoms: C_12  and  O_14 
REMARK    8  A    between atoms: O_14  and  C_15 
ROOT
HETATM    1  C   UNK N   1      32.598  16.051   5.817  0.00  0.00     0.113 C 
ENDROOT
BRANCH   1   2
HETATM    2  N   UNK N   1      32.333  14.890   6.655  0.00  0.00    -0.423 N 
HETATM    3  H   UNK N   1      31.791  14.227   7.211  0.00  0.00     0.150 HD
HETATM    4  H   UNK N   1      33.269  14.491   6.735  0.00  0.00     0.150 HD
ENDBRANCH   1   2
BRANCH   1   5
HETATM    5  C   UNK N   1      31.670  17.217   6.190  0.00  0.00     0.032 C 
BRANCH   5   6
HETATM    6  C   UNK N   1      30.680  16.970   7.332  0.00  0.00    -0.013 C 
HETATM    7  C   UNK N   1      31.115  17.516   8.707  0.00  0.00     0.005 C 
HETATM    8  C   UNK N   1      30.286  18.734   9.112  0.00  0.00     0.000 C 
HETATM    9  C   UNK N   1      28.788  18.395   9.176  0.00  0.00     0.000 C 
HETATM   10  C   UNK N   1      28.345  17.346   8.146  0.00  0.00     0.000 C 
HETATM   11  C   UNK N   1      29.257  17.360   6.925  0.00  0.00     0.005 C 
ENDBRANCH   5   6
ENDBRANCH   1   5
BRANCH   1  12
HETATM   12  C   UNK N   1      34.060  16.500   5.973  0.00  0.00     0.239 C 
BRANCH  12  13
HETATM   13  O   UNK N   1      34.126  17.896   6.055  0.00  0.00    -0.383 OA
HETATM   14  H   UNK N   1      34.643  18.624   5.676  0.00  0.00     0.210 HD
ENDBRANCH  12  13
BRANCH  12  15
HETATM   15  C   UNK N   1      34.726  15.872   7.168  0.00  0.00     0.290 C 
HETATM   16  O   UNK N   1      35.506  14.941   6.995  0.00  0.00    -0.262 OA
BRANCH  15  17
HETATM   17  O   UNK N   1      34.507  16.366   8.418  0.00  0.00    -0.315 OA
BRANCH  17  18
HETATM   18  C   UNK N   1      34.811  15.705   9.598  0.00  0.00     0.123 C 
HETATM   19  C   UNK N   1      33.601  14.955  10.130  0.00  0.00     0.040 C 
HETATM   20  C   UNK N   1      35.376  16.638  10.659  0.00  0.00     0.040 C 
ENDBRANCH  17  18
ENDBRANCH  15  17
ENDBRANCH  12  15
ENDBRANCH   1  12
TORSDOF 8
ENDMDL
MODEL 8
REMARK VINA RESULT:      -5.3      7.342      9.068
REMARK  8 active torsions:
REMARK  status: ('A' for Active; 'I' for Inactive)
REMARK    1  A    between atoms: C_2  and  N_1 
REMARK    2  A    between atoms: C_2  and  C_3 
REMARK    3  A    between atoms: C_2  and  C_10 
REMARK    4  A    between atoms: C_3  and  C_4 
REMARK    5  A    between atoms: C_10  and  O_11 
REMARK    6  A    between atoms: C_10  and  C_12 
REMARK    7  A    between atoms: C_12  and  O_14 
REMARK    8  A    between atoms: O_14  and  C_15 
ROOT
HETATM    1  C   UNK N   1      36.310  14.147  12.214  0.00  0.00     0.113 C 
ENDROOT
BRANCH   1   2
HETATM    2  N   UNK N   1      37.505  13.532  11.654  0.00  0.00    -0.423 N 
HETATM    3  H   UNK N   1      38.432  13.478  11.228  0.00  0.00     0.150 HD
HETATM    4  H   UNK N   1      37.274  12.543  11.743  0.00  0.00     0.150 HD
ENDBRANCH   1   2
BRANCH   1   5
HETATM    5  C   UNK N   1      36.389  14.198  13.747  0.00  0.00     0.032 C 
BRANCH   5   6
HETATM    6  C   UNK N   1      35.386  13.332  14.517  0.00  0.00    -0.013 C 
HETATM    7  C   UNK N   1      34.723  12.209  13.694  0.00  0.00     0.005 C 
HETATM    8  C   UNK N   1      35.246  10.833  14.106  0.00  0.00     0.000 C 
HETATM    9  C   UNK N   1      34.989  10.559  15.596  0.00  0.00     0.000 C 
HETATM   10  C   UNK N   1      35.060  11.815  16.478  0.00  0.00     0.000 C 
HETATM   11  C   UNK N   1      35.966  12.870  15.856  0.00  0.00     0.005 C 
ENDBRANCH   5   6
ENDBRANCH   1   5
BRANCH   1  12
HETATM   12  C   UNK N   1      36.139  15.575  11.670  0.00  0.00     0.239 C 
BRANCH  12  13
HETATM   13  O   UNK N   1      37.163  15.867  10.762  0.00  0.00    -0.383 OA
HETATM   14  H   UNK N   1      37.266  16.052   9.815  0.00  0.00     0.210 HD
ENDBRANCH  12  13
BRANCH  12  15
HETATM   15  C   UNK N   1      34.793  15.782  11.028  0.00  0.00     0.290 C 
HETATM   16  O   UNK N   1      33.907  14.956  11.221  0.00  0.00    -0.262 OA
BRANCH  15  17
HETATM   17  O   UNK N   1      34.547  16.899  10.289  0.00  0.00    -0.315 OA
BRANCH  17  18
HETATM   18  C   UNK N   1      34.294  16.909   8.925  0.00  0.00     0.123 C 
HETATM   19  C   UNK N   1      34.664  18.250   8.312  0.00  0.00     0.040 C 
HETATM   20  C   UNK N   1      32.853  16.547   8.598  0.00  0.00     0.040 C 
ENDBRANCH  17  18
ENDBRANCH  15  17
ENDBRANCH  12  15
ENDBRANCH   1  12
TORSDOF 8
ENDMDL
MODEL 9
REMARK VINA RESULT:      -5.2      6.492      8.395
REMARK  8 active torsions:
REMARK  status: ('A' for Active; 'I' for Inactive)
REMARK    1  A    between atoms: C_2  and  N_1 
REMARK    2  A    between atoms: C_2  and  C_3 
REMARK    3  A    between atoms: C_2  and  C_10 
REMARK    4  A    between atoms: C_3  and  C_4 
REMARK    5  A    between atoms: C_10  and  O_11 
REMARK    6  A    between atoms: C_10  and  C_12 
REMARK    7  A    between atoms: C_12  and  O_14 
REMARK    8  A    between atoms: O_14  and  C_15 
ROOT
HETATM    1  C   UNK N   1      34.724  15.240  11.545  0.00  0.00     0.113 C 
ENDROOT
BRANCH   1   2
HETATM    2  N   UNK N   1      33.433  14.984  10.924  0.00  0.00    -0.423 N 
HETATM    3  H   UNK N   1      32.511  15.190  10.537  0.00  0.00     0.150 HD
HETATM    4  H   UNK N   1      33.476  13.974  10.796  0.00  0.00     0.150 HD
ENDBRANCH   1   2
BRANCH   1   5
HETATM    5  C   UNK N   1      35.619  13.994  11.481  0.00  0.00     0.032 C 
BRANCH   5   6
HETATM    6  C   UNK N   1      35.660  13.110  12.732  0.00  0.00    -0.013 C 
HETATM    7  C   UNK N   1      36.132  11.661  12.497  0.00  0.00     0.005 C 
HETATM    8  C   UNK N   1      37.528  11.429  13.074  0.00  0.00     0.000 C 
HETATM    9  C   UNK N   1      37.564  11.713  14.585  0.00  0.00     0.000 C 
HETATM   10  C   UNK N   1      36.617  12.838  15.026  0.00  0.00     0.000 C 
HETATM   11  C   UNK N   1      36.367  13.821  13.889  0.00  0.00     0.005 C 
ENDBRANCH   5   6
ENDBRANCH   1   5
BRANCH   1  12
HETATM   12  C   UNK N   1      35.435  16.408  10.840  0.00  0.00     0.239 C 
BRANCH  12  13
HETATM   13  O   UNK N   1      36.814  16.174  10.799  0.00  0.00    -0.383 OA
HETATM   14  H   UNK N   1      37.424  15.451  10.580  0.00  0.00     0.210 HD
ENDBRANCH  12  13
BRANCH  12  15
HETATM   15  C   UNK N   1      34.901  16.645   9.452  0.00  0.00     0.290 C 
HETATM   16  O   UNK N   1      34.178  17.615   9.250  0.00  0.00    -0.262 OA
BRANCH  15  17
HETATM   17  O   UNK N   1      35.261  15.826   8.426  0.00  0.00    -0.315 OA
BRANCH  17  18
HETATM   18  C   UNK N   1      34.377  15.221   7.545  0.00  0.00     0.123 C 
HETATM   19  C   UNK N   1      34.409  13.708   7.695  0.00  0.00     0.040 C 
HETATM   20  C   UNK N   1      34.628  15.624   6.100  0.00  0.00     0.040 C 
ENDBRANCH  17  18
ENDBRANCH  15  17
ENDBRANCH  12  15
ENDBRANCH   1  12
TORSDOF 8
ENDMDL
