MODEL 1
REMARK VINA RESULT:      -7.0      0.000      0.000
REMARK  9 active torsions:
REMARK  status: ('A' for Active; 'I' for Inactive)
REMARK    1  A    between atoms: N_1  and  C_8 
REMARK    2  A    between atoms: C_8  and  C_9 
REMARK    3  A    between atoms: C_9  and  C_10 
REMARK    4  A    between atoms: C_13  and  N_16 
REMARK       I    between atoms: N_16  and  C_17 
REMARK    5  A    between atoms: C_17  and  C_19 
REMARK    6  A    between atoms: C_19  and  C_20 
REMARK    7  A    between atoms: C_20  and  C_21 
REMARK    8  A    between atoms: C_21  and  C_22 
REMARK    9  A    between atoms: C_22  and  O_23 
ROOT
HETATM    1  C   UNK N   1      35.274  15.392   9.054  0.00  0.00    -0.056 A 
HETATM    2  C   UNK N   1      35.001  16.335  10.053  0.00  0.00     0.009 A 
HETATM    3  C   UNK N   1      35.364  16.073  11.380  0.00  0.00     0.030 A 
HETATM    4  C   UNK N   1      36.003  14.871  11.714  0.00  0.00     0.034 A 
HETATM    5  C   UNK N   1      36.245  13.925  10.706  0.00  0.00     0.030 A 
HETATM    6  C   UNK N   1      35.886  14.184   9.386  0.00  0.00     0.009 A 
ENDROOT
BRANCH   4   7
HETATM    7  N   UNK N   1      36.470  14.683  13.050  0.00  0.00    -0.327 N 
HETATM    8  C   UNK N   1      35.873  13.888  13.982  0.00  0.00     0.222 C 
HETATM    9  O   UNK N   1      34.839  13.290  13.729  0.00  0.00    -0.273 OA
HETATM   10  H   UNK N   1      37.287  15.163  13.317  0.00  0.00     0.169 HD
BRANCH   8  11
HETATM   11  C   UNK N   1      36.548  13.690  15.310  0.00  0.00     0.103 C 
BRANCH  11  12
HETATM   12  C   UNK N   1      35.807  12.698  16.203  0.00  0.00     0.019 C 
BRANCH  12  13
HETATM   13  C   UNK N   1      34.738  13.401  17.020  0.00  0.00     0.110 C 
BRANCH  13  14
HETATM   14  C   UNK N   1      35.308  13.928  18.297  0.00  0.00     0.139 C 
HETATM   15  O   UNK N   1      35.700  15.081  18.366  0.00  0.00    -0.650 OA
BRANCH  14  16
HETATM   16  O   UNK N   1      35.413  13.120  19.368  0.00  0.00    -0.776 OA
HETATM   17  H   UNK N   1      34.849  12.377  19.453  0.00  0.00     0.167 HD
ENDBRANCH  14  16
ENDBRANCH  13  14
ENDBRANCH  12  13
ENDBRANCH  11  12
ENDBRANCH   8  11
ENDBRANCH   4   7
BRANCH   1  18
HETATM   18  C   UNK N   1      35.009  15.696   7.623  0.00  0.00     0.075 C 
BRANCH  18  19
HETATM   19  C   UNK N   1      33.521  15.837   7.330  0.00  0.00     0.316 C 
BRANCH  19  20
HETATM   20  N   UNK N   1      33.172  17.212   6.941  0.00  0.00     0.014 N 
HETATM   21  C   UNK N   1      32.631  18.003   8.060  0.00  0.00     0.312 C 
HETATM   22  C   UNK N   1      31.281  17.468   8.540  0.00  0.00     0.036 C 
HETATM   23  C   UNK N   1      30.296  17.463   7.380  0.00  0.00     0.004 C 
HETATM   24  C   UNK N   1      30.859  16.640   6.229  0.00  0.00     0.036 C 
HETATM   25  C   UNK N   1      32.229  17.189   5.817  0.00  0.00     0.312 C 
HETATM   26  O   UNK N   1      34.298  17.829   6.506  0.00  0.00    -0.064 OA
ENDBRANCH  19  20
ENDBRANCH  18  19
ENDBRANCH   1  18
TORSDOF 9
ENDMDL
MODEL 2
REMARK VINA RESULT:      -6.6      3.119      5.676
REMARK  9 active torsions:
REMARK  status: ('A' for Active; 'I' for Inactive)
REMARK    1  A    between atoms: N_1  and  C_8 
REMARK    2  A    between atoms: C_8  and  C_9 
REMARK    3  A    between atoms: C_9  and  C_10 
REMARK    4  A    between atoms: C_13  and  N_16 
REMARK       I    between atoms: N_16  and  C_17 
REMARK    5  A    between atoms: C_17  and  C_19 
REMARK    6  A    between atoms: C_19  and  C_20 
REMARK    7  A    between atoms: C_20  and  C_21 
REMARK    8  A    between atoms: C_21  and  C_22 
REMARK    9  A    between atoms: C_22  and  O_23 
ROOT
HETATM    1  C   UNK N   1      30.984  17.189   6.282  0.00  0.00    -0.056 A 
HETATM    2  C   UNK N   1      32.343  17.214   5.940  0.00  0.00     0.009 A 
HETATM    3  C   UNK N   1      33.313  17.350   6.941  0.00  0.00     0.030 A 
HETATM    4  C   UNK N   1      32.932  17.459   8.286  0.00  0.00     0.034 A 
HETATM    5  C   UNK N   1      31.566  17.461   8.609  0.00  0.00     0.030 A 
HETATM    6  C   UNK N   1      30.600  17.325   7.615  0.00  0.00     0.009 A 
ENDROOT
BRANCH   4   7
HETATM    7  N   UNK N   1      33.943  17.473   9.293  0.00  0.00    -0.327 N 
HETATM    8  C   UNK N   1      34.465  16.366   9.893  0.00  0.00     0.222 C 
HETATM    9  O   UNK N   1      34.056  15.249   9.615  0.00  0.00    -0.273 OA
HETATM   10  H   UNK N   1      34.290  18.350   9.575  0.00  0.00     0.169 HD
BRANCH   8  11
HETATM   11  C   UNK N   1      35.613  16.529  10.849  0.00  0.00     0.103 C 
BRANCH  11  12
HETATM   12  C   UNK N   1      36.276  15.200  11.200  0.00  0.00     0.019 C 
BRANCH  12  13
HETATM   13  C   UNK N   1      36.141  14.905  12.684  0.00  0.00     0.110 C 
BRANCH  13  14
HETATM   14  C   UNK N   1      35.215  13.753  12.911  0.00  0.00     0.139 C 
HETATM   15  O   UNK N   1      35.358  13.033  13.887  0.00  0.00    -0.650 OA
BRANCH  14  16
HETATM   16  O   UNK N   1      34.238  13.492  12.024  0.00  0.00    -0.776 OA
HETATM   17  H   UNK N   1      34.289  13.836  11.154  0.00  0.00     0.167 HD
ENDBRANCH  14  16
ENDBRANCH  13  14
ENDBRANCH  12  13
ENDBRANCH  11  12
ENDBRANCH   8  11
ENDBRANCH   4   7
BRANCH   1  18
HETATM   18  C   UNK N   1      29.942  16.926   5.255  0.00  0.00     0.075 C 
BRANCH  18  19
HETATM   19  C   UNK N   1      29.184  18.189   4.866  0.00  0.00     0.316 C 
BRANCH  19  20
HETATM   20  N   UNK N   1      27.780  18.136   5.301  0.00  0.00     0.014 N 
HETATM   21  C   UNK N   1      26.835  18.481   4.225  0.00  0.00     0.312 C 
HETATM   22  C   UNK N   1      26.967  19.942   3.792  0.00  0.00     0.036 C 
HETATM   23  C   UNK N   1      26.745  20.849   4.994  0.00  0.00     0.004 C 
HETATM   24  C   UNK N   1      27.728  20.491   6.100  0.00  0.00     0.036 C 
HETATM   25  C   UNK N   1      27.585  19.009   6.464  0.00  0.00     0.312 C 
HETATM   26  O   UNK N   1      27.506  16.870   5.699  0.00  0.00    -0.064 OA
ENDBRANCH  19  20
ENDBRANCH  18  19
ENDBRANCH   1  18
TORSDOF 9
ENDMDL
MODEL 3
REMARK VINA RESULT:      -6.6      4.296     11.200
REMARK  9 active torsions:
REMARK  status: ('A' for Active; 'I' for Inactive)
REMARK    1  A    between atoms: N_1  and  C_8 
REMARK    2  A    between atoms: C_8  and  C_9 
REMARK    3  A    between atoms: C_9  and  C_10 
REMARK    4  A    between atoms: C_13  and  N_16 
REMARK       I    between atoms: N_16  and  C_17 
REMARK    5  A    between atoms: C_17  and  C_19 
REMARK    6  A    between atoms: C_19  and  C_20 
REMARK    7  A    between atoms: C_20  and  C_21 
REMARK    8  A    between atoms: C_21  and  C_22 
REMARK    9  A    between atoms: C_22  and  O_23 
ROOT
HETATM    1  C   UNK N   1      35.721  11.203  18.735  0.00  0.00    -0.056 A 
HETATM    2  C   UNK N   1      36.222  10.370  17.726  0.00  0.00     0.009 A 
HETATM    3  C   UNK N   1      36.244  10.815  16.398  0.00  0.00     0.030 A 
HETATM    4  C   UNK N   1      35.771  12.094  16.073  0.00  0.00     0.034 A 
HETATM    5  C   UNK N   1      35.247  12.906  17.092  0.00  0.00     0.030 A 
HETATM    6  C   UNK N   1      35.224  12.465  18.412  0.00  0.00     0.009 A 
ENDROOT
BRANCH   4   7
HETATM    7  N   UNK N   1      35.918  12.567  14.735  0.00  0.00    -0.327 N 
HETATM    8  C   UNK N   1      35.041  12.326  13.720  0.00  0.00     0.222 C 
HETATM    9  O   UNK N   1      34.051  11.632  13.895  0.00  0.00    -0.273 OA
HETATM   10  H   UNK N   1      36.713  13.110  14.530  0.00  0.00     0.169 HD
BRANCH   8  11
HETATM   11  C   UNK N   1      35.264  12.993  12.391  0.00  0.00     0.103 C 
BRANCH  11  12
HETATM   12  C   UNK N   1      35.503  14.495  12.523  0.00  0.00     0.019 C 
BRANCH  12  13
HETATM   13  C   UNK N   1      34.913  15.242  11.340  0.00  0.00     0.110 C 
BRANCH  13  14
HETATM   14  C   UNK N   1      35.890  16.237  10.801  0.00  0.00     0.139 C 
HETATM   15  O   UNK N   1      35.499  17.307  10.363  0.00  0.00    -0.650 OA
BRANCH  14  16
HETATM   16  O   UNK N   1      37.202  15.942  10.775  0.00  0.00    -0.776 OA
HETATM   17  H   UNK N   1      37.836  16.600  10.989  0.00  0.00     0.167 HD
ENDBRANCH  14  16
ENDBRANCH  13  14
ENDBRANCH  12  13
ENDBRANCH  11  12
ENDBRANCH   8  11
ENDBRANCH   4   7
BRANCH   1  18
HETATM   18  C   UNK N   1      35.797  10.803  20.165  0.00  0.00     0.075 C 
BRANCH  18  19
HETATM   19  C   UNK N   1      34.418  10.591  20.777  0.00  0.00     0.316 C 
BRANCH  19  20
HETATM   20  N   UNK N   1      34.280   9.244  21.352  0.00  0.00     0.014 N 
HETATM   21  C   UNK N   1      34.486   8.175  20.359  0.00  0.00     0.312 C 
HETATM   22  C   UNK N   1      33.392   8.167  19.290  0.00  0.00     0.036 C 
HETATM   23  C   UNK N   1      32.033   8.006  19.956  0.00  0.00     0.004 C 
HETATM   24  C   UNK N   1      31.825   9.116  20.978  0.00  0.00     0.036 C 
HETATM   25  C   UNK N   1      32.969   9.109  21.997  0.00  0.00     0.312 C 
HETATM   26  O   UNK N   1      35.219   9.096  22.317  0.00  0.00    -0.064 OA
ENDBRANCH  19  20
ENDBRANCH  18  19
ENDBRANCH   1  18
TORSDOF 9
ENDMDL
MODEL 4
REMARK VINA RESULT:      -6.4      6.460     11.275
REMARK  9 active torsions:
REMARK  status: ('A' for Active; 'I' for Inactive)
REMARK    1  A    between atoms: N_1  and  C_8 
REMARK    2  A    between atoms: C_8  and  C_9 
REMARK    3  A    between atoms: C_9  and  C_10 
REMARK    4  A    between atoms: C_13  and  N_16 
REMARK       I    between atoms: N_16  and  C_17 
REMARK    5  A    between atoms: C_17  and  C_19 
REMARK    6  A    between atoms: C_19  and  C_20 
REMARK    7  A    between atoms: C_20  and  C_21 
REMARK    8  A    between atoms: C_21  and  C_22 
REMARK    9  A    between atoms: C_22  and  O_23 
ROOT
HETATM    1  C   UNK N   1      30.975  17.367   7.861  0.00  0.00    -0.056 A 
HETATM    2  C   UNK N   1      30.287  16.836   6.763  0.00  0.00     0.009 A 
HETATM    3  C   UNK N   1      29.008  17.310   6.443  0.00  0.00     0.030 A 
HETATM    4  C   UNK N   1      28.413  18.316   7.217  0.00  0.00     0.034 A 
HETATM    5  C   UNK N   1      29.104  18.818   8.330  0.00  0.00     0.030 A 
HETATM    6  C   UNK N   1      30.376  18.349   8.649  0.00  0.00     0.009 A 
ENDROOT
BRANCH   4   7
HETATM    7  N   UNK N   1      27.164  18.865   6.797  0.00  0.00    -0.327 N 
HETATM    8  C   UNK N   1      27.020  19.939   5.970  0.00  0.00     0.222 C 
HETATM    9  O   UNK N   1      27.994  20.542   5.547  0.00  0.00    -0.273 OA
HETATM   10  H   UNK N   1      26.344  18.434   7.130  0.00  0.00     0.169 HD
BRANCH   8  11
HETATM   11  C   UNK N   1      25.641  20.327   5.515  0.00  0.00     0.103 C 
BRANCH  11  12
HETATM   12  C   UNK N   1      24.913  19.185   4.811  0.00  0.00     0.019 C 
BRANCH  12  13
HETATM   13  C   UNK N   1      25.277  19.138   3.338  0.00  0.00     0.110 C 
BRANCH  13  14
HETATM   14  C   UNK N   1      25.014  20.457   2.685  0.00  0.00     0.139 C 
HETATM   15  O   UNK N   1      23.871  20.866   2.566  0.00  0.00    -0.650 OA
BRANCH  14  16
HETATM   16  O   UNK N   1      26.038  21.183   2.202  0.00  0.00    -0.776 OA
HETATM   17  H   UNK N   1      26.497  20.897   1.436  0.00  0.00     0.167 HD
ENDBRANCH  14  16
ENDBRANCH  13  14
ENDBRANCH  12  13
ENDBRANCH  11  12
ENDBRANCH   8  11
ENDBRANCH   4   7
BRANCH   1  18
HETATM   18  C   UNK N   1      32.378  16.969   8.150  0.00  0.00     0.075 C 
BRANCH  18  19
HETATM   19  C   UNK N   1      32.943  16.036   7.087  0.00  0.00     0.316 C 
BRANCH  19  20
HETATM   20  N   UNK N   1      33.955  16.707   6.257  0.00  0.00     0.014 N 
HETATM   21  C   UNK N   1      33.364  17.490   5.157  0.00  0.00     0.312 C 
HETATM   22  C   UNK N   1      32.667  16.597   4.129  0.00  0.00     0.036 C 
HETATM   23  C   UNK N   1      33.661  15.587   3.576  0.00  0.00     0.004 C 
HETATM   24  C   UNK N   1      34.264  14.779   4.717  0.00  0.00     0.036 C 
HETATM   25  C   UNK N   1      34.910  15.721   5.739  0.00  0.00     0.312 C 
HETATM   26  O   UNK N   1      34.650  17.564   7.044  0.00  0.00    -0.064 OA
ENDBRANCH  19  20
ENDBRANCH  18  19
ENDBRANCH   1  18
TORSDOF 9
ENDMDL
MODEL 5
REMARK VINA RESULT:      -6.4      1.627      2.125
REMARK  9 active torsions:
REMARK  status: ('A' for Active; 'I' for Inactive)
REMARK    1  A    between atoms: N_1  and  C_8 
REMARK    2  A    between atoms: C_8  and  C_9 
REMARK    3  A    between atoms: C_9  and  C_10 
REMARK    4  A    between atoms: C_13  and  N_16 
REMARK       I    between atoms: N_16  and  C_17 
REMARK    5  A    between atoms: C_17  and  C_19 
REMARK    6  A    between atoms: C_19  and  C_20 
REMARK    7  A    between atoms: C_20  and  C_21 
REMARK    8  A    between atoms: C_21  and  C_22 
REMARK    9  A    between atoms: C_22  and  O_23 
ROOT
HETATM    1  C   UNK N   1      35.448  15.347   9.017  0.00  0.00    -0.056 A 
HETATM    2  C   UNK N   1      36.248  14.245   9.345  0.00  0.00     0.009 A 
HETATM    3  C   UNK N   1      36.609  14.015  10.678  0.00  0.00     0.030 A 
HETATM    4  C   UNK N   1      36.169  14.881  11.690  0.00  0.00     0.034 A 
HETATM    5  C   UNK N   1      35.391  15.995  11.341  0.00  0.00     0.030 A 
HETATM    6  C   UNK N   1      35.031  16.226  10.016  0.00  0.00     0.009 A 
ENDROOT
BRANCH   4   7
HETATM    7  N   UNK N   1      36.449  14.554  13.051  0.00  0.00    -0.327 N 
HETATM    8  C   UNK N   1      35.665  13.770  13.843  0.00  0.00     0.222 C 
HETATM    9  O   UNK N   1      34.614  13.308  13.428  0.00  0.00    -0.273 OA
HETATM   10  H   UNK N   1      37.271  14.923  13.446  0.00  0.00     0.169 HD
BRANCH   8  11
HETATM   11  C   UNK N   1      36.150  13.412  15.220  0.00  0.00     0.103 C 
BRANCH  11  12
HETATM   12  C   UNK N   1      35.010  13.049  16.168  0.00  0.00     0.019 C 
BRANCH  12  13
HETATM   13  C   UNK N   1      35.204  11.655  16.737  0.00  0.00     0.110 C 
BRANCH  13  14
HETATM   14  C   UNK N   1      34.934  10.616  15.696  0.00  0.00     0.139 C 
HETATM   15  O   UNK N   1      33.821  10.510  15.207  0.00  0.00    -0.650 OA
BRANCH  14  16
HETATM   16  O   UNK N   1      35.914   9.776  15.317  0.00  0.00    -0.776 OA
HETATM   17  H   UNK N   1      36.802  10.074  15.284  0.00  0.00     0.167 HD
ENDBRANCH  14  16
ENDBRANCH  13  14
ENDBRANCH  12  13
ENDBRANCH  11  12
ENDBRANCH   8  11
ENDBRANCH   4   7
BRANCH   1  18
HETATM   18  C   UNK N   1      34.952  15.547   7.630  0.00  0.00     0.075 C 
BRANCH  18  19
HETATM   19  C   UNK N   1      33.453  15.817   7.587  0.00  0.00     0.316 C 
BRANCH  19  20
HETATM   20  N   UNK N   1      33.158  17.163   7.072  0.00  0.00     0.014 N 
HETATM   21  C   UNK N   1      32.607  18.062   8.101  0.00  0.00     0.312 C 
HETATM   22  C   UNK N   1      31.227  17.607   8.579  0.00  0.00     0.036 C 
HETATM   23  C   UNK N   1      30.279  17.530   7.392  0.00  0.00     0.004 C 
HETATM   24  C   UNK N   1      30.852  16.596   6.334  0.00  0.00     0.036 C 
HETATM   25  C   UNK N   1      32.250  17.070   5.923  0.00  0.00     0.312 C 
HETATM   26  O   UNK N   1      34.315  17.710   6.625  0.00  0.00    -0.064 OA
ENDBRANCH  19  20
ENDBRANCH  18  19
ENDBRANCH   1  18
TORSDOF 9
ENDMDL
MODEL 6
REMARK VINA RESULT:      -6.2      7.682     13.842
REMARK  9 active torsions:
REMARK  status: ('A' for Active; 'I' for Inactive)
REMARK    1  A    between atoms: N_1  and  C_8 
REMARK    2  A    between atoms: C_8  and  C_9 
REMARK    3  A    between atoms: C_9  and  C_10 
REMARK    4  A    between atoms: C_13  and  N_16 
REMARK       I    between atoms: N_16  and  C_17 
REMARK    5  A    between atoms: C_17  and  C_19 
REMARK    6  A    between atoms: C_19  and  C_20 
REMARK    7  A    between atoms: C_20  and  C_21 
REMARK    8  A    between atoms: C_21  and  C_22 
REMARK    9  A    between atoms: C_22  and  O_23 
ROOT
HETATM    1  C   UNK N   1      27.517  18.090   4.439  0.00  0.00    -0.056 A 
HETATM    2  C   UNK N   1      26.806  19.156   5.006  0.00  0.00     0.009 A 
HETATM    3  C   UNK N   1      25.428  19.271   4.788  0.00  0.00     0.030 A 
HETATM    4  C   UNK N   1      24.753  18.322   4.007  0.00  0.00     0.034 A 
HETATM    5  C   UNK N   1      25.484  17.276   3.424  0.00  0.00     0.030 A 
HETATM    6  C   UNK N   1      26.854  17.159   3.639  0.00  0.00     0.009 A 
ENDROOT
BRANCH   4   7
HETATM    7  N   UNK N   1      23.331  18.396   3.903  0.00  0.00    -0.327 N 
HETATM    8  C   UNK N   1      22.453  17.865   4.800  0.00  0.00     0.222 C 
HETATM    9  O   UNK N   1      22.848  17.238   5.771  0.00  0.00    -0.273 OA
HETATM   10  H   UNK N   1      22.957  18.867   3.125  0.00  0.00     0.169 HD
BRANCH   8  11
HETATM   11  C   UNK N   1      20.984  18.128   4.624  0.00  0.00     0.103 C 
BRANCH  11  12
HETATM   12  C   UNK N   1      20.648  18.667   3.236  0.00  0.00     0.019 C 
BRANCH  12  13
HETATM   13  C   UNK N   1      20.373  20.160   3.288  0.00  0.00     0.110 C 
BRANCH  13  14
HETATM   14  C   UNK N   1      21.285  20.898   2.362  0.00  0.00     0.139 C 
HETATM   15  O   UNK N   1      21.318  20.615   1.175  0.00  0.00    -0.650 OA
BRANCH  14  16
HETATM   16  O   UNK N   1      22.093  21.861   2.842  0.00  0.00    -0.776 OA
HETATM   17  H   UNK N   1      22.634  21.691   3.588  0.00  0.00     0.167 HD
ENDBRANCH  14  16
ENDBRANCH  13  14
ENDBRANCH  12  13
ENDBRANCH  11  12
ENDBRANCH   8  11
ENDBRANCH   4   7
BRANCH   1  18
HETATM   18  C   UNK N   1      28.955  17.876   4.752  0.00  0.00     0.075 C 
BRANCH  18  19
HETATM   19  C   UNK N   1      29.309  18.320   6.165  0.00  0.00     0.316 C 
BRANCH  19  20
HETATM   20  N   UNK N   1      29.332  17.184   7.101  0.00  0.00     0.014 N 
HETATM   21  C   UNK N   1      28.174  17.170   8.011  0.00  0.00     0.312 C 
HETATM   22  C   UNK N   1      28.185  18.360   8.972  0.00  0.00     0.036 C 
HETATM   23  C   UNK N   1      29.479  18.353   9.773  0.00  0.00     0.004 C 
HETATM   24  C   UNK N   1      30.672  18.373   8.826  0.00  0.00     0.036 C 
HETATM   25  C   UNK N   1      30.589  17.188   7.858  0.00  0.00     0.312 C 
HETATM   26  O   UNK N   1      29.302  16.038   6.378  0.00  0.00    -0.064 OA
ENDBRANCH  19  20
ENDBRANCH  18  19
ENDBRANCH   1  18
TORSDOF 9
ENDMDL
MODEL 7
REMARK VINA RESULT:      -6.2      2.592      8.872
REMARK  9 active torsions:
REMARK  status: ('A' for Active; 'I' for Inactive)
REMARK    1  A    between atoms: N_1  and  C_8 
REMARK    2  A    between atoms: C_8  and  C_9 
REMARK    3  A    between atoms: C_9  and  C_10 
REMARK    4  A    between atoms: C_13  and  N_16 
REMARK       I    between atoms: N_16  and  C_17 
REMARK    5  A    between atoms: C_17  and  C_19 
REMARK    6  A    between atoms: C_19  and  C_20 
REMARK    7  A    between atoms: C_20  and  C_21 
REMARK    8  A    between atoms: C_21  and  C_22 
REMARK    9  A    between atoms: C_22  and  O_23 
ROOT
HETATM    1  C   UNK N   1      36.077  13.453  11.467  0.00  0.00    -0.056 A 
HETATM    2  C   UNK N   1      36.077  14.778  11.923  0.00  0.00     0.009 A 
HETATM    3  C   UNK N   1      35.217  15.717  11.340  0.00  0.00     0.030 A 
HETATM    4  C   UNK N   1      34.353  15.338  10.304  0.00  0.00     0.034 A 
HETATM    5  C   UNK N   1      34.384  14.014   9.840  0.00  0.00     0.030 A 
HETATM    6  C   UNK N   1      35.238  13.078  10.418  0.00  0.00     0.009 A 
ENDROOT
BRANCH   4   7
HETATM    7  N   UNK N   1      33.403  16.284   9.813  0.00  0.00    -0.327 N 
HETATM    8  C   UNK N   1      33.561  17.038   8.689  0.00  0.00     0.222 C 
HETATM    9  O   UNK N   1      34.583  16.970   8.024  0.00  0.00    -0.273 OA
HETATM   10  H   UNK N   1      32.571  16.399  10.325  0.00  0.00     0.169 HD
BRANCH   8  11
HETATM   11  C   UNK N   1      32.421  17.903   8.227  0.00  0.00     0.103 C 
BRANCH  11  12
HETATM   12  C   UNK N   1      31.059  17.273   8.502  0.00  0.00     0.019 C 
BRANCH  12  13
HETATM   13  C   UNK N   1      30.096  18.297   9.077  0.00  0.00     0.110 C 
BRANCH  13  14
HETATM   14  C   UNK N   1      28.712  18.072   8.560  0.00  0.00     0.139 C 
HETATM   15  O   UNK N   1      28.535  17.763   7.393  0.00  0.00    -0.650 OA
BRANCH  14  16
HETATM   16  O   UNK N   1      27.655  18.236   9.376  0.00  0.00    -0.776 OA
HETATM   17  H   UNK N   1      26.834  18.528   9.030  0.00  0.00     0.167 HD
ENDBRANCH  14  16
ENDBRANCH  13  14
ENDBRANCH  12  13
ENDBRANCH  11  12
ENDBRANCH   8  11
ENDBRANCH   4   7
BRANCH   1  18
HETATM   18  C   UNK N   1      36.891  12.410  12.146  0.00  0.00     0.075 C 
BRANCH  18  19
HETATM   19  C   UNK N   1      36.140  11.754  13.298  0.00  0.00     0.316 C 
BRANCH  19  20
HETATM   20  N   UNK N   1      36.946  11.731  14.529  0.00  0.00     0.014 N 
HETATM   21  C   UNK N   1      36.489  10.714  15.492  0.00  0.00     0.312 C 
HETATM   22  C   UNK N   1      35.098  11.029  16.042  0.00  0.00     0.036 C 
HETATM   23  C   UNK N   1      35.110  12.402  16.698  0.00  0.00     0.004 C 
HETATM   24  C   UNK N   1      35.578  13.449  15.696  0.00  0.00     0.036 C 
HETATM   25  C   UNK N   1      36.954  13.063  15.144  0.00  0.00     0.312 C 
HETATM   26  O   UNK N   1      38.225  11.436  14.193  0.00  0.00    -0.064 OA
ENDBRANCH  19  20
ENDBRANCH  18  19
ENDBRANCH   1  18
TORSDOF 9
ENDMDL
MODEL 8
REMARK VINA RESULT:      -5.9      3.096      9.421
REMARK  9 active torsions:
REMARK  status: ('A' for Active; 'I' for Inactive)
REMARK    1  A    between atoms: N_1  and  C_8 
REMARK    2  A    between atoms: C_8  and  C_9 
REMARK    3  A    between atoms: C_9  and  C_10 
REMARK    4  A    between atoms: C_13  and  N_16 
REMARK       I    between atoms: N_16  and  C_17 
REMARK    5  A    between atoms: C_17  and  C_19 
REMARK    6  A    between atoms: C_19  and  C_20 
REMARK    7  A    between atoms: C_20  and  C_21 
REMARK    8  A    between atoms: C_21  and  C_22 
REMARK    9  A    between atoms: C_22  and  O_23 
ROOT
HETATM    1  C   UNK N   1      36.450  13.610  11.426  0.00  0.00    -0.056 A 
HETATM    2  C   UNK N   1      35.568  14.505  12.046  0.00  0.00     0.009 A 
HETATM    3  C   UNK N   1      34.786  15.368  11.269  0.00  0.00     0.030 A 
HETATM    4  C   UNK N   1      34.879  15.340   9.870  0.00  0.00     0.034 A 
HETATM    5  C   UNK N   1      35.787  14.457   9.265  0.00  0.00     0.030 A 
HETATM    6  C   UNK N   1      36.564  13.598  10.036  0.00  0.00     0.009 A 
ENDROOT
BRANCH   4   7
HETATM    7  N   UNK N   1      33.984  16.143   9.101  0.00  0.00    -0.327 N 
HETATM    8  C   UNK N   1      34.187  17.453   8.782  0.00  0.00     0.222 C 
HETATM    9  O   UNK N   1      35.173  18.052   9.181  0.00  0.00    -0.273 OA
HETATM   10  H   UNK N   1      33.159  15.718   8.775  0.00  0.00     0.169 HD
BRANCH   8  11
HETATM   11  C   UNK N   1      33.216  18.136   7.860  0.00  0.00     0.103 C 
BRANCH  11  12
HETATM   12  C   UNK N   1      32.746  17.227   6.726  0.00  0.00     0.019 C 
BRANCH  12  13
HETATM   13  C   UNK N   1      33.547  17.483   5.462  0.00  0.00     0.110 C 
BRANCH  13  14
HETATM   14  C   UNK N   1      32.696  17.291   4.248  0.00  0.00     0.139 C 
HETATM   15  O   UNK N   1      32.965  16.416   3.441  0.00  0.00    -0.650 OA
BRANCH  14  16
HETATM   16  O   UNK N   1      31.645  18.102   4.031  0.00  0.00    -0.776 OA
HETATM   17  H   UNK N   1      30.853  17.987   4.520  0.00  0.00     0.167 HD
ENDBRANCH  14  16
ENDBRANCH  13  14
ENDBRANCH  12  13
ENDBRANCH  11  12
ENDBRANCH   8  11
ENDBRANCH   4   7
BRANCH   1  18
HETATM   18  C   UNK N   1      37.201  12.602  12.219  0.00  0.00     0.075 C 
BRANCH  18  19
HETATM   19  C   UNK N   1      36.454  12.188  13.481  0.00  0.00     0.316 C 
BRANCH  19  20
HETATM   20  N   UNK N   1      36.258  10.732  13.544  0.00  0.00     0.014 N 
HETATM   21  C   UNK N   1      34.866  10.330  13.280  0.00  0.00     0.312 C 
HETATM   22  C   UNK N   1      33.912  10.815  14.372  0.00  0.00     0.036 C 
HETATM   23  C   UNK N   1      34.366  10.272  15.719  0.00  0.00     0.004 C 
HETATM   24  C   UNK N   1      35.804  10.695  15.988  0.00  0.00     0.036 C 
HETATM   25  C   UNK N   1      36.708  10.224  14.845  0.00  0.00     0.312 C 
HETATM   26  O   UNK N   1      37.040  10.157  12.597  0.00  0.00    -0.064 OA
ENDBRANCH  19  20
ENDBRANCH  18  19
ENDBRANCH   1  18
TORSDOF 9
ENDMDL
MODEL 9
REMARK VINA RESULT:      -5.8      2.219      9.876
REMARK  9 active torsions:
REMARK  status: ('A' for Active; 'I' for Inactive)
REMARK    1  A    between atoms: N_1  and  C_8 
REMARK    2  A    between atoms: C_8  and  C_9 
REMARK    3  A    between atoms: C_9  and  C_10 
REMARK    4  A    between atoms: C_13  and  N_16 
REMARK       I    between atoms: N_16  and  C_17 
REMARK    5  A    between atoms: C_17  and  C_19 
REMARK    6  A    between atoms: C_19  and  C_20 
REMARK    7  A    between atoms: C_20  and  C_21 
REMARK    8  A    between atoms: C_21  and  C_22 
REMARK    9  A    between atoms: C_22  and  O_23 
ROOT
HETATM    1  C   UNK N   1      35.480  14.847  11.716  0.00  0.00    -0.056 A 
HETATM    2  C   UNK N   1      34.853  13.781  11.057  0.00  0.00     0.009 A 
HETATM    3  C   UNK N   1      34.251  13.988   9.809  0.00  0.00     0.030 A 
HETATM    4  C   UNK N   1      34.276  15.256   9.213  0.00  0.00     0.034 A 
HETATM    5  C   UNK N   1      34.885  16.319   9.898  0.00  0.00     0.030 A 
HETATM    6  C   UNK N   1      35.484  16.116  11.138  0.00  0.00     0.009 A 
ENDROOT
BRANCH   4   7
HETATM    7  N   UNK N   1      33.764  15.409   7.889  0.00  0.00    -0.327 N 
HETATM    8  C   UNK N   1      32.550  15.946   7.578  0.00  0.00     0.222 C 
HETATM    9  O   UNK N   1      31.782  16.312   8.454  0.00  0.00    -0.273 OA
HETATM   10  H   UNK N   1      34.331  15.106   7.145  0.00  0.00     0.169 HD
BRANCH   8  11
HETATM   11  C   UNK N   1      32.197  16.157   6.133  0.00  0.00     0.103 C 
BRANCH  11  12
HETATM   12  C   UNK N   1      33.276  16.922   5.372  0.00  0.00     0.019 C 
BRANCH  12  13
HETATM   13  C   UNK N   1      32.662  17.770   4.271  0.00  0.00     0.110 C 
BRANCH  13  14
HETATM   14  C   UNK N   1      32.273  16.922   3.104  0.00  0.00     0.139 C 
HETATM   15  O   UNK N   1      33.110  16.243   2.531  0.00  0.00    -0.650 OA
BRANCH  14  16
HETATM   16  O   UNK N   1      31.001  16.926   2.666  0.00  0.00    -0.776 OA
HETATM   17  H   UNK N   1      30.340  16.456   3.136  0.00  0.00     0.167 HD
ENDBRANCH  14  16
ENDBRANCH  13  14
ENDBRANCH  12  13
ENDBRANCH  11  12
ENDBRANCH   8  11
ENDBRANCH   4   7
BRANCH   1  18
HETATM   18  C   UNK N   1      36.229  14.630  12.982  0.00  0.00     0.075 C 
BRANCH  18  19
HETATM   19  C   UNK N   1      35.508  13.671  13.920  0.00  0.00     0.316 C 
BRANCH  19  20
HETATM   20  N   UNK N   1      36.349  13.297  15.068  0.00  0.00     0.014 N 
HETATM   21  C   UNK N   1      37.315  12.232  14.746  0.00  0.00     0.312 C 
HETATM   22  C   UNK N   1      36.621  10.906  14.430  0.00  0.00     0.036 C 
HETATM   23  C   UNK N   1      35.759  10.490  15.613  0.00  0.00     0.004 C 
HETATM   24  C   UNK N   1      34.761  11.593  15.937  0.00  0.00     0.036 C 
HETATM   25  C   UNK N   1      35.503  12.907  16.201  0.00  0.00     0.312 C 
HETATM   26  O   UNK N   1      37.054  14.390  15.450  0.00  0.00    -0.064 OA
ENDBRANCH  19  20
ENDBRANCH  18  19
ENDBRANCH   1  18
TORSDOF 9
ENDMDL
