REMARK  6 active torsions:
REMARK  status: ('A' for Active; 'I' for Inactive)
REMARK    1  A    between atoms: N_1  and  C_2 
REMARK    2  A    between atoms: C_2  and  C_3 
REMARK    3  A    between atoms: C_3  and  C_4 
REMARK    4  A    between atoms: C_4  and  N_5 
REMARK    5  A    between atoms: N_5  and  C_6 
REMARK    6  A    between atoms: C_8  and  N_9 
ROOT
HETATM    1  C   UNK N   1       1.280   0.017  -0.000  0.00  0.00     0.061 A 
HETATM    2  C   UNK N   1       1.428   1.412  -0.000  0.00  0.00     0.031 A 
HETATM    3  C   UNK N   1       2.480  -0.803   0.000  0.00  0.00     0.129 A 
HETATM    4  C   UNK N   1       2.671   2.028   0.000  0.00  0.00     0.002 A 
HETATM    5  C   UNK N   1       3.721  -0.131   0.000  0.00  0.00     0.038 A 
HETATM    6  C   UNK N   1       3.819   1.256   0.000  0.00  0.00     0.003 A 
ENDROOT
BRANCH   1   7
HETATM    7  N   UNK N   1      -0.080  -0.411  -0.000  0.00  0.00    -0.388 N 
HETATM    8  H   UNK N   1      -0.732   0.326  -0.000  0.00  0.00     0.159 HD
BRANCH   7   9
HETATM    9  C   UNK N   1      -0.675  -1.718   0.000  0.00  0.00     0.121 C 
BRANCH   9  10
HETATM   10  C   UNK N   1      -2.205  -1.655  -0.000  0.00  0.00     0.038 C 
BRANCH  10  11
HETATM   11  C   UNK N   1      -2.777  -0.242   0.000  0.00  0.00     0.112 C 
BRANCH  11  12
HETATM   12  N   UNK N   1      -4.224  -0.303  -0.000  0.00  0.00    -0.430 N 
HETATM   13  H   UNK N   1      -4.771   0.558  -0.000  0.00  0.00     0.149 HD
HETATM   14  H   UNK N   1      -4.696  -1.207  -0.000  0.00  0.00     0.149 HD
ENDBRANCH  11  12
ENDBRANCH  10  11
ENDBRANCH   9  10
ENDBRANCH   7   9
ENDBRANCH   1   7
BRANCH   3  15
HETATM   15  N   UNK N   1       2.545  -2.243  -0.000  0.00  0.00    -0.113 N 
HETATM   16  O   UNK N   1       3.614  -2.778  -0.000  0.00  0.00    -0.532 OA
HETATM   17  O   UNK N   1       1.479  -3.000  -0.000  0.00  0.00    -0.532 OA
ENDBRANCH   3  15
TORSDOF 6
