MODEL 1
REMARK VINA RESULT:      -5.6      0.000      0.000
REMARK  6 active torsions:
REMARK  status: ('A' for Active; 'I' for Inactive)
REMARK    1  A    between atoms: N_1  and  C_2 
REMARK    2  A    between atoms: C_2  and  C_3 
REMARK    3  A    between atoms: C_3  and  C_4 
REMARK    4  A    between atoms: C_4  and  N_5 
REMARK    5  A    between atoms: N_5  and  C_6 
REMARK    6  A    between atoms: C_8  and  N_9 
ROOT
HETATM    1  C   UNK N   1      32.089  17.596   7.794  0.00  0.00     0.061 A 
HETATM    2  C   UNK N   1      31.272  17.245   6.709  0.00  0.00     0.031 A 
HETATM    3  C   UNK N   1      33.510  17.784   7.554  0.00  0.00     0.129 A 
HETATM    4  C   UNK N   1      31.773  17.073   5.427  0.00  0.00     0.002 A 
HETATM    5  C   UNK N   1      33.972  17.598   6.234  0.00  0.00     0.038 A 
HETATM    6  C   UNK N   1      33.124  17.249   5.188  0.00  0.00     0.003 A 
ENDROOT
BRANCH   1   7
HETATM    7  N   UNK N   1      31.378  17.723   9.024  0.00  0.00    -0.388 N 
HETATM    8  H   UNK N   1      31.694  17.119   9.733  0.00  0.00     0.159 HD
BRANCH   7   9
HETATM    9  C   UNK N   1      30.287  18.569   9.419  0.00  0.00     0.121 C 
BRANCH   9  10
HETATM   10  C   UNK N   1      29.039  17.763   9.790  0.00  0.00     0.038 C 
BRANCH  10  11
HETATM   11  C   UNK N   1      27.985  17.692   8.691  0.00  0.00     0.112 C 
BRANCH  11  12
HETATM   12  N   UNK N   1      27.473  19.020   8.421  0.00  0.00    -0.430 N 
HETATM   13  H   UNK N   1      26.647  19.358   8.914  0.00  0.00     0.149 HD
HETATM   14  H   UNK N   1      27.939  19.616   7.738  0.00  0.00     0.149 HD
ENDBRANCH  11  12
ENDBRANCH  10  11
ENDBRANCH   9  10
ENDBRANCH   7   9
ENDBRANCH   1   7
BRANCH   3  15
HETATM   15  N   UNK N   1      34.512  18.144   8.526  0.00  0.00    -0.113 N 
HETATM   16  O   UNK N   1      34.656  17.459   9.495  0.00  0.00    -0.532 OA
HETATM   17  O   UNK N   1      35.280  19.195   8.396  0.00  0.00    -0.532 OA
ENDBRANCH   3  15
TORSDOF 6
ENDMDL
MODEL 2
REMARK VINA RESULT:      -5.3      2.517      3.481
REMARK  6 active torsions:
REMARK  status: ('A' for Active; 'I' for Inactive)
REMARK    1  A    between atoms: N_1  and  C_2 
REMARK    2  A    between atoms: C_2  and  C_3 
REMARK    3  A    between atoms: C_3  and  C_4 
REMARK    4  A    between atoms: C_4  and  N_5 
REMARK    5  A    between atoms: N_5  and  C_6 
REMARK    6  A    between atoms: C_8  and  N_9 
ROOT
HETATM    1  C   UNK N   1      33.488  15.988   8.812  0.00  0.00     0.061 A 
HETATM    2  C   UNK N   1      33.373  14.982   9.782  0.00  0.00     0.031 A 
HETATM    3  C   UNK N   1      34.486  17.026   9.011  0.00  0.00     0.129 A 
HETATM    4  C   UNK N   1      34.172  14.946  10.916  0.00  0.00     0.002 A 
HETATM    5  C   UNK N   1      35.274  16.948  10.179  0.00  0.00     0.038 A 
HETATM    6  C   UNK N   1      35.124  15.930  11.114  0.00  0.00     0.003 A 
ENDROOT
BRANCH   1   7
HETATM    7  N   UNK N   1      32.575  15.840   7.727  0.00  0.00    -0.388 N 
HETATM    8  H   UNK N   1      32.738  15.045   7.171  0.00  0.00     0.159 HD
BRANCH   7   9
HETATM    9  C   UNK N   1      31.460  16.636   7.296  0.00  0.00     0.121 C 
BRANCH   9  10
HETATM   10  C   UNK N   1      31.124  17.747   8.294  0.00  0.00     0.038 C 
BRANCH  10  11
HETATM   11  C   UNK N   1      29.946  17.436   9.210  0.00  0.00     0.112 C 
BRANCH  11  12
HETATM   12  N   UNK N   1      29.764  18.518  10.154  0.00  0.00    -0.430 N 
HETATM   13  H   UNK N   1      30.535  18.803  10.759  0.00  0.00     0.149 HD
HETATM   14  H   UNK N   1      28.865  18.997  10.215  0.00  0.00     0.149 HD
ENDBRANCH  11  12
ENDBRANCH  10  11
ENDBRANCH   9  10
ENDBRANCH   7   9
ENDBRANCH   1   7
BRANCH   3  15
HETATM   15  N   UNK N   1      34.762  18.140   8.139  0.00  0.00    -0.113 N 
HETATM   16  O   UNK N   1      34.513  18.044   6.974  0.00  0.00    -0.532 OA
HETATM   17  O   UNK N   1      35.278  19.263   8.567  0.00  0.00    -0.532 OA
ENDBRANCH   3  15
TORSDOF 6
ENDMDL
MODEL 3
REMARK VINA RESULT:      -5.2      2.989      4.743
REMARK  6 active torsions:
REMARK  status: ('A' for Active; 'I' for Inactive)
REMARK    1  A    between atoms: N_1  and  C_2 
REMARK    2  A    between atoms: C_2  and  C_3 
REMARK    3  A    between atoms: C_3  and  C_4 
REMARK    4  A    between atoms: C_4  and  N_5 
REMARK    5  A    between atoms: N_5  and  C_6 
REMARK    6  A    between atoms: C_8  and  N_9 
ROOT
HETATM    1  C   UNK N   1      33.222  16.191   8.837  0.00  0.00     0.061 A 
HETATM    2  C   UNK N   1      32.269  15.538   8.042  0.00  0.00     0.031 A 
HETATM    3  C   UNK N   1      33.919  17.337   8.276  0.00  0.00     0.129 A 
HETATM    4  C   UNK N   1      31.972  15.946   6.750  0.00  0.00     0.002 A 
HETATM    5  C   UNK N   1      33.583  17.714   6.958  0.00  0.00     0.038 A 
HETATM    6  C   UNK N   1      32.629  17.036   6.207  0.00  0.00     0.003 A 
ENDROOT
BRANCH   1   7
HETATM    7  N   UNK N   1      33.376  15.614  10.132  0.00  0.00    -0.388 N 
HETATM    8  H   UNK N   1      32.734  15.947  10.798  0.00  0.00     0.159 HD
BRANCH   7   9
HETATM    9  C   UNK N   1      34.295  14.636  10.644  0.00  0.00     0.121 C 
BRANCH   9  10
HETATM   10  C   UNK N   1      35.271  14.145   9.571  0.00  0.00     0.038 C 
BRANCH  10  11
HETATM   11  C   UNK N   1      36.725  14.527   9.820  0.00  0.00     0.112 C 
BRANCH  11  12
HETATM   12  N   UNK N   1      36.812  15.373  10.992  0.00  0.00    -0.430 N 
HETATM   13  H   UNK N   1      35.962  15.744  11.418  0.00  0.00     0.149 HD
HETATM   14  H   UNK N   1      37.723  15.600  11.391  0.00  0.00     0.149 HD
ENDBRANCH  11  12
ENDBRANCH  10  11
ENDBRANCH   9  10
ENDBRANCH   7   9
ENDBRANCH   1   7
BRANCH   3  15
HETATM   15  N   UNK N   1      34.926  18.140   8.922  0.00  0.00    -0.113 N 
HETATM   16  O   UNK N   1      35.261  19.171   8.418  0.00  0.00    -0.532 OA
HETATM   17  O   UNK N   1      35.496  17.792  10.046  0.00  0.00    -0.532 OA
ENDBRANCH   3  15
TORSDOF 6
ENDMDL
MODEL 4
REMARK VINA RESULT:      -5.2     15.192     16.516
REMARK  6 active torsions:
REMARK  status: ('A' for Active; 'I' for Inactive)
REMARK    1  A    between atoms: N_1  and  C_2 
REMARK    2  A    between atoms: C_2  and  C_3 
REMARK    3  A    between atoms: C_3  and  C_4 
REMARK    4  A    between atoms: C_4  and  N_5 
REMARK    5  A    between atoms: N_5  and  C_6 
REMARK    6  A    between atoms: C_8  and  N_9 
ROOT
HETATM    1  C   UNK N   1      25.560  25.488  -5.344  0.00  0.00     0.061 A 
HETATM    2  C   UNK N   1      24.924  26.699  -5.655  0.00  0.00     0.031 A 
HETATM    3  C   UNK N   1      26.387  25.432  -4.150  0.00  0.00     0.129 A 
HETATM    4  C   UNK N   1      25.058  27.834  -4.867  0.00  0.00     0.002 A 
HETATM    5  C   UNK N   1      26.493  26.610  -3.381  0.00  0.00     0.038 A 
HETATM    6  C   UNK N   1      25.843  27.789  -3.729  0.00  0.00     0.003 A 
ENDROOT
BRANCH   1   7
HETATM    7  N   UNK N   1      25.292  24.448  -6.281  0.00  0.00    -0.388 N 
HETATM    8  H   UNK N   1      24.412  24.024  -6.168  0.00  0.00     0.159 HD
BRANCH   7   9
HETATM    9  C   UNK N   1      26.069  23.904  -7.359  0.00  0.00     0.121 C 
BRANCH   9  10
HETATM   10  C   UNK N   1      26.254  22.389  -7.230  0.00  0.00     0.038 C 
BRANCH  10  11
HETATM   11  C   UNK N   1      25.337  21.564  -8.125  0.00  0.00     0.112 C 
BRANCH  11  12
HETATM   12  N   UNK N   1      23.968  21.695  -7.671  0.00  0.00    -0.430 N 
HETATM   13  H   UNK N   1      23.595  21.044  -6.979  0.00  0.00     0.149 HD
HETATM   14  H   UNK N   1      23.376  22.437  -8.043  0.00  0.00     0.149 HD
ENDBRANCH  11  12
ENDBRANCH  10  11
ENDBRANCH   9  10
ENDBRANCH   7   9
ENDBRANCH   1   7
BRANCH   3  15
HETATM   15  N   UNK N   1      27.121  24.292  -3.658  0.00  0.00    -0.113 N 
HETATM   16  O   UNK N   1      27.883  23.731  -4.388  0.00  0.00    -0.532 OA
HETATM   17  O   UNK N   1      26.990  23.839  -2.439  0.00  0.00    -0.532 OA
ENDBRANCH   3  15
TORSDOF 6
ENDMDL
MODEL 5
REMARK VINA RESULT:      -5.0      1.625      1.987
REMARK  6 active torsions:
REMARK  status: ('A' for Active; 'I' for Inactive)
REMARK    1  A    between atoms: N_1  and  C_2 
REMARK    2  A    between atoms: C_2  and  C_3 
REMARK    3  A    between atoms: C_3  and  C_4 
REMARK    4  A    between atoms: C_4  and  N_5 
REMARK    5  A    between atoms: N_5  and  C_6 
REMARK    6  A    between atoms: C_8  and  N_9 
ROOT
HETATM    1  C   UNK N   1      31.552  17.147   6.306  0.00  0.00     0.061 A 
HETATM    2  C   UNK N   1      30.426  17.086   5.472  0.00  0.00     0.031 A 
HETATM    3  C   UNK N   1      32.866  17.185   5.686  0.00  0.00     0.129 A 
HETATM    4  C   UNK N   1      30.525  17.062   4.088  0.00  0.00     0.002 A 
HETATM    5  C   UNK N   1      32.916  17.158   4.276  0.00  0.00     0.038 A 
HETATM    6  C   UNK N   1      31.771  17.098   3.489  0.00  0.00     0.003 A 
ENDROOT
BRANCH   1   7
HETATM    7  N   UNK N   1      31.232  17.163   7.695  0.00  0.00    -0.388 N 
HETATM    8  H   UNK N   1      30.829  16.327   8.023  0.00  0.00     0.159 HD
BRANCH   7   9
HETATM    9  C   UNK N   1      31.388  18.172   8.704  0.00  0.00     0.121 C 
BRANCH   9  10
HETATM   10  C   UNK N   1      30.051  18.563   9.340  0.00  0.00     0.038 C 
BRANCH  10  11
HETATM   11  C   UNK N   1      28.880  17.673   8.941  0.00  0.00     0.112 C 
BRANCH  11  12
HETATM   12  N   UNK N   1      27.641  18.414   9.067  0.00  0.00    -0.430 N 
HETATM   13  H   UNK N   1      26.824  17.973   9.488  0.00  0.00     0.149 HD
HETATM   14  H   UNK N   1      27.587  19.376   8.734  0.00  0.00     0.149 HD
ENDBRANCH  11  12
ENDBRANCH  10  11
ENDBRANCH   9  10
ENDBRANCH   7   9
ENDBRANCH   1   7
BRANCH   3  15
HETATM   15  N   UNK N   1      34.140  17.247   6.359  0.00  0.00    -0.113 N 
HETATM   16  O   UNK N   1      34.393  18.197   7.038  0.00  0.00    -0.532 OA
HETATM   17  O   UNK N   1      35.040  16.304   6.260  0.00  0.00    -0.532 OA
ENDBRANCH   3  15
TORSDOF 6
ENDMDL
MODEL 6
REMARK VINA RESULT:      -4.9      2.754      3.214
REMARK  6 active torsions:
REMARK  status: ('A' for Active; 'I' for Inactive)
REMARK    1  A    between atoms: N_1  and  C_2 
REMARK    2  A    between atoms: C_2  and  C_3 
REMARK    3  A    between atoms: C_3  and  C_4 
REMARK    4  A    between atoms: C_4  and  N_5 
REMARK    5  A    between atoms: N_5  and  C_6 
REMARK    6  A    between atoms: C_8  and  N_9 
ROOT
HETATM    1  C   UNK N   1      31.684  17.510   8.001  0.00  0.00     0.061 A 
HETATM    2  C   UNK N   1      32.999  17.777   8.410  0.00  0.00     0.031 A 
HETATM    3  C   UNK N   1      31.445  17.224   6.596  0.00  0.00     0.129 A 
HETATM    4  C   UNK N   1      34.068  17.777   7.527  0.00  0.00     0.002 A 
HETATM    5  C   UNK N   1      32.564  17.235   5.735  0.00  0.00     0.038 A 
HETATM    6  C   UNK N   1      33.851  17.505   6.187  0.00  0.00     0.003 A 
ENDROOT
BRANCH   1   7
HETATM    7  N   UNK N   1      30.735  17.561   9.064  0.00  0.00    -0.388 N 
HETATM    8  H   UNK N   1      30.690  16.737   9.599  0.00  0.00     0.159 HD
BRANCH   7   9
HETATM    9  C   UNK N   1      29.834  18.591   9.497  0.00  0.00     0.121 C 
BRANCH   9  10
HETATM   10  C   UNK N   1      28.415  18.379   8.960  0.00  0.00     0.038 C 
BRANCH  10  11
HETATM   11  C   UNK N   1      28.090  19.184   7.707  0.00  0.00     0.112 C 
BRANCH  11  12
HETATM   12  N   UNK N   1      27.327  18.365   6.788  0.00  0.00    -0.430 N 
HETATM   13  H   UNK N   1      27.785  17.612   6.275  0.00  0.00     0.149 HD
HETATM   14  H   UNK N   1      26.331  18.542   6.654  0.00  0.00     0.149 HD
ENDBRANCH  11  12
ENDBRANCH  10  11
ENDBRANCH   9  10
ENDBRANCH   7   9
ENDBRANCH   1   7
BRANCH   3  15
HETATM   15  N   UNK N   1      30.179  16.926   5.976  0.00  0.00    -0.113 N 
HETATM   16  O   UNK N   1      29.475  16.089   6.459  0.00  0.00    -0.532 OA
HETATM   17  O   UNK N   1      29.757  17.535   4.898  0.00  0.00    -0.532 OA
ENDBRANCH   3  15
TORSDOF 6
ENDMDL
MODEL 7
REMARK VINA RESULT:      -4.9     12.678     13.698
REMARK  6 active torsions:
REMARK  status: ('A' for Active; 'I' for Inactive)
REMARK    1  A    between atoms: N_1  and  C_2 
REMARK    2  A    between atoms: C_2  and  C_3 
REMARK    3  A    between atoms: C_3  and  C_4 
REMARK    4  A    between atoms: C_4  and  N_5 
REMARK    5  A    between atoms: N_5  and  C_6 
REMARK    6  A    between atoms: C_8  and  N_9 
ROOT
HETATM    1  C   UNK N   1      29.170  23.389  -4.251  0.00  0.00     0.061 A 
HETATM    2  C   UNK N   1      28.660  23.164  -5.538  0.00  0.00     0.031 A 
HETATM    3  C   UNK N   1      30.147  22.451  -3.723  0.00  0.00     0.129 A 
HETATM    4  C   UNK N   1      29.055  22.086  -6.316  0.00  0.00     0.002 A 
HETATM    5  C   UNK N   1      30.517  21.370  -4.552  0.00  0.00     0.038 A 
HETATM    6  C   UNK N   1      29.984  21.187  -5.823  0.00  0.00     0.003 A 
ENDROOT
BRANCH   1   7
HETATM    7  N   UNK N   1      28.635  24.551  -3.622  0.00  0.00    -0.388 N 
HETATM    8  H   UNK N   1      28.618  24.503  -2.639  0.00  0.00     0.159 HD
BRANCH   7   9
HETATM    9  C   UNK N   1      28.116  25.779  -4.156  0.00  0.00     0.121 C 
BRANCH   9  10
HETATM   10  C   UNK N   1      26.673  26.036  -3.715  0.00  0.00     0.038 C 
BRANCH  10  11
HETATM   11  C   UNK N   1      26.478  27.315  -2.909  0.00  0.00     0.112 C 
BRANCH  11  12
HETATM   12  N   UNK N   1      25.493  28.154  -3.559  0.00  0.00    -0.430 N 
HETATM   13  H   UNK N   1      24.590  27.765  -3.830  0.00  0.00     0.149 HD
HETATM   14  H   UNK N   1      25.702  29.135  -3.746  0.00  0.00     0.149 HD
ENDBRANCH  11  12
ENDBRANCH  10  11
ENDBRANCH   9  10
ENDBRANCH   7   9
ENDBRANCH   1   7
BRANCH   3  15
HETATM   15  N   UNK N   1      30.788  22.502  -2.433  0.00  0.00    -0.113 N 
HETATM   16  O   UNK N   1      30.247  23.078  -1.536  0.00  0.00    -0.532 OA
HETATM   17  O   UNK N   1      31.945  21.942  -2.194  0.00  0.00    -0.532 OA
ENDBRANCH   3  15
TORSDOF 6
ENDMDL
MODEL 8
REMARK VINA RESULT:      -4.8     11.886     13.553
REMARK  6 active torsions:
REMARK  status: ('A' for Active; 'I' for Inactive)
REMARK    1  A    between atoms: N_1  and  C_2 
REMARK    2  A    between atoms: C_2  and  C_3 
REMARK    3  A    between atoms: C_3  and  C_4 
REMARK    4  A    between atoms: C_4  and  N_5 
REMARK    5  A    between atoms: N_5  and  C_6 
REMARK    6  A    between atoms: C_8  and  N_9 
ROOT
HETATM    1  C   UNK N   1      41.597  22.661   2.261  0.00  0.00     0.061 A 
HETATM    2  C   UNK N   1      40.647  21.759   1.759  0.00  0.00     0.031 A 
HETATM    3  C   UNK N   1      42.633  22.149   3.142  0.00  0.00     0.129 A 
HETATM    4  C   UNK N   1      40.665  20.408   2.072  0.00  0.00     0.002 A 
HETATM    5  C   UNK N   1      42.610  20.768   3.432  0.00  0.00     0.038 A 
HETATM    6  C   UNK N   1      41.647  19.911   2.910  0.00  0.00     0.003 A 
ENDROOT
BRANCH   1   7
HETATM    7  N   UNK N   1      41.400  24.001   1.818  0.00  0.00    -0.388 N 
HETATM    8  H   UNK N   1      41.656  24.684   2.479  0.00  0.00     0.159 HD
BRANCH   7   9
HETATM    9  C   UNK N   1      40.897  24.541   0.585  0.00  0.00     0.121 C 
BRANCH   9  10
HETATM   10  C   UNK N   1      41.972  25.309  -0.189  0.00  0.00     0.038 C 
BRANCH  10  11
HETATM   11  C   UNK N   1      43.370  24.709  -0.088  0.00  0.00     0.112 C 
BRANCH  11  12
HETATM   12  N   UNK N   1      44.220  25.585   0.693  0.00  0.00    -0.430 N 
HETATM   13  H   UNK N   1      43.858  26.025   1.539  0.00  0.00     0.149 HD
HETATM   14  H   UNK N   1      45.179  25.761   0.397  0.00  0.00     0.149 HD
ENDBRANCH  11  12
ENDBRANCH  10  11
ENDBRANCH   9  10
ENDBRANCH   7   9
ENDBRANCH   1   7
BRANCH   3  15
HETATM   15  N   UNK N   1      43.695  22.903   3.761  0.00  0.00    -0.113 N 
HETATM   16  O   UNK N   1      43.969  23.984   3.329  0.00  0.00    -0.532 OA
HETATM   17  O   UNK N   1      44.379  22.457   4.781  0.00  0.00    -0.532 OA
ENDBRANCH   3  15
TORSDOF 6
ENDMDL
MODEL 9
REMARK VINA RESULT:      -4.7      1.784      2.382
REMARK  6 active torsions:
REMARK  status: ('A' for Active; 'I' for Inactive)
REMARK    1  A    between atoms: N_1  and  C_2 
REMARK    2  A    between atoms: C_2  and  C_3 
REMARK    3  A    between atoms: C_3  and  C_4 
REMARK    4  A    between atoms: C_4  and  N_5 
REMARK    5  A    between atoms: N_5  and  C_6 
REMARK    6  A    between atoms: C_8  and  N_9 
ROOT
HETATM    1  C   UNK N   1      31.123  16.895   5.726  0.00  0.00     0.061 A 
HETATM    2  C   UNK N   1      30.601  16.538   4.474  0.00  0.00     0.031 A 
HETATM    3  C   UNK N   1      32.487  17.391   5.788  0.00  0.00     0.129 A 
HETATM    4  C   UNK N   1      31.339  16.643   3.304  0.00  0.00     0.002 A 
HETATM    5  C   UNK N   1      33.198  17.480   4.572  0.00  0.00     0.038 A 
HETATM    6  C   UNK N   1      32.639  17.114   3.353  0.00  0.00     0.003 A 
ENDROOT
BRANCH   1   7
HETATM    7  N   UNK N   1      30.202  16.711   6.799  0.00  0.00    -0.388 N 
HETATM    8  H   UNK N   1      30.590  16.273   7.590  0.00  0.00     0.159 HD
BRANCH   7   9
HETATM    9  C   UNK N   1      28.813  17.048   6.940  0.00  0.00     0.121 C 
BRANCH   9  10
HETATM   10  C   UNK N   1      28.446  17.387   8.388  0.00  0.00     0.038 C 
BRANCH  10  11
HETATM   11  C   UNK N   1      29.027  18.703   8.893  0.00  0.00     0.112 C 
BRANCH  11  12
HETATM   12  N   UNK N   1      30.039  18.435   9.894  0.00  0.00    -0.430 N 
HETATM   13  H   UNK N   1      30.104  19.025  10.724  0.00  0.00     0.149 HD
HETATM   14  H   UNK N   1      30.686  17.656   9.770  0.00  0.00     0.149 HD
ENDBRANCH  11  12
ENDBRANCH  10  11
ENDBRANCH   9  10
ENDBRANCH   7   9
ENDBRANCH   1   7
BRANCH   3  15
HETATM   15  N   UNK N   1      33.205  17.808   6.967  0.00  0.00    -0.113 N 
HETATM   16  O   UNK N   1      34.385  17.987   6.898  0.00  0.00    -0.532 OA
HETATM   17  O   UNK N   1      32.620  18.002   8.120  0.00  0.00    -0.532 OA
ENDBRANCH   3  15
TORSDOF 6
ENDMDL
