REMARK  2 active torsions:
REMARK  status: ('A' for Active; 'I' for Inactive)
REMARK    1  A    between atoms: C_4  and  O_19 
REMARK    2  A    between atoms: C_6  and  O_20 
ROOT
HETATM    1  C   UNK N   1      -0.385  -1.278   0.516  0.00  0.00     0.296 C 
HETATM    2  C   UNK N   1      -1.731  -0.674   0.254  0.00  0.00     0.081 A 
HETATM    3  O   UNK N   1      -0.050  -2.471  -0.043  0.00  0.00    -0.317 OA
HETATM    4  C   UNK N   1      -2.779  -1.487  -0.242  0.00  0.00     0.085 A 
HETATM    5  C   UNK N   1      -4.037  -0.946  -0.488  0.00  0.00     0.076 A 
HETATM    6  C   UNK N   1      -4.291   0.400  -0.254  0.00  0.00     0.090 A 
HETATM    7  C   UNK N   1      -3.278   1.235   0.231  0.00  0.00     0.075 A 
HETATM    8  C   UNK N   1      -1.985   0.714   0.484  0.00  0.00    -0.008 A 
HETATM    9  C   UNK N   1      -0.888   1.634   0.983  0.00  0.00     0.119 C 
HETATM   10  C   UNK N   1      -0.294   2.497  -0.108  0.00  0.00     0.131 C 
HETATM   11  C   UNK N   1       1.160   2.427  -0.494  0.00  0.00     0.079 C 
HETATM   12  C   UNK N   1       1.996   1.461   0.325  0.00  0.00     0.011 C 
HETATM   13  C   UNK N   1       2.902   0.685  -0.610  0.00  0.00     0.027 C 
HETATM   14  C   UNK N   1       3.630  -0.385   0.142  0.00  0.00    -0.031 C 
HETATM   15  C   UNK N   1       3.320  -1.683   0.021  0.00  0.00    -0.029 C 
HETATM   16  C   UNK N   1       2.189  -2.170  -0.832  0.00  0.00     0.053 C 
HETATM   17  C   UNK N   1       1.227  -2.992   0.020  0.00  0.00     0.183 C 
HETATM   18  O   UNK N   1       0.423  -0.697   1.222  0.00  0.00    -0.259 OA
HETATM   19 Cl   UNK N   1      -3.658   2.934   0.529  0.00  0.00    -0.081 Cl
HETATM   20  O   UNK N   1      -1.003   3.298  -0.694  0.00  0.00    -0.298 OA
ENDROOT
BRANCH   4  21
HETATM   21  O   UNK N   1      -2.594  -2.801  -0.463  0.00  0.00    -0.360 OA
HETATM   22  H   UNK N   1      -3.322  -3.370  -0.617  0.00  0.00     0.217 HD
ENDBRANCH   4  21
BRANCH   6  23
HETATM   23  O   UNK N   1      -5.519   0.889  -0.499  0.00  0.00    -0.359 OA
HETATM   24  H   UNK N   1      -5.652   1.800  -0.669  0.00  0.00     0.217 HD
ENDBRANCH   6  23
TORSDOF 2
