MODEL 1
REMARK VINA RESULT:      -7.1      0.000      0.000
REMARK  2 active torsions:
REMARK  status: ('A' for Active; 'I' for Inactive)
REMARK    1  A    between atoms: C_4  and  O_19 
REMARK    2  A    between atoms: C_6  and  O_20 
ROOT
HETATM    1  C   UNK N   1      30.168  16.765   4.747  0.00  0.00     0.296 C 
HETATM    2  C   UNK N   1      29.336  17.646   5.629  0.00  0.00     0.081 A 
HETATM    3  O   UNK N   1      30.266  17.026   3.416  0.00  0.00    -0.317 OA
HETATM    4  C   UNK N   1      28.364  18.498   5.051  0.00  0.00     0.085 A 
HETATM    5  C   UNK N   1      27.578  19.320   5.853  0.00  0.00     0.076 A 
HETATM    6  C   UNK N   1      27.731  19.324   7.234  0.00  0.00     0.090 A 
HETATM    7  C   UNK N   1      28.686  18.499   7.840  0.00  0.00     0.075 A 
HETATM    8  C   UNK N   1      29.505  17.656   7.048  0.00  0.00    -0.008 A 
HETATM    9  C   UNK N   1      30.554  16.787   7.713  0.00  0.00     0.119 C 
HETATM   10  C   UNK N   1      31.791  17.556   8.121  0.00  0.00     0.131 C 
HETATM   11  C   UNK N   1      33.157  17.243   7.570  0.00  0.00     0.079 C 
HETATM   12  C   UNK N   1      33.209  16.068   6.611  0.00  0.00     0.011 C 
HETATM   13  C   UNK N   1      34.086  16.439   5.431  0.00  0.00     0.027 C 
HETATM   14  C   UNK N   1      34.037  15.365   4.390  0.00  0.00    -0.031 C 
HETATM   15  C   UNK N   1      33.376  15.517   3.234  0.00  0.00    -0.029 C 
HETATM   16  C   UNK N   1      32.587  16.748   2.908  0.00  0.00     0.053 C 
HETATM   17  C   UNK N   1      31.147  16.360   2.588  0.00  0.00     0.183 C 
HETATM   18  O   UNK N   1      30.772  15.817   5.219  0.00  0.00    -0.259 OA
HETATM   19 Cl   UNK N   1      28.827  18.527   9.600  0.00  0.00    -0.081 Cl
HETATM   20  O   UNK N   1      31.698  18.454   8.941  0.00  0.00    -0.298 OA
ENDROOT
BRANCH   4  21
HETATM   21  O   UNK N   1      28.158  18.516   3.721  0.00  0.00    -0.360 OA
HETATM   22  H   UNK N   1      28.739  18.069   3.138  0.00  0.00     0.217 HD
ENDBRANCH   4  21
BRANCH   6  23
HETATM   23  O   UNK N   1      26.954  20.128   7.979  0.00  0.00    -0.359 OA
HETATM   24  H   UNK N   1      26.063  20.295   7.742  0.00  0.00     0.217 HD
ENDBRANCH   6  23
TORSDOF 2
ENDMDL
MODEL 2
REMARK VINA RESULT:      -6.9     11.612     13.983
REMARK  2 active torsions:
REMARK  status: ('A' for Active; 'I' for Inactive)
REMARK    1  A    between atoms: C_4  and  O_19 
REMARK    2  A    between atoms: C_6  and  O_20 
ROOT
HETATM    1  C   UNK N   1      28.072  23.428  -5.524  0.00  0.00     0.296 C 
HETATM    2  C   UNK N   1      27.341  22.808  -6.676  0.00  0.00     0.081 A 
HETATM    3  O   UNK N   1      27.391  23.830  -4.419  0.00  0.00    -0.317 OA
HETATM    4  C   UNK N   1      25.940  22.979  -6.791  0.00  0.00     0.085 A 
HETATM    5  C   UNK N   1      25.244  22.415  -7.855  0.00  0.00     0.076 A 
HETATM    6  C   UNK N   1      25.907  21.671  -8.824  0.00  0.00     0.090 A 
HETATM    7  C   UNK N   1      27.290  21.476  -8.740  0.00  0.00     0.075 A 
HETATM    8  C   UNK N   1      28.025  22.033  -7.664  0.00  0.00    -0.008 A 
HETATM    9  C   UNK N   1      29.518  21.791  -7.569  0.00  0.00     0.119 C 
HETATM   10  C   UNK N   1      29.866  20.413  -7.053  0.00  0.00     0.131 C 
HETATM   11  C   UNK N   1      30.645  20.196  -5.782  0.00  0.00     0.079 C 
HETATM   12  C   UNK N   1      31.098  21.465  -5.083  0.00  0.00     0.011 C 
HETATM   13  C   UNK N   1      30.854  21.316  -3.595  0.00  0.00     0.027 C 
HETATM   14  C   UNK N   1      31.144  22.604  -2.890  0.00  0.00    -0.031 C 
HETATM   15  C   UNK N   1      30.172  23.390  -2.406  0.00  0.00    -0.029 C 
HETATM   16  C   UNK N   1      28.717  23.077  -2.575  0.00  0.00     0.053 C 
HETATM   17  C   UNK N   1      28.022  24.248  -3.264  0.00  0.00     0.183 C 
HETATM   18  O   UNK N   1      29.284  23.565  -5.566  0.00  0.00    -0.259 OA
HETATM   19 Cl   UNK N   1      28.087  20.538 -10.008  0.00  0.00    -0.081 Cl
HETATM   20  O   UNK N   1      29.524  19.429  -7.688  0.00  0.00    -0.298 OA
ENDROOT
BRANCH   4  21
HETATM   21  O   UNK N   1      25.254  23.710  -5.894  0.00  0.00    -0.360 OA
HETATM   22  H   UNK N   1      24.480  23.371  -5.490  0.00  0.00     0.217 HD
ENDBRANCH   4  21
BRANCH   6  23
HETATM   23  O   UNK N   1      25.204  21.142  -9.841  0.00  0.00    -0.359 OA
HETATM   24  H   UNK N   1      24.416  21.545 -10.145  0.00  0.00     0.217 HD
ENDBRANCH   6  23
TORSDOF 2
ENDMDL
MODEL 3
REMARK VINA RESULT:      -6.7      1.664      3.854
REMARK  2 active torsions:
REMARK  status: ('A' for Active; 'I' for Inactive)
REMARK    1  A    between atoms: C_4  and  O_19 
REMARK    2  A    between atoms: C_6  and  O_20 
ROOT
HETATM    1  C   UNK N   1      32.155  16.758   6.583  0.00  0.00     0.296 C 
HETATM    2  C   UNK N   1      30.886  17.163   7.268  0.00  0.00     0.081 A 
HETATM    3  O   UNK N   1      33.019  15.903   7.192  0.00  0.00    -0.317 OA
HETATM    4  C   UNK N   1      30.755  16.979   8.666  0.00  0.00     0.085 A 
HETATM    5  C   UNK N   1      29.586  17.352   9.322  0.00  0.00     0.076 A 
HETATM    6  C   UNK N   1      28.524  17.910   8.620  0.00  0.00     0.090 A 
HETATM    7  C   UNK N   1      28.615  18.102   7.237  0.00  0.00     0.075 A 
HETATM    8  C   UNK N   1      29.791  17.725   6.541  0.00  0.00    -0.008 A 
HETATM    9  C   UNK N   1      29.868  17.912   5.039  0.00  0.00     0.119 C 
HETATM   10  C   UNK N   1      29.109  16.855   4.268  0.00  0.00     0.131 C 
HETATM   11  C   UNK N   1      29.782  15.922   3.296  0.00  0.00     0.079 C 
HETATM   12  C   UNK N   1      31.270  16.153   3.110  0.00  0.00     0.011 C 
HETATM   13  C   UNK N   1      31.976  14.812   3.104  0.00  0.00     0.027 C 
HETATM   14  C   UNK N   1      33.460  15.006   3.078  0.00  0.00    -0.031 C 
HETATM   15  C   UNK N   1      34.230  14.780   4.150  0.00  0.00    -0.029 C 
HETATM   16  C   UNK N   1      33.672  14.367   5.477  0.00  0.00     0.053 C 
HETATM   17  C   UNK N   1      34.113  15.362   6.546  0.00  0.00     0.183 C 
HETATM   18  O   UNK N   1      32.416  17.183   5.469  0.00  0.00    -0.259 OA
HETATM   19 Cl   UNK N   1      27.245  18.832   6.396  0.00  0.00    -0.081 Cl
HETATM   20  O   UNK N   1      27.902  16.753   4.416  0.00  0.00    -0.298 OA
ENDROOT
BRANCH   4  21
HETATM   21  O   UNK N   1      31.761  16.465   9.396  0.00  0.00    -0.360 OA
HETATM   22  H   UNK N   1      32.621  16.376   9.035  0.00  0.00     0.217 HD
ENDBRANCH   4  21
BRANCH   6  23
HETATM   23  O   UNK N   1      27.410  18.262   9.286  0.00  0.00    -0.359 OA
HETATM   24  H   UNK N   1      26.792  18.858   8.913  0.00  0.00     0.217 HD
ENDBRANCH   6  23
TORSDOF 2
ENDMDL
MODEL 4
REMARK VINA RESULT:      -6.7     10.966     13.507
REMARK  2 active torsions:
REMARK  status: ('A' for Active; 'I' for Inactive)
REMARK    1  A    between atoms: C_4  and  O_19 
REMARK    2  A    between atoms: C_6  and  O_20 
ROOT
HETATM    1  C   UNK N   1      28.821  22.859  -6.754  0.00  0.00     0.296 C 
HETATM    2  C   UNK N   1      29.780  21.954  -6.043  0.00  0.00     0.081 A 
HETATM    3  O   UNK N   1      28.025  22.373  -7.743  0.00  0.00    -0.317 OA
HETATM    4  C   UNK N   1      30.140  20.716  -6.630  0.00  0.00     0.085 A 
HETATM    5  C   UNK N   1      31.032  19.863  -5.988  0.00  0.00     0.076 A 
HETATM    6  C   UNK N   1      31.587  20.206  -4.761  0.00  0.00     0.090 A 
HETATM    7  C   UNK N   1      31.250  21.419  -4.149  0.00  0.00     0.075 A 
HETATM    8  C   UNK N   1      30.339  22.304  -4.775  0.00  0.00    -0.008 A 
HETATM    9  C   UNK N   1      29.961  23.603  -4.090  0.00  0.00     0.119 C 
HETATM   10  C   UNK N   1      28.962  23.415  -2.970  0.00  0.00     0.131 C 
HETATM   11  C   UNK N   1      27.599  24.056  -2.984  0.00  0.00     0.079 C 
HETATM   12  C   UNK N   1      27.320  24.944  -4.183  0.00  0.00     0.011 C 
HETATM   13  C   UNK N   1      25.920  24.659  -4.687  0.00  0.00     0.027 C 
HETATM   14  C   UNK N   1      25.665  25.402  -5.961  0.00  0.00    -0.031 C 
HETATM   15  C   UNK N   1      25.619  24.790  -7.151  0.00  0.00    -0.029 C 
HETATM   16  C   UNK N   1      25.870  23.322  -7.318  0.00  0.00     0.053 C 
HETATM   17  C   UNK N   1      27.007  23.111  -8.313  0.00  0.00     0.183 C 
HETATM   18  O   UNK N   1      28.739  24.036  -6.441  0.00  0.00    -0.259 OA
HETATM   19 Cl   UNK N   1      31.997  21.815  -2.598  0.00  0.00    -0.081 Cl
HETATM   20  O   UNK N   1      29.263  22.735  -2.003  0.00  0.00    -0.298 OA
ENDROOT
BRANCH   4  21
HETATM   21  O   UNK N   1      29.651  20.346  -7.827  0.00  0.00    -0.360 OA
HETATM   22  H   UNK N   1      30.147  19.795  -8.400  0.00  0.00     0.217 HD
ENDBRANCH   4  21
BRANCH   6  23
HETATM   23  O   UNK N   1      32.448  19.360  -4.170  0.00  0.00    -0.359 OA
HETATM   24  H   UNK N   1      32.910  18.715  -4.667  0.00  0.00     0.217 HD
ENDBRANCH   6  23
TORSDOF 2
ENDMDL
MODEL 5
REMARK VINA RESULT:      -6.7      5.597      8.835
REMARK  2 active torsions:
REMARK  status: ('A' for Active; 'I' for Inactive)
REMARK    1  A    between atoms: C_4  and  O_19 
REMARK    2  A    between atoms: C_6  and  O_20 
ROOT
HETATM    1  C   UNK N   1      22.917  19.419   3.683  0.00  0.00     0.296 C 
HETATM    2  C   UNK N   1      24.406  19.301   3.800  0.00  0.00     0.081 A 
HETATM    3  O   UNK N   1      22.367  20.201   2.716  0.00  0.00    -0.317 OA
HETATM    4  C   UNK N   1      25.237  20.267   3.182  0.00  0.00     0.085 A 
HETATM    5  C   UNK N   1      26.621  20.177   3.282  0.00  0.00     0.076 A 
HETATM    6  C   UNK N   1      27.218  19.139   3.988  0.00  0.00     0.090 A 
HETATM    7  C   UNK N   1      26.429  18.163   4.608  0.00  0.00     0.075 A 
HETATM    8  C   UNK N   1      25.016  18.225   4.517  0.00  0.00    -0.008 A 
HETATM    9  C   UNK N   1      24.173  17.147   5.169  0.00  0.00     0.119 C 
HETATM   10  C   UNK N   1      24.138  15.859   4.377  0.00  0.00     0.131 C 
HETATM   11  C   UNK N   1      22.861  15.283   3.825  0.00  0.00     0.079 C 
HETATM   12  C   UNK N   1      21.605  16.064   4.163  0.00  0.00     0.011 C 
HETATM   13  C   UNK N   1      20.741  16.162   2.921  0.00  0.00     0.027 C 
HETATM   14  C   UNK N   1      19.568  17.057   3.174  0.00  0.00    -0.031 C 
HETATM   15  C   UNK N   1      19.482  18.289   2.655  0.00  0.00    -0.029 C 
HETATM   16  C   UNK N   1      20.570  18.896   1.824  0.00  0.00     0.053 C 
HETATM   17  C   UNK N   1      21.012  20.215   2.450  0.00  0.00     0.183 C 
HETATM   18  O   UNK N   1      22.189  18.805   4.446  0.00  0.00    -0.259 OA
HETATM   19 Cl   UNK N   1      27.236  16.876   5.509  0.00  0.00    -0.081 Cl
HETATM   20  O   UNK N   1      25.173  15.242   4.185  0.00  0.00    -0.298 OA
ENDROOT
BRANCH   4  21
HETATM   21  O   UNK N   1      24.711  21.305   2.506  0.00  0.00    -0.360 OA
HETATM   22  H   UNK N   1      24.062  21.169   1.845  0.00  0.00     0.217 HD
ENDBRANCH   4  21
BRANCH   6  23
HETATM   23  O   UNK N   1      28.558  19.085   4.068  0.00  0.00    -0.359 OA
HETATM   24  H   UNK N   1      28.984  18.742   4.829  0.00  0.00     0.217 HD
ENDBRANCH   6  23
TORSDOF 2
ENDMDL
MODEL 6
REMARK VINA RESULT:      -6.6      5.742      8.172
REMARK  2 active torsions:
REMARK  status: ('A' for Active; 'I' for Inactive)
REMARK    1  A    between atoms: C_4  and  O_19 
REMARK    2  A    between atoms: C_6  and  O_20 
ROOT
HETATM    1  C   UNK N   1      24.653  16.828   4.272  0.00  0.00     0.296 C 
HETATM    2  C   UNK N   1      23.295  16.654   3.663  0.00  0.00     0.081 A 
HETATM    3  O   UNK N   1      25.644  15.938   3.999  0.00  0.00    -0.317 OA
HETATM    4  C   UNK N   1      22.923  15.397   3.127  0.00  0.00     0.085 A 
HETATM    5  C   UNK N   1      21.665  15.214   2.561  0.00  0.00     0.076 A 
HETATM    6  C   UNK N   1      20.750  16.259   2.509  0.00  0.00     0.090 A 
HETATM    7  C   UNK N   1      21.084  17.516   3.024  0.00  0.00     0.075 A 
HETATM    8  C   UNK N   1      22.360  17.734   3.600  0.00  0.00    -0.008 A 
HETATM    9  C   UNK N   1      22.721  19.108   4.130  0.00  0.00     0.119 C 
HETATM   10  C   UNK N   1      23.080  20.091   3.038  0.00  0.00     0.131 C 
HETATM   11  C   UNK N   1      24.434  20.744   2.949  0.00  0.00     0.079 C 
HETATM   12  C   UNK N   1      25.397  20.379   4.063  0.00  0.00     0.011 C 
HETATM   13  C   UNK N   1      26.763  20.116   3.461  0.00  0.00     0.027 C 
HETATM   14  C   UNK N   1      27.702  19.603   4.509  0.00  0.00    -0.031 C 
HETATM   15  C   UNK N   1      28.091  18.322   4.556  0.00  0.00    -0.029 C 
HETATM   16  C   UNK N   1      27.582  17.284   3.603  0.00  0.00     0.053 C 
HETATM   17  C   UNK N   1      26.953  16.138   4.388  0.00  0.00     0.183 C 
HETATM   18  O   UNK N   1      24.881  17.775   5.007  0.00  0.00    -0.259 OA
HETATM   19 Cl   UNK N   1      19.878  18.804   2.950  0.00  0.00    -0.081 Cl
HETATM   20  O   UNK N   1      22.244  20.391   2.201  0.00  0.00    -0.298 OA
ENDROOT
BRANCH   4  21
HETATM   21  O   UNK N   1      23.762  14.346   3.173  0.00  0.00    -0.360 OA
HETATM   22  H   UNK N   1      24.684  14.462   3.059  0.00  0.00     0.217 HD
ENDBRANCH   4  21
BRANCH   6  23
HETATM   23  O   UNK N   1      19.542  16.046   1.958  0.00  0.00    -0.359 OA
HETATM   24  H   UNK N   1      19.109  15.221   2.045  0.00  0.00     0.217 HD
ENDBRANCH   6  23
TORSDOF 2
ENDMDL
MODEL 7
REMARK VINA RESULT:      -6.6      7.894     10.774
REMARK  2 active torsions:
REMARK  status: ('A' for Active; 'I' for Inactive)
REMARK    1  A    between atoms: C_4  and  O_19 
REMARK    2  A    between atoms: C_6  and  O_20 
ROOT
HETATM    1  C   UNK N   1      36.465  13.117  13.048  0.00  0.00     0.296 C 
HETATM    2  C   UNK N   1      36.202  13.433  11.607  0.00  0.00     0.081 A 
HETATM    3  O   UNK N   1      36.434  14.105  13.982  0.00  0.00    -0.317 OA
HETATM    4  C   UNK N   1      36.300  14.771  11.154  0.00  0.00     0.085 A 
HETATM    5  C   UNK N   1      36.064  15.084   9.819  0.00  0.00     0.076 A 
HETATM    6  C   UNK N   1      35.727  14.094   8.905  0.00  0.00     0.090 A 
HETATM    7  C   UNK N   1      35.616  12.761   9.318  0.00  0.00     0.075 A 
HETATM    8  C   UNK N   1      35.844  12.413  10.672  0.00  0.00    -0.008 A 
HETATM    9  C   UNK N   1      35.693  10.970  11.113  0.00  0.00     0.119 C 
HETATM   10  C   UNK N   1      34.251  10.546  11.278  0.00  0.00     0.131 C 
HETATM   11  C   UNK N   1      33.690  10.080  12.596  0.00  0.00     0.079 C 
HETATM   12  C   UNK N   1      34.690  10.021  13.735  0.00  0.00     0.011 C 
HETATM   13  C   UNK N   1      34.047  10.598  14.980  0.00  0.00     0.027 C 
HETATM   14  C   UNK N   1      35.052  10.700  16.085  0.00  0.00    -0.031 C 
HETATM   15  C   UNK N   1      35.566  11.873  16.480  0.00  0.00    -0.029 C 
HETATM   16  C   UNK N   1      35.220  13.173  15.821  0.00  0.00     0.053 C 
HETATM   17  C   UNK N   1      36.497  13.853  15.338  0.00  0.00     0.183 C 
HETATM   18  O   UNK N   1      36.696  11.970  13.395  0.00  0.00    -0.259 OA
HETATM   19 Cl   UNK N   1      35.203  11.538   8.112  0.00  0.00    -0.081 Cl
HETATM   20  O   UNK N   1      33.506  10.559  10.312  0.00  0.00    -0.298 OA
ENDROOT
BRANCH   4  21
HETATM   21  O   UNK N   1      36.647  15.765  11.992  0.00  0.00    -0.360 OA
HETATM   22  H   UNK N   1      36.636  16.658  11.710  0.00  0.00     0.217 HD
ENDBRANCH   4  21
BRANCH   6  23
HETATM   23  O   UNK N   1      35.509  14.430   7.622  0.00  0.00    -0.359 OA
HETATM   24  H   UNK N   1      35.038  13.862   7.046  0.00  0.00     0.217 HD
ENDBRANCH   6  23
TORSDOF 2
ENDMDL
MODEL 8
REMARK VINA RESULT:      -6.5      7.651      9.491
REMARK  2 active torsions:
REMARK  status: ('A' for Active; 'I' for Inactive)
REMARK    1  A    between atoms: C_4  and  O_19 
REMARK    2  A    between atoms: C_6  and  O_20 
ROOT
HETATM    1  C   UNK N   1      21.392  15.086   6.841  0.00  0.00     0.296 C 
HETATM    2  C   UNK N   1      21.302  14.261   8.088  0.00  0.00     0.081 A 
HETATM    3  O   UNK N   1      20.736  16.274   6.758  0.00  0.00    -0.317 OA
HETATM    4  C   UNK N   1      20.261  14.506   9.016  0.00  0.00     0.085 A 
HETATM    5  C   UNK N   1      20.158  13.748  10.179  0.00  0.00     0.076 A 
HETATM    6  C   UNK N   1      21.073  12.739  10.454  0.00  0.00     0.090 A 
HETATM    7  C   UNK N   1      22.118  12.472   9.562  0.00  0.00     0.075 A 
HETATM    8  C   UNK N   1      22.253  13.232   8.374  0.00  0.00    -0.008 A 
HETATM    9  C   UNK N   1      23.405  12.953   7.429  0.00  0.00     0.119 C 
HETATM   10  C   UNK N   1      24.720  13.527   7.909  0.00  0.00     0.131 C 
HETATM   11  C   UNK N   1      25.487  14.558   7.124  0.00  0.00     0.079 C 
HETATM   12  C   UNK N   1      24.869  14.944   5.793  0.00  0.00     0.011 C 
HETATM   13  C   UNK N   1      24.944  16.449   5.638  0.00  0.00     0.027 C 
HETATM   14  C   UNK N   1      24.206  16.882   4.409  0.00  0.00    -0.031 C 
HETATM   15  C   UNK N   1      23.021  17.505   4.468  0.00  0.00    -0.029 C 
HETATM   16  C   UNK N   1      22.310  17.774   5.758  0.00  0.00     0.053 C 
HETATM   17  C   UNK N   1      20.917  17.155   5.710  0.00  0.00     0.183 C 
HETATM   18  O   UNK N   1      22.064  14.704   5.897  0.00  0.00    -0.259 OA
HETATM   19 Cl   UNK N   1      23.243  11.167   9.949  0.00  0.00    -0.081 Cl
HETATM   20  O   UNK N   1      25.198  13.136   8.960  0.00  0.00    -0.298 OA
ENDROOT
BRANCH   4  21
HETATM   21  O   UNK N   1      19.335  15.454   8.788  0.00  0.00    -0.360 OA
HETATM   22  H   UNK N   1      19.468  16.336   9.075  0.00  0.00     0.217 HD
ENDBRANCH   4  21
BRANCH   6  23
HETATM   23  O   UNK N   1      20.942  12.023  11.584  0.00  0.00    -0.359 OA
HETATM   24  H   UNK N   1      21.458  12.216  12.341  0.00  0.00     0.217 HD
ENDBRANCH   6  23
TORSDOF 2
ENDMDL
MODEL 9
REMARK VINA RESULT:      -6.5     14.344     16.208
REMARK  2 active torsions:
REMARK  status: ('A' for Active; 'I' for Inactive)
REMARK    1  A    between atoms: C_4  and  O_19 
REMARK    2  A    between atoms: C_6  and  O_20 
ROOT
HETATM    1  C   UNK N   1      26.952  26.595  -7.910  0.00  0.00     0.296 C 
HETATM    2  C   UNK N   1      27.337  27.766  -7.058  0.00  0.00     0.081 A 
HETATM    3  O   UNK N   1      27.787  26.157  -8.889  0.00  0.00    -0.317 OA
HETATM    4  C   UNK N   1      28.359  28.644  -7.496  0.00  0.00     0.085 A 
HETATM    5  C   UNK N   1      28.729  29.739  -6.722  0.00  0.00     0.076 A 
HETATM    6  C   UNK N   1      28.107  29.993  -5.505  0.00  0.00     0.090 A 
HETATM    7  C   UNK N   1      27.097  29.144  -5.038  0.00  0.00     0.075 A 
HETATM    8  C   UNK N   1      26.704  28.017  -5.802  0.00  0.00    -0.008 A 
HETATM    9  C   UNK N   1      25.628  27.089  -5.273  0.00  0.00     0.119 C 
HETATM   10  C   UNK N   1      26.130  26.149  -4.199  0.00  0.00     0.131 C 
HETATM   11  C   UNK N   1      26.101  24.651  -4.356  0.00  0.00     0.079 C 
HETATM   12  C   UNK N   1      25.488  24.153  -5.651  0.00  0.00     0.011 C 
HETATM   13  C   UNK N   1      26.352  23.038  -6.204  0.00  0.00     0.027 C 
HETATM   14  C   UNK N   1      25.866  22.626  -7.558  0.00  0.00    -0.031 C 
HETATM   15  C   UNK N   1      26.524  22.940  -8.682  0.00  0.00    -0.029 C 
HETATM   16  C   UNK N   1      27.770  23.772  -8.686  0.00  0.00     0.053 C 
HETATM   17  C   UNK N   1      27.568  24.986  -9.587  0.00  0.00     0.183 C 
HETATM   18  O   UNK N   1      25.892  26.020  -7.722  0.00  0.00    -0.259 OA
HETATM   19 Cl   UNK N   1      26.326  29.522  -3.495  0.00  0.00    -0.081 Cl
HETATM   20  O   UNK N   1      26.560  26.606  -3.153  0.00  0.00    -0.298 OA
ENDROOT
BRANCH   4  21
HETATM   21  O   UNK N   1      28.976  28.458  -8.676  0.00  0.00    -0.360 OA
HETATM   22  H   UNK N   1      28.698  27.783  -9.264  0.00  0.00     0.217 HD
ENDBRANCH   4  21
BRANCH   6  23
HETATM   23  O   UNK N   1      28.486  31.062  -4.784  0.00  0.00    -0.359 OA
HETATM   24  H   UNK N   1      28.280  31.932  -5.063  0.00  0.00     0.217 HD
ENDBRANCH   6  23
TORSDOF 2
ENDMDL
