REMARK  2 active torsions:
REMARK  status: ('A' for Active; 'I' for Inactive)
REMARK    1  A    between atoms: C_4  and  O_19 
REMARK    2  A    between atoms: C_6  and  O_20 
ROOT
HETATM    1  C   UNK N   1      -0.774   2.190  -0.123  0.00  0.00     0.296 C 
HETATM    2  O   UNK N   1       0.524   1.800  -0.109  0.00  0.00    -0.317 OA
HETATM    3  C   UNK N   1      -1.895   1.195  -0.276  0.00  0.00     0.081 A 
HETATM    4  C   UNK N   1      -3.242   1.643  -0.191  0.00  0.00     0.085 A 
HETATM    5  C   UNK N   1      -4.298   0.747  -0.299  0.00  0.00     0.076 A 
HETATM    6  C   UNK N   1      -4.066  -0.605  -0.503  0.00  0.00     0.090 A 
HETATM    7  C   UNK N   1      -2.758  -1.087  -0.607  0.00  0.00     0.075 A 
HETATM    8  C   UNK N   1      -1.658  -0.200  -0.489  0.00  0.00    -0.008 A 
HETATM    9  C   UNK N   1      -0.255  -0.754  -0.614  0.00  0.00     0.119 C 
HETATM   10  C   UNK N   1       0.146  -1.701   0.498  0.00  0.00     0.131 C 
HETATM   11  C   UNK N   1       1.437  -2.472   0.452  0.00  0.00     0.079 C 
HETATM   12  C   UNK N   1       2.272  -2.229  -0.795  0.00  0.00     0.011 C 
HETATM   13  C   UNK N   1       3.608  -1.622  -0.404  0.00  0.00     0.027 C 
HETATM   14  C   UNK N   1       3.556  -0.145  -0.585  0.00  0.00    -0.031 C 
HETATM   15  C   UNK N   1       3.012   0.643   0.337  0.00  0.00    -0.029 C 
HETATM   16  C   UNK N   1       2.920   2.104   0.063  0.00  0.00     0.053 C 
HETATM   17  C   UNK N   1       1.523   2.659   0.307  0.00  0.00     0.183 C 
HETATM   18  O   UNK N   1      -1.038   3.378   0.028  0.00  0.00    -0.259 OA
HETATM   19 Cl   UNK N   1      -2.519  -2.814  -0.896  0.00  0.00    -0.081 Cl
HETATM   20  O   UNK N   1      -0.589  -1.863   1.459  0.00  0.00    -0.298 OA
ENDROOT
BRANCH   4  21
HETATM   21  O   UNK N   1      -3.535   2.942   0.006  0.00  0.00    -0.360 OA
HETATM   22  H   UNK N   1      -2.854   3.571   0.142  0.00  0.00     0.217 HD
ENDBRANCH   4  21
BRANCH   6  23
HETATM   23  O   UNK N   1      -5.113  -1.443  -0.601  0.00  0.00    -0.359 OA
HETATM   24  H   UNK N   1      -5.983  -1.104  -0.670  0.00  0.00     0.217 HD
ENDBRANCH   6  23
TORSDOF 2
