MODEL 1
REMARK VINA RESULT:      -7.4      0.000      0.000
REMARK  2 active torsions:
REMARK  status: ('A' for Active; 'I' for Inactive)
REMARK    1  A    between atoms: C_4  and  O_19 
REMARK    2  A    between atoms: C_6  and  O_20 
ROOT
HETATM    1  C   UNK N   1      23.892  20.262   3.302  0.00  0.00     0.296 C 
HETATM    2  O   UNK N   1      25.008  19.618   3.722  0.00  0.00    -0.317 OA
HETATM    3  C   UNK N   1      22.557  19.567   3.238  0.00  0.00     0.081 A 
HETATM    4  C   UNK N   1      21.399  20.312   2.881  0.00  0.00     0.085 A 
HETATM    5  C   UNK N   1      20.149  19.707   2.841  0.00  0.00     0.076 A 
HETATM    6  C   UNK N   1      20.000  18.361   3.138  0.00  0.00     0.090 A 
HETATM    7  C   UNK N   1      21.113  17.588   3.480  0.00  0.00     0.075 A 
HETATM    8  C   UNK N   1      22.401  18.178   3.542  0.00  0.00    -0.008 A 
HETATM    9  C   UNK N   1      23.586  17.310   3.909  0.00  0.00     0.119 C 
HETATM   10  C   UNK N   1      23.555  16.774   5.325  0.00  0.00     0.131 C 
HETATM   11  C   UNK N   1      24.561  15.766   5.810  0.00  0.00     0.079 C 
HETATM   12  C   UNK N   1      25.575  15.334   4.763  0.00  0.00     0.011 C 
HETATM   13  C   UNK N   1      26.972  15.718   5.218  0.00  0.00     0.027 C 
HETATM   14  C   UNK N   1      27.376  16.994   4.565  0.00  0.00    -0.031 C 
HETATM   15  C   UNK N   1      26.978  18.168   5.044  0.00  0.00    -0.029 C 
HETATM   16  C   UNK N   1      27.350  19.404   4.302  0.00  0.00     0.053 C 
HETATM   17  C   UNK N   1      26.156  20.315   4.045  0.00  0.00     0.183 C 
HETATM   18  O   UNK N   1      23.970  21.449   3.002  0.00  0.00    -0.259 OA
HETATM   19 Cl   UNK N   1      20.871  15.871   3.821  0.00  0.00    -0.081 Cl
HETATM   20  O   UNK N   1      22.694  17.151   6.104  0.00  0.00    -0.298 OA
ENDROOT
BRANCH   4  21
HETATM   21  O   UNK N   1      21.476  21.622   2.582  0.00  0.00    -0.360 OA
HETATM   22  H   UNK N   1      20.760  22.060   2.165  0.00  0.00     0.217 HD
ENDBRANCH   4  21
BRANCH   6  23
HETATM   23  O   UNK N   1      18.774  17.811   3.090  0.00  0.00    -0.359 OA
HETATM   24  H   UNK N   1      18.667  16.888   3.205  0.00  0.00     0.217 HD
ENDBRANCH   6  23
TORSDOF 2
ENDMDL
MODEL 2
REMARK VINA RESULT:      -7.3     10.757     13.153
REMARK  2 active torsions:
REMARK  status: ('A' for Active; 'I' for Inactive)
REMARK    1  A    between atoms: C_4  and  O_19 
REMARK    2  A    between atoms: C_6  and  O_20 
ROOT
HETATM    1  C   UNK N   1      30.358  22.418  -2.910  0.00  0.00     0.296 C 
HETATM    2  O   UNK N   1      29.227  22.954  -3.430  0.00  0.00    -0.317 OA
HETATM    3  C   UNK N   1      31.260  21.531  -3.730  0.00  0.00     0.081 A 
HETATM    4  C   UNK N   1      32.482  21.069  -3.168  0.00  0.00     0.085 A 
HETATM    5  C   UNK N   1      33.349  20.274  -3.907  0.00  0.00     0.076 A 
HETATM    6  C   UNK N   1      33.040  19.903  -5.207  0.00  0.00     0.090 A 
HETATM    7  C   UNK N   1      31.843  20.322  -5.794  0.00  0.00     0.075 A 
HETATM    8  C   UNK N   1      30.942  21.144  -5.070  0.00  0.00    -0.008 A 
HETATM    9  C   UNK N   1      29.651  21.575  -5.733  0.00  0.00     0.119 C 
HETATM   10  C   UNK N   1      29.834  22.495  -6.922  0.00  0.00     0.131 C 
HETATM   11  C   UNK N   1      28.678  22.891  -7.800  0.00  0.00     0.079 C 
HETATM   12  C   UNK N   1      27.345  22.279  -7.400  0.00  0.00     0.011 C 
HETATM   13  C   UNK N   1      26.368  23.381  -7.029  0.00  0.00     0.027 C 
HETATM   14  C   UNK N   1      26.333  23.538  -5.549  0.00  0.00    -0.031 C 
HETATM   15  C   UNK N   1      27.260  24.246  -4.910  0.00  0.00    -0.029 C 
HETATM   16  C   UNK N   1      27.215  24.301  -3.422  0.00  0.00     0.053 C 
HETATM   17  C   UNK N   1      28.559  23.976  -2.783  0.00  0.00     0.183 C 
HETATM   18  O   UNK N   1      30.668  22.692  -1.756  0.00  0.00    -0.259 OA
HETATM   19 Cl   UNK N   1      31.485  19.796  -7.442  0.00  0.00    -0.081 Cl
HETATM   20  O   UNK N   1      30.941  22.929  -7.195  0.00  0.00    -0.298 OA
ENDROOT
BRANCH   4  21
HETATM   21  O   UNK N   1      32.840  21.394  -1.912  0.00  0.00    -0.360 OA
HETATM   22  H   UNK N   1      33.361  22.155  -1.744  0.00  0.00     0.217 HD
ENDBRANCH   4  21
BRANCH   6  23
HETATM   23  O   UNK N   1      33.904  19.134  -5.892  0.00  0.00    -0.359 OA
HETATM   24  H   UNK N   1      34.423  19.504  -6.578  0.00  0.00     0.217 HD
ENDBRANCH   6  23
TORSDOF 2
ENDMDL
MODEL 3
REMARK VINA RESULT:      -7.1     10.742     13.091
REMARK  2 active torsions:
REMARK  status: ('A' for Active; 'I' for Inactive)
REMARK    1  A    between atoms: C_4  and  O_19 
REMARK    2  A    between atoms: C_6  and  O_20 
ROOT
HETATM    1  C   UNK N   1      27.881  23.296  -7.259  0.00  0.00     0.296 C 
HETATM    2  O   UNK N   1      27.164  24.434  -7.095  0.00  0.00    -0.317 OA
HETATM    3  C   UNK N   1      28.740  22.738  -6.154  0.00  0.00     0.081 A 
HETATM    4  C   UNK N   1      29.398  21.492  -6.344  0.00  0.00     0.085 A 
HETATM    5  C   UNK N   1      30.174  20.936  -5.334  0.00  0.00     0.076 A 
HETATM    6  C   UNK N   1      30.334  21.587  -4.120  0.00  0.00     0.090 A 
HETATM    7  C   UNK N   1      29.717  22.820  -3.896  0.00  0.00     0.075 A 
HETATM    8  C   UNK N   1      28.909  23.409  -4.902  0.00  0.00    -0.008 A 
HETATM    9  C   UNK N   1      28.261  24.749  -4.628  0.00  0.00     0.119 C 
HETATM   10  C   UNK N   1      27.214  24.727  -3.534  0.00  0.00     0.131 C 
HETATM   11  C   UNK N   1      26.586  25.992  -3.016  0.00  0.00     0.079 C 
HETATM   12  C   UNK N   1      27.102  27.265  -3.668  0.00  0.00     0.011 C 
HETATM   13  C   UNK N   1      25.963  27.971  -4.382  0.00  0.00     0.027 C 
HETATM   14  C   UNK N   1      26.002  27.637  -5.832  0.00  0.00    -0.031 C 
HETATM   15  C   UNK N   1      25.487  26.501  -6.292  0.00  0.00    -0.029 C 
HETATM   16  C   UNK N   1      25.626  26.189  -7.741  0.00  0.00     0.053 C 
HETATM   17  C   UNK N   1      26.173  24.790  -7.990  0.00  0.00     0.183 C 
HETATM   18  O   UNK N   1      27.797  22.691  -8.322  0.00  0.00    -0.259 OA
HETATM   19 Cl   UNK N   1      29.978  23.621  -2.342  0.00  0.00    -0.081 Cl
HETATM   20  O   UNK N   1      26.866  23.666  -3.041  0.00  0.00    -0.298 OA
ENDROOT
BRANCH   4  21
HETATM   21  O   UNK N   1      29.283  20.810  -7.499  0.00  0.00    -0.360 OA
HETATM   22  H   UNK N   1      30.022  20.370  -7.871  0.00  0.00     0.217 HD
ENDBRANCH   4  21
BRANCH   6  23
HETATM   23  O   UNK N   1      31.091  21.017  -3.166  0.00  0.00    -0.359 OA
HETATM   24  H   UNK N   1      32.022  21.117  -3.181  0.00  0.00     0.217 HD
ENDBRANCH   6  23
TORSDOF 2
ENDMDL
MODEL 4
REMARK VINA RESULT:      -6.9      6.337      8.909
REMARK  2 active torsions:
REMARK  status: ('A' for Active; 'I' for Inactive)
REMARK    1  A    between atoms: C_4  and  O_19 
REMARK    2  A    between atoms: C_6  and  O_20 
ROOT
HETATM    1  C   UNK N   1      30.997  16.740   4.640  0.00  0.00     0.296 C 
HETATM    2  O   UNK N   1      32.154  16.124   4.982  0.00  0.00    -0.317 OA
HETATM    3  C   UNK N   1      30.084  17.338   5.679  0.00  0.00     0.081 A 
HETATM    4  C   UNK N   1      28.929  18.055   5.264  0.00  0.00     0.085 A 
HETATM    5  C   UNK N   1      28.083  18.642   6.196  0.00  0.00     0.076 A 
HETATM    6  C   UNK N   1      28.338  18.536   7.555  0.00  0.00     0.090 A 
HETATM    7  C   UNK N   1      29.454  17.828   8.009  0.00  0.00     0.075 A 
HETATM    8  C   UNK N   1      30.344  17.227   7.082  0.00  0.00    -0.008 A 
HETATM    9  C   UNK N   1      31.539  16.461   7.607  0.00  0.00     0.119 C 
HETATM   10  C   UNK N   1      32.564  17.315   8.326  0.00  0.00     0.131 C 
HETATM   11  C   UNK N   1      33.730  16.704   9.053  0.00  0.00     0.079 C 
HETATM   12  C   UNK N   1      33.772  15.185   9.014  0.00  0.00     0.011 C 
HETATM   13  C   UNK N   1      35.036  14.728   8.307  0.00  0.00     0.027 C 
HETATM   14  C   UNK N   1      34.722  14.400   6.889  0.00  0.00    -0.031 C 
HETATM   15  C   UNK N   1      34.637  15.351   5.964  0.00  0.00    -0.029 C 
HETATM   16  C   UNK N   1      34.244  14.968   4.580  0.00  0.00     0.053 C 
HETATM   17  C   UNK N   1      33.114  15.830   4.032  0.00  0.00     0.183 C 
HETATM   18  O   UNK N   1      30.707  16.842   3.453  0.00  0.00    -0.259 OA
HETATM   19 Cl   UNK N   1      29.717  17.698   9.751  0.00  0.00    -0.081 Cl
HETATM   20  O   UNK N   1      32.450  18.530   8.334  0.00  0.00    -0.298 OA
ENDROOT
BRANCH   4  21
HETATM   21  O   UNK N   1      28.625  18.195   3.960  0.00  0.00    -0.360 OA
HETATM   22  H   UNK N   1      28.380  19.030   3.613  0.00  0.00     0.217 HD
ENDBRANCH   4  21
BRANCH   6  23
HETATM   23  O   UNK N   1      27.497  19.119   8.428  0.00  0.00    -0.359 OA
HETATM   24  H   UNK N   1      27.500  18.861   9.328  0.00  0.00     0.217 HD
ENDBRANCH   6  23
TORSDOF 2
ENDMDL
MODEL 5
REMARK VINA RESULT:      -6.8      3.899      5.020
REMARK  2 active torsions:
REMARK  status: ('A' for Active; 'I' for Inactive)
REMARK    1  A    between atoms: C_4  and  O_19 
REMARK    2  A    between atoms: C_6  and  O_20 
ROOT
HETATM    1  C   UNK N   1      20.977  17.620   5.704  0.00  0.00     0.296 C 
HETATM    2  O   UNK N   1      21.064  16.476   6.427  0.00  0.00    -0.317 OA
HETATM    3  C   UNK N   1      20.820  17.596   4.206  0.00  0.00     0.081 A 
HETATM    4  C   UNK N   1      20.640  18.819   3.504  0.00  0.00     0.085 A 
HETATM    5  C   UNK N   1      20.464  18.829   2.126  0.00  0.00     0.076 A 
HETATM    6  C   UNK N   1      20.470  17.648   1.399  0.00  0.00     0.090 A 
HETATM    7  C   UNK N   1      20.659  16.424   2.046  0.00  0.00     0.075 A 
HETATM    8  C   UNK N   1      20.829  16.379   3.453  0.00  0.00    -0.008 A 
HETATM    9  C   UNK N   1      21.039  15.037   4.122  0.00  0.00     0.119 C 
HETATM   10  C   UNK N   1      19.846  14.106   4.046  0.00  0.00     0.131 C 
HETATM   11  C   UNK N   1      19.929  12.677   4.509  0.00  0.00     0.079 C 
HETATM   12  C   UNK N   1      21.295  12.262   5.032  0.00  0.00     0.011 C 
HETATM   13  C   UNK N   1      21.182  11.862   6.493  0.00  0.00     0.027 C 
HETATM   14  C   UNK N   1      21.595  13.004   7.355  0.00  0.00    -0.031 C 
HETATM   15  C   UNK N   1      20.754  13.993   7.637  0.00  0.00    -0.029 C 
HETATM   16  C   UNK N   1      21.250  15.145   8.441  0.00  0.00     0.053 C 
HETATM   17  C   UNK N   1      20.925  16.488   7.801  0.00  0.00     0.183 C 
HETATM   18  O   UNK N   1      20.991  18.696   6.292  0.00  0.00    -0.259 OA
HETATM   19 Cl   UNK N   1      20.688  14.952   1.069  0.00  0.00    -0.081 Cl
HETATM   20  O   UNK N   1      18.786  14.505   3.591  0.00  0.00    -0.298 OA
ENDROOT
BRANCH   4  21
HETATM   21  O   UNK N   1      20.623  20.000   4.150  0.00  0.00    -0.360 OA
HETATM   22  H   UNK N   1      20.696  20.806   3.677  0.00  0.00     0.217 HD
ENDBRANCH   4  21
BRANCH   6  23
HETATM   23  O   UNK N   1      20.295  17.697   0.067  0.00  0.00    -0.359 OA
HETATM   24  H   UNK N   1      19.435  17.784  -0.293  0.00  0.00     0.217 HD
ENDBRANCH   6  23
TORSDOF 2
ENDMDL
MODEL 6
REMARK VINA RESULT:      -6.8     16.827     19.534
REMARK  2 active torsions:
REMARK  status: ('A' for Active; 'I' for Inactive)
REMARK    1  A    between atoms: C_4  and  O_19 
REMARK    2  A    between atoms: C_6  and  O_20 
ROOT
HETATM    1  C   UNK N   1      35.586   9.285  17.129  0.00  0.00     0.296 C 
HETATM    2  O   UNK N   1      35.907   9.455  15.823  0.00  0.00    -0.317 OA
HETATM    3  C   UNK N   1      35.365  10.460  18.046  0.00  0.00     0.081 A 
HETATM    4  C   UNK N   1      34.938  10.231  19.383  0.00  0.00     0.085 A 
HETATM    5  C   UNK N   1      34.698  11.293  20.246  0.00  0.00     0.076 A 
HETATM    6  C   UNK N   1      34.878  12.603  19.828  0.00  0.00     0.090 A 
HETATM    7  C   UNK N   1      35.311  12.874  18.527  0.00  0.00     0.075 A 
HETATM    8  C   UNK N   1      35.553  11.813  17.619  0.00  0.00    -0.008 A 
HETATM    9  C   UNK N   1      36.028  12.141  16.220  0.00  0.00     0.119 C 
HETATM   10  C   UNK N   1      35.016  12.886  15.374  0.00  0.00     0.131 C 
HETATM   11  C   UNK N   1      35.372  13.438  14.020  0.00  0.00     0.079 C 
HETATM   12  C   UNK N   1      36.812  13.196  13.599  0.00  0.00     0.011 C 
HETATM   13  C   UNK N   1      36.842  12.342  12.344  0.00  0.00     0.027 C 
HETATM   14  C   UNK N   1      37.087  10.921  12.715  0.00  0.00    -0.031 C 
HETATM   15  C   UNK N   1      36.099  10.138  13.135  0.00  0.00    -0.029 C 
HETATM   16  C   UNK N   1      36.421   8.749  13.565  0.00  0.00     0.053 C 
HETATM   17  C   UNK N   1      35.834   8.406  14.928  0.00  0.00     0.183 C 
HETATM   18  O   UNK N   1      35.437   8.147  17.560  0.00  0.00    -0.259 OA
HETATM   19 Cl   UNK N   1      35.553  14.560  18.056  0.00  0.00    -0.081 Cl
HETATM   20  O   UNK N   1      33.882  13.062  15.789  0.00  0.00    -0.298 OA
ENDROOT
BRANCH   4  21
HETATM   21  O   UNK N   1      34.744   8.983  19.850  0.00  0.00    -0.360 OA
HETATM   22  H   UNK N   1      34.121   8.412  19.445  0.00  0.00     0.217 HD
ENDBRANCH   4  21
BRANCH   6  23
HETATM   23  O   UNK N   1      34.634  13.606  20.690  0.00  0.00    -0.359 OA
HETATM   24  H   UNK N   1      34.291  13.422  21.542  0.00  0.00     0.217 HD
ENDBRANCH   6  23
TORSDOF 2
ENDMDL
MODEL 7
REMARK VINA RESULT:      -6.8     10.736     12.891
REMARK  2 active torsions:
REMARK  status: ('A' for Active; 'I' for Inactive)
REMARK    1  A    between atoms: C_4  and  O_19 
REMARK    2  A    between atoms: C_6  and  O_20 
ROOT
HETATM    1  C   UNK N   1      35.230  16.514   9.837  0.00  0.00     0.296 C 
HETATM    2  O   UNK N   1      35.424  15.392  10.572  0.00  0.00    -0.317 OA
HETATM    3  C   UNK N   1      34.655  16.456   8.445  0.00  0.00     0.081 A 
HETATM    4  C   UNK N   1      34.384  17.668   7.751  0.00  0.00     0.085 A 
HETATM    5  C   UNK N   1      33.826  17.650   6.479  0.00  0.00     0.076 A 
HETATM    6  C   UNK N   1      33.530  16.450   5.849  0.00  0.00     0.090 A 
HETATM    7  C   UNK N   1      33.793  15.235   6.489  0.00  0.00     0.075 A 
HETATM    8  C   UNK N   1      34.350  15.220   7.793  0.00  0.00    -0.008 A 
HETATM    9  C   UNK N   1      34.629  13.887   8.453  0.00  0.00     0.119 C 
HETATM   10  C   UNK N   1      33.392  13.072   8.767  0.00  0.00     0.131 C 
HETATM   11  C   UNK N   1      33.484  11.658   9.272  0.00  0.00     0.079 C 
HETATM   12  C   UNK N   1      34.903  11.132   9.416  0.00  0.00     0.011 C 
HETATM   13  C   UNK N   1      35.176  10.793  10.871  0.00  0.00     0.027 C 
HETATM   14  C   UNK N   1      35.909  11.917  11.515  0.00  0.00    -0.031 C 
HETATM   15  C   UNK N   1      35.266  12.991  11.963  0.00  0.00    -0.029 C 
HETATM   16  C   UNK N   1      36.063  14.116  12.527  0.00  0.00     0.053 C 
HETATM   17  C   UNK N   1      35.682  15.463  11.927  0.00  0.00     0.183 C 
HETATM   18  O   UNK N   1      35.499  17.603  10.334  0.00  0.00    -0.259 OA
HETATM   19 Cl   UNK N   1      33.423  13.736   5.630  0.00  0.00    -0.081 Cl
HETATM   20  O   UNK N   1      32.283  13.555   8.604  0.00  0.00    -0.298 OA
ENDROOT
BRANCH   4  21
HETATM   21  O   UNK N   1      34.648  18.865   8.307  0.00  0.00    -0.360 OA
HETATM   22  H   UNK N   1      35.520  19.091   8.564  0.00  0.00     0.217 HD
ENDBRANCH   4  21
BRANCH   6  23
HETATM   23  O   UNK N   1      32.989  16.471   4.618  0.00  0.00    -0.359 OA
HETATM   24  H   UNK N   1      32.329  15.851   4.383  0.00  0.00     0.217 HD
ENDBRANCH   6  23
TORSDOF 2
ENDMDL
MODEL 8
REMARK VINA RESULT:      -6.8      1.980      3.937
REMARK  2 active torsions:
REMARK  status: ('A' for Active; 'I' for Inactive)
REMARK    1  A    between atoms: C_4  and  O_19 
REMARK    2  A    between atoms: C_6  and  O_20 
ROOT
HETATM    1  C   UNK N   1      25.656  17.701   4.618  0.00  0.00     0.296 C 
HETATM    2  O   UNK N   1      25.301  16.597   5.319  0.00  0.00    -0.317 OA
HETATM    3  C   UNK N   1      24.624  18.638   4.046  0.00  0.00     0.081 A 
HETATM    4  C   UNK N   1      25.047  19.831   3.399  0.00  0.00     0.085 A 
HETATM    5  C   UNK N   1      24.120  20.730   2.886  0.00  0.00     0.076 A 
HETATM    6  C   UNK N   1      22.759  20.481   2.982  0.00  0.00     0.090 A 
HETATM    7  C   UNK N   1      22.299  19.313   3.597  0.00  0.00     0.075 A 
HETATM    8  C   UNK N   1      23.219  18.382   4.142  0.00  0.00    -0.008 A 
HETATM    9  C   UNK N   1      22.687  17.124   4.794  0.00  0.00     0.119 C 
HETATM   10  C   UNK N   1      21.891  17.364   6.060  0.00  0.00     0.131 C 
HETATM   11  C   UNK N   1      21.150  16.251   6.750  0.00  0.00     0.079 C 
HETATM   12  C   UNK N   1      21.261  14.899   6.063  0.00  0.00     0.011 C 
HETATM   13  C   UNK N   1      21.941  13.909   6.992  0.00  0.00     0.027 C 
HETATM   14  C   UNK N   1      23.384  13.806   6.639  0.00  0.00    -0.031 C 
HETATM   15  C   UNK N   1      24.265  14.704   7.071  0.00  0.00    -0.029 C 
HETATM   16  C   UNK N   1      25.679  14.590   6.620  0.00  0.00     0.053 C 
HETATM   17  C   UNK N   1      26.227  15.902   6.073  0.00  0.00     0.183 C 
HETATM   18  O   UNK N   1      26.847  17.958   4.479  0.00  0.00    -0.259 OA
HETATM   19 Cl   UNK N   1      20.556  19.031   3.668  0.00  0.00    -0.081 Cl
HETATM   20  O   UNK N   1      21.828  18.484   6.541  0.00  0.00    -0.298 OA
ENDROOT
BRANCH   4  21
HETATM   21  O   UNK N   1      26.353  20.132   3.272  0.00  0.00    -0.360 OA
HETATM   22  H   UNK N   1      26.947  19.995   3.984  0.00  0.00     0.217 HD
ENDBRANCH   4  21
BRANCH   6  23
HETATM   23  O   UNK N   1      21.891  21.375   2.476  0.00  0.00    -0.359 OA
HETATM   24  H   UNK N   1      21.146  21.084   1.989  0.00  0.00     0.217 HD
ENDBRANCH   6  23
TORSDOF 2
ENDMDL
MODEL 9
REMARK VINA RESULT:      -6.7     11.225     12.359
REMARK  2 active torsions:
REMARK  status: ('A' for Active; 'I' for Inactive)
REMARK    1  A    between atoms: C_4  and  O_19 
REMARK    2  A    between atoms: C_6  and  O_20 
ROOT
HETATM    1  C   UNK N   1      27.458  22.975  -7.194  0.00  0.00     0.296 C 
HETATM    2  O   UNK N   1      28.437  22.301  -6.544  0.00  0.00    -0.317 OA
HETATM    3  C   UNK N   1      26.825  24.209  -6.605  0.00  0.00     0.081 A 
HETATM    4  C   UNK N   1      25.868  24.934  -7.367  0.00  0.00     0.085 A 
HETATM    5  C   UNK N   1      25.287  26.091  -6.865  0.00  0.00     0.076 A 
HETATM    6  C   UNK N   1      25.617  26.563  -5.603  0.00  0.00     0.090 A 
HETATM    7  C   UNK N   1      26.542  25.874  -4.813  0.00  0.00     0.075 A 
HETATM    8  C   UNK N   1      27.162  24.696  -5.302  0.00  0.00    -0.008 A 
HETATM    9  C   UNK N   1      28.153  23.971  -4.419  0.00  0.00     0.119 C 
HETATM   10  C   UNK N   1      29.422  24.746  -4.132  0.00  0.00     0.131 C 
HETATM   11  C   UNK N   1      30.444  24.253  -3.144  0.00  0.00     0.079 C 
HETATM   12  C   UNK N   1      30.081  22.943  -2.464  0.00  0.00     0.011 C 
HETATM   13  C   UNK N   1      31.117  21.886  -2.808  0.00  0.00     0.027 C 
HETATM   14  C   UNK N   1      30.611  21.036  -3.921  0.00  0.00    -0.031 C 
HETATM   15  C   UNK N   1      30.703  21.432  -5.186  0.00  0.00    -0.029 C 
HETATM   16  C   UNK N   1      30.108  20.573  -6.248  0.00  0.00     0.053 C 
HETATM   17  C   UNK N   1      29.204  21.352  -7.193  0.00  0.00     0.183 C 
HETATM   18  O   UNK N   1      27.108  22.589  -8.304  0.00  0.00    -0.259 OA
HETATM   19 Cl   UNK N   1      26.905  26.502  -3.202  0.00  0.00    -0.081 Cl
HETATM   20  O   UNK N   1      29.634  25.806  -4.700  0.00  0.00    -0.298 OA
ENDROOT
BRANCH   4  21
HETATM   21  O   UNK N   1      25.504  24.530  -8.599  0.00  0.00    -0.360 OA
HETATM   22  H   UNK N   1      24.600  24.480  -8.838  0.00  0.00     0.217 HD
ENDBRANCH   4  21
BRANCH   6  23
HETATM   23  O   UNK N   1      25.036  27.688  -5.150  0.00  0.00    -0.359 OA
HETATM   24  H   UNK N   1      24.615  27.697  -4.314  0.00  0.00     0.217 HD
ENDBRANCH   6  23
TORSDOF 2
ENDMDL
