MODEL 1
REMARK VINA RESULT:      -6.0      0.000      0.000
REMARK  5 active torsions:
REMARK  status: ('A' for Active; 'I' for Inactive)
REMARK    1  A    between atoms: C_1  and  C_7 
REMARK    2  A    between atoms: C_3  and  N_9 
REMARK    3  A    between atoms: C_4  and  O_12 
REMARK    4  A    between atoms: C_7  and  C_8 
REMARK    5  A    between atoms: C_8  and  O_14 
ROOT
HETATM    1  C   UNK N   1      30.971  17.229   8.109  0.00  0.00    -0.046 A 
HETATM    2  C   UNK N   1      32.179  17.611   8.690  0.00  0.00     0.046 A 
HETATM    3  C   UNK N   1      33.342  17.776   7.937  0.00  0.00     0.136 A 
HETATM    4  C   UNK N   1      33.285  17.547   6.543  0.00  0.00     0.098 A 
HETATM    5  C   UNK N   1      32.075  17.163   5.951  0.00  0.00     0.039 A 
HETATM    6  C   UNK N   1      30.923  17.003   6.729  0.00  0.00     0.010 A 
ENDROOT
BRANCH   1   7
HETATM    7  C   UNK N   1      29.719  17.052   8.932  0.00  0.00     0.148 C 
BRANCH   7   8
HETATM    8  C   UNK N   1      29.030  18.291   9.471  0.00  0.00     0.143 C 
HETATM    9  O   UNK N   1      29.627  19.002  10.259  0.00  0.00    -0.650 OA
BRANCH   8  10
HETATM   10  O   UNK N   1      27.776  18.631   9.106  0.00  0.00    -0.776 OA
HETATM   11  H   UNK N   1      27.162  17.966   8.866  0.00  0.00     0.167 HD
ENDBRANCH   8  10
ENDBRANCH   7   8
ENDBRANCH   1   7
BRANCH   3  12
HETATM   12  N   UNK N   1      34.543  18.169   8.602  0.00  0.00    -0.113 N 
HETATM   13  O   UNK N   1      35.074  17.421   9.542  0.00  0.00    -0.532 OA
HETATM   14  O   UNK N   1      35.079  19.195   8.302  0.00  0.00    -0.532 OA
ENDBRANCH   3  12
BRANCH   4  15
HETATM   15  O   UNK N   1      34.374  17.691   5.768  0.00  0.00    -0.358 OA
HETATM   16  H   UNK N   1      34.948  18.420   5.897  0.00  0.00     0.217 HD
ENDBRANCH   4  15
TORSDOF 5
ENDMDL
MODEL 2
REMARK VINA RESULT:      -5.6     10.566     11.621
REMARK  5 active torsions:
REMARK  status: ('A' for Active; 'I' for Inactive)
REMARK    1  A    between atoms: C_1  and  C_7 
REMARK    2  A    between atoms: C_3  and  N_9 
REMARK    3  A    between atoms: C_4  and  O_12 
REMARK    4  A    between atoms: C_7  and  C_8 
REMARK    5  A    between atoms: C_8  and  O_14 
ROOT
HETATM    1  C   UNK N   1      22.290  12.613  10.175  0.00  0.00    -0.046 A 
HETATM    2  C   UNK N   1      21.421  13.701  10.123  0.00  0.00     0.046 A 
HETATM    3  C   UNK N   1      21.240  14.449   8.960  0.00  0.00     0.136 A 
HETATM    4  C   UNK N   1      21.964  14.085   7.801  0.00  0.00     0.098 A 
HETATM    5  C   UNK N   1      22.840  12.993   7.843  0.00  0.00     0.039 A 
HETATM    6  C   UNK N   1      23.004  12.260   9.024  0.00  0.00     0.010 A 
ENDROOT
BRANCH   1   7
HETATM    7  C   UNK N   1      22.479  11.811  11.438  0.00  0.00     0.148 C 
BRANCH   7   8
HETATM    8  C   UNK N   1      23.712  12.076  12.283  0.00  0.00     0.143 C 
HETATM    9  O   UNK N   1      23.606  12.078  13.496  0.00  0.00    -0.650 OA
BRANCH   8  10
HETATM   10  O   UNK N   1      24.921  12.309  11.732  0.00  0.00    -0.776 OA
HETATM   11  H   UNK N   1      25.659  11.791  11.985  0.00  0.00     0.167 HD
ENDBRANCH   8  10
ENDBRANCH   7   8
ENDBRANCH   1   7
BRANCH   3  12
HETATM   12  N   UNK N   1      20.332  15.551   8.983  0.00  0.00    -0.113 N 
HETATM   13  O   UNK N   1      19.057  15.374   9.249  0.00  0.00    -0.532 OA
HETATM   14  O   UNK N   1      20.732  16.655   8.758  0.00  0.00    -0.532 OA
ENDBRANCH   3  12
BRANCH   4  15
HETATM   15  O   UNK N   1      21.829  14.770   6.652  0.00  0.00    -0.358 OA
HETATM   16  H   UNK N   1      22.448  15.437   6.428  0.00  0.00     0.217 HD
ENDBRANCH   4  15
TORSDOF 5
ENDMDL
MODEL 3
REMARK VINA RESULT:      -5.5      9.195     10.891
REMARK  5 active torsions:
REMARK  status: ('A' for Active; 'I' for Inactive)
REMARK    1  A    between atoms: C_1  and  C_7 
REMARK    2  A    between atoms: C_3  and  N_9 
REMARK    3  A    between atoms: C_4  and  O_12 
REMARK    4  A    between atoms: C_7  and  C_8 
REMARK    5  A    between atoms: C_8  and  O_14 
ROOT
HETATM    1  C   UNK N   1      21.764  19.681   3.232  0.00  0.00    -0.046 A 
HETATM    2  C   UNK N   1      23.017  20.251   3.017  0.00  0.00     0.046 A 
HETATM    3  C   UNK N   1      24.163  19.784   3.662  0.00  0.00     0.136 A 
HETATM    4  C   UNK N   1      24.040  18.698   4.559  0.00  0.00     0.098 A 
HETATM    5  C   UNK N   1      22.784  18.118   4.781  0.00  0.00     0.039 A 
HETATM    6  C   UNK N   1      21.651  18.607   4.122  0.00  0.00     0.010 A 
ENDROOT
BRANCH   1   7
HETATM    7  C   UNK N   1      20.531  20.194   2.530  0.00  0.00     0.148 C 
BRANCH   7   8
HETATM    8  C   UNK N   1      20.668  20.689   1.103  0.00  0.00     0.143 C 
HETATM    9  O   UNK N   1      20.750  21.887   0.899  0.00  0.00    -0.650 OA
BRANCH   8  10
HETATM   10  O   UNK N   1      20.701  19.845   0.051  0.00  0.00    -0.776 OA
HETATM   11  H   UNK N   1      19.971  19.284  -0.124  0.00  0.00     0.167 HD
ENDBRANCH   8  10
ENDBRANCH   7   8
ENDBRANCH   1   7
BRANCH   3  12
HETATM   12  N   UNK N   1      25.413  20.418   3.391  0.00  0.00    -0.113 N 
HETATM   13  O   UNK N   1      25.690  20.890   2.197  0.00  0.00    -0.532 OA
HETATM   14  O   UNK N   1      26.225  20.526   4.262  0.00  0.00    -0.532 OA
ENDBRANCH   3  12
BRANCH   4  15
HETATM   15  O   UNK N   1      25.110  18.207   5.208  0.00  0.00    -0.358 OA
HETATM   16  H   UNK N   1      25.105  17.323   5.519  0.00  0.00     0.217 HD
ENDBRANCH   4  15
TORSDOF 5
ENDMDL
MODEL 4
REMARK VINA RESULT:      -5.4      1.792      2.982
REMARK  5 active torsions:
REMARK  status: ('A' for Active; 'I' for Inactive)
REMARK    1  A    between atoms: C_1  and  C_7 
REMARK    2  A    between atoms: C_3  and  N_9 
REMARK    3  A    between atoms: C_4  and  O_12 
REMARK    4  A    between atoms: C_7  and  C_8 
REMARK    5  A    between atoms: C_8  and  O_14 
ROOT
HETATM    1  C   UNK N   1      30.501  17.355   7.431  0.00  0.00    -0.046 A 
HETATM    2  C   UNK N   1      31.095  17.065   6.204  0.00  0.00     0.046 A 
HETATM    3  C   UNK N   1      32.462  17.235   5.985  0.00  0.00     0.136 A 
HETATM    4  C   UNK N   1      33.263  17.716   7.046  0.00  0.00     0.098 A 
HETATM    5  C   UNK N   1      32.675  18.011   8.283  0.00  0.00     0.039 A 
HETATM    6  C   UNK N   1      31.301  17.832   8.475  0.00  0.00     0.010 A 
ENDROOT
BRANCH   1   7
HETATM    7  C   UNK N   1      29.021  17.169   7.657  0.00  0.00     0.148 C 
BRANCH   7   8
HETATM    8  C   UNK N   1      28.223  18.336   8.207  0.00  0.00     0.143 C 
HETATM    9  O   UNK N   1      28.218  19.388   7.594  0.00  0.00    -0.650 OA
BRANCH   8  10
HETATM   10  O   UNK N   1      27.519  18.246   9.354  0.00  0.00    -0.776 OA
HETATM   11  H   UNK N   1      26.888  18.904   9.570  0.00  0.00     0.167 HD
ENDBRANCH   8  10
ENDBRANCH   7   8
ENDBRANCH   1   7
BRANCH   3  12
HETATM   12  N   UNK N   1      32.999  16.917   4.701  0.00  0.00    -0.113 N 
HETATM   13  O   UNK N   1      32.553  17.504   3.614  0.00  0.00    -0.532 OA
HETATM   14  O   UNK N   1      33.871  16.103   4.607  0.00  0.00    -0.532 OA
ENDBRANCH   3  12
BRANCH   4  15
HETATM   15  O   UNK N   1      34.586  17.900   6.892  0.00  0.00    -0.358 OA
HETATM   16  H   UNK N   1      34.906  18.667   6.461  0.00  0.00     0.217 HD
ENDBRANCH   4  15
TORSDOF 5
ENDMDL
MODEL 5
REMARK VINA RESULT:      -5.3     12.124     14.000
REMARK  5 active torsions:
REMARK  status: ('A' for Active; 'I' for Inactive)
REMARK    1  A    between atoms: C_1  and  C_7 
REMARK    2  A    between atoms: C_3  and  N_9 
REMARK    3  A    between atoms: C_4  and  O_12 
REMARK    4  A    between atoms: C_7  and  C_8 
REMARK    5  A    between atoms: C_8  and  O_14 
ROOT
HETATM    1  C   UNK N   1      30.292  21.158  -5.562  0.00  0.00    -0.046 A 
HETATM    2  C   UNK N   1      30.085  22.141  -4.596  0.00  0.00     0.046 A 
HETATM    3  C   UNK N   1      30.862  22.217  -3.440  0.00  0.00     0.136 A 
HETATM    4  C   UNK N   1      31.890  21.265  -3.250  0.00  0.00     0.098 A 
HETATM    5  C   UNK N   1      32.106  20.274  -4.216  0.00  0.00     0.039 A 
HETATM    6  C   UNK N   1      31.311  20.219  -5.367  0.00  0.00     0.010 A 
ENDROOT
BRANCH   1   7
HETATM    7  C   UNK N   1      29.445  21.084  -6.808  0.00  0.00     0.148 C 
BRANCH   7   8
HETATM    8  C   UNK N   1      29.662  19.921  -7.759  0.00  0.00     0.143 C 
HETATM    9  O   UNK N   1      30.417  20.065  -8.704  0.00  0.00    -0.650 OA
BRANCH   8  10
HETATM   10  O   UNK N   1      29.045  18.733  -7.591  0.00  0.00    -0.776 OA
HETATM   11  H   UNK N   1      28.113  18.675  -7.661  0.00  0.00     0.167 HD
ENDBRANCH   8  10
ENDBRANCH   7   8
ENDBRANCH   1   7
BRANCH   3  12
HETATM   12  N   UNK N   1      30.590  23.252  -2.494  0.00  0.00    -0.113 N 
HETATM   13  O   UNK N   1      30.578  24.515  -2.855  0.00  0.00    -0.532 OA
HETATM   14  O   UNK N   1      30.370  22.970  -1.352  0.00  0.00    -0.532 OA
ENDBRANCH   3  12
BRANCH   4  15
HETATM   15  O   UNK N   1      32.670  21.290  -2.155  0.00  0.00    -0.358 OA
HETATM   16  H   UNK N   1      33.455  21.801  -2.150  0.00  0.00     0.217 HD
ENDBRANCH   4  15
TORSDOF 5
ENDMDL
MODEL 6
REMARK VINA RESULT:      -5.3      2.663      5.279
REMARK  5 active torsions:
REMARK  status: ('A' for Active; 'I' for Inactive)
REMARK    1  A    between atoms: C_1  and  C_7 
REMARK    2  A    between atoms: C_3  and  N_9 
REMARK    3  A    between atoms: C_4  and  O_12 
REMARK    4  A    between atoms: C_7  and  C_8 
REMARK    5  A    between atoms: C_8  and  O_14 
ROOT
HETATM    1  C   UNK N   1      31.649  17.646   8.217  0.00  0.00    -0.046 A 
HETATM    2  C   UNK N   1      31.122  17.003   7.098  0.00  0.00     0.046 A 
HETATM    3  C   UNK N   1      29.782  17.134   6.733  0.00  0.00     0.136 A 
HETATM    4  C   UNK N   1      28.939  17.946   7.526  0.00  0.00     0.098 A 
HETATM    5  C   UNK N   1      29.460  18.596   8.652  0.00  0.00     0.039 A 
HETATM    6  C   UNK N   1      30.808  18.447   8.998  0.00  0.00     0.010 A 
ENDROOT
BRANCH   1   7
HETATM    7  C   UNK N   1      33.099  17.497   8.604  0.00  0.00     0.148 C 
BRANCH   7   8
HETATM    8  C   UNK N   1      34.143  18.230   7.783  0.00  0.00     0.143 C 
HETATM    9  O   UNK N   1      34.820  19.087   8.320  0.00  0.00    -0.650 OA
BRANCH   8  10
HETATM   10  O   UNK N   1      34.345  17.962   6.476  0.00  0.00    -0.776 OA
HETATM   11  H   UNK N   1      34.892  18.522   5.962  0.00  0.00     0.167 HD
ENDBRANCH   8  10
ENDBRANCH   7   8
ENDBRANCH   1   7
BRANCH   3  12
HETATM   12  N   UNK N   1      29.313  16.444   5.573  0.00  0.00    -0.113 N 
HETATM   13  O   UNK N   1      29.796  16.715   4.382  0.00  0.00    -0.532 OA
HETATM   14  O   UNK N   1      28.468  15.605   5.682  0.00  0.00    -0.532 OA
ENDBRANCH   3  12
BRANCH   4  15
HETATM   15  O   UNK N   1      27.640  18.108   7.221  0.00  0.00    -0.358 OA
HETATM   16  H   UNK N   1      27.311  18.958   7.006  0.00  0.00     0.217 HD
ENDBRANCH   4  15
TORSDOF 5
ENDMDL
MODEL 7
REMARK VINA RESULT:      -5.2     10.520     12.103
REMARK  5 active torsions:
REMARK  status: ('A' for Active; 'I' for Inactive)
REMARK    1  A    between atoms: C_1  and  C_7 
REMARK    2  A    between atoms: C_3  and  N_9 
REMARK    3  A    between atoms: C_4  and  O_12 
REMARK    4  A    between atoms: C_7  and  C_8 
REMARK    5  A    between atoms: C_8  and  O_14 
ROOT
HETATM    1  C   UNK N   1      35.750  12.466  16.377  0.00  0.00    -0.046 A 
HETATM    2  C   UNK N   1      35.563  11.407  17.264  0.00  0.00     0.046 A 
HETATM    3  C   UNK N   1      35.250  11.615  18.608  0.00  0.00     0.136 A 
HETATM    4  C   UNK N   1      35.120  12.942  19.077  0.00  0.00     0.098 A 
HETATM    5  C   UNK N   1      35.306  14.013  18.193  0.00  0.00     0.039 A 
HETATM    6  C   UNK N   1      35.621  13.777  16.849  0.00  0.00     0.010 A 
ENDROOT
BRANCH   1   7
HETATM    7  C   UNK N   1      36.089  12.231  14.927  0.00  0.00     0.148 C 
BRANCH   7   8
HETATM    8  C   UNK N   1      35.865  13.363  13.942  0.00  0.00     0.143 C 
HETATM    9  O   UNK N   1      34.757  13.514  13.459  0.00  0.00    -0.650 OA
BRANCH   8  10
HETATM   10  O   UNK N   1      36.853  14.209  13.583  0.00  0.00    -0.776 OA
HETATM   11  H   UNK N   1      37.742  13.912  13.570  0.00  0.00     0.167 HD
ENDBRANCH   8  10
ENDBRANCH   7   8
ENDBRANCH   1   7
BRANCH   3  12
HETATM   12  N   UNK N   1      35.072  10.480  19.457  0.00  0.00    -0.113 N 
HETATM   13  O   UNK N   1      34.212   9.534  19.155  0.00  0.00    -0.532 OA
HETATM   14  O   UNK N   1      35.715  10.383  20.461  0.00  0.00    -0.532 OA
ENDBRANCH   3  12
BRANCH   4  15
HETATM   15  O   UNK N   1      34.819  13.201  20.361  0.00  0.00    -0.358 OA
HETATM   16  H   UNK N   1      35.468  13.565  20.930  0.00  0.00     0.217 HD
ENDBRANCH   4  15
TORSDOF 5
ENDMDL
MODEL 8
REMARK VINA RESULT:      -5.2     10.350     11.635
REMARK  5 active torsions:
REMARK  status: ('A' for Active; 'I' for Inactive)
REMARK    1  A    between atoms: C_1  and  C_7 
REMARK    2  A    between atoms: C_3  and  N_9 
REMARK    3  A    between atoms: C_4  and  O_12 
REMARK    4  A    between atoms: C_7  and  C_8 
REMARK    5  A    between atoms: C_8  and  O_14 
ROOT
HETATM    1  C   UNK N   1      22.092  12.615   9.880  0.00  0.00    -0.046 A 
HETATM    2  C   UNK N   1      22.492  13.216   8.688  0.00  0.00     0.046 A 
HETATM    3  C   UNK N   1      21.719  14.187   8.053  0.00  0.00     0.136 A 
HETATM    4  C   UNK N   1      20.492  14.570   8.642  0.00  0.00     0.098 A 
HETATM    5  C   UNK N   1      20.081  13.971   9.841  0.00  0.00     0.039 A 
HETATM    6  C   UNK N   1      20.875  12.998  10.457  0.00  0.00     0.010 A 
ENDROOT
BRANCH   1   7
HETATM    7  C   UNK N   1      22.935  11.565  10.559  0.00  0.00     0.148 C 
BRANCH   7   8
HETATM    8  C   UNK N   1      23.764  11.974  11.762  0.00  0.00     0.143 C 
HETATM    9  O   UNK N   1      23.257  11.936  12.868  0.00  0.00    -0.650 OA
BRANCH   8  10
HETATM   10  O   UNK N   1      25.046  12.377  11.646  0.00  0.00    -0.776 OA
HETATM   11  H   UNK N   1      25.505  12.704  12.394  0.00  0.00     0.167 HD
ENDBRANCH   8  10
ENDBRANCH   7   8
ENDBRANCH   1   7
BRANCH   3  12
HETATM   12  N   UNK N   1      22.195  14.758   6.833  0.00  0.00    -0.113 N 
HETATM   13  O   UNK N   1      23.350  15.382   6.782  0.00  0.00    -0.532 OA
HETATM   14  O   UNK N   1      21.536  14.670   5.839  0.00  0.00    -0.532 OA
ENDBRANCH   3  12
BRANCH   4  15
HETATM   15  O   UNK N   1      19.706  15.501   8.074  0.00  0.00    -0.358 OA
HETATM   16  H   UNK N   1      19.535  15.471   7.154  0.00  0.00     0.217 HD
ENDBRANCH   4  15
TORSDOF 5
ENDMDL
MODEL 9
REMARK VINA RESULT:      -5.2     10.316     11.582
REMARK  5 active torsions:
REMARK  status: ('A' for Active; 'I' for Inactive)
REMARK    1  A    between atoms: C_1  and  C_7 
REMARK    2  A    between atoms: C_3  and  N_9 
REMARK    3  A    between atoms: C_4  and  O_12 
REMARK    4  A    between atoms: C_7  and  C_8 
REMARK    5  A    between atoms: C_8  and  O_14 
ROOT
HETATM    1  C   UNK N   1      21.360  14.342   9.063  0.00  0.00    -0.046 A 
HETATM    2  C   UNK N   1      22.597  13.783   9.378  0.00  0.00     0.046 A 
HETATM    3  C   UNK N   1      22.743  12.833  10.389  0.00  0.00     0.136 A 
HETATM    4  C   UNK N   1      21.596  12.429  11.111  0.00  0.00     0.098 A 
HETATM    5  C   UNK N   1      20.349  12.985  10.800  0.00  0.00     0.039 A 
HETATM    6  C   UNK N   1      20.230  13.938   9.782  0.00  0.00     0.010 A 
ENDROOT
BRANCH   1   7
HETATM    7  C   UNK N   1      21.213  15.370   7.969  0.00  0.00     0.148 C 
BRANCH   7   8
HETATM    8  C   UNK N   1      20.133  16.426   8.112  0.00  0.00     0.143 C 
HETATM    9  O   UNK N   1      20.368  17.424   8.768  0.00  0.00    -0.650 OA
BRANCH   8  10
HETATM   10  O   UNK N   1      18.920  16.293   7.536  0.00  0.00    -0.776 OA
HETATM   11  H   UNK N   1      18.564  16.994   7.026  0.00  0.00     0.167 HD
ENDBRANCH   8  10
ENDBRANCH   7   8
ENDBRANCH   1   7
BRANCH   3  12
HETATM   12  N   UNK N   1      24.043  12.305  10.656  0.00  0.00    -0.113 N 
HETATM   13  O   UNK N   1      24.445  12.079  11.886  0.00  0.00    -0.532 OA
HETATM   14  O   UNK N   1      24.783  12.061   9.748  0.00  0.00    -0.532 OA
ENDBRANCH   3  12
BRANCH   4  15
HETATM   15  O   UNK N   1      21.678  11.517  12.095  0.00  0.00    -0.358 OA
HETATM   16  H   UNK N   1      21.858  11.789  12.973  0.00  0.00     0.217 HD
ENDBRANCH   4  15
TORSDOF 5
ENDMDL
