MODEL 1
REMARK VINA RESULT:      -6.5      0.000      0.000
REMARK  10 active torsions:
REMARK  status: ('A' for Active; 'I' for Inactive)
REMARK    1  A    between atoms: C_1  and  C_11 
REMARK    2  A    between atoms: C_3  and  N_4 
REMARK    3  A    between atoms: C_7  and  O_8 
REMARK    4  A    between atoms: C_11  and  C_12 
REMARK       I    between atoms: C_12  and  N_14 
REMARK    5  A    between atoms: N_14  and  C_15 
REMARK    6  A    between atoms: C_15  and  C_16 
REMARK    7  A    between atoms: C_16  and  C_17 
REMARK    8  A    between atoms: C_17  and  C_18 
REMARK    9  A    between atoms: C_18  and  C_19 
REMARK   10  A    between atoms: C_19  and  C_20 
ROOT
HETATM    1  C   UNK N   1      29.211  21.246  -6.738  0.00  0.00     0.141 C 
ENDROOT
BRANCH   1   2
HETATM    2  C   UNK N   1      30.165  21.309  -5.601  0.00  0.00    -0.047 A 
HETATM    3  C   UNK N   1      29.977  22.273  -4.613  0.00  0.00     0.046 A 
HETATM    4  C   UNK N   1      30.785  22.297  -3.468  0.00  0.00     0.136 A 
HETATM    5  C   UNK N   1      31.796  21.315  -3.326  0.00  0.00     0.098 A 
HETATM    6  C   UNK N   1      31.983  20.355  -4.327  0.00  0.00     0.039 A 
HETATM    7  C   UNK N   1      31.168  20.346  -5.458  0.00  0.00     0.010 A 
BRANCH   4   8
HETATM    8  N   UNK N   1      30.554  23.296  -2.473  0.00  0.00    -0.113 N 
HETATM    9  O   UNK N   1      30.607  24.575  -2.773  0.00  0.00    -0.532 OA
HETATM   10  O   UNK N   1      30.328  22.972  -1.344  0.00  0.00    -0.532 OA
ENDBRANCH   4   8
BRANCH   5  11
HETATM   11  O   UNK N   1      32.587  21.282  -2.240  0.00  0.00    -0.358 OA
HETATM   12  H   UNK N   1      33.078  20.522  -1.999  0.00  0.00     0.217 HD
ENDBRANCH   5  11
ENDBRANCH   1   2
BRANCH   1  13
HETATM   13  C   UNK N   1      28.625  22.561  -7.121  0.00  0.00     0.221 C 
HETATM   14  O   UNK N   1      29.281  23.366  -7.768  0.00  0.00    -0.273 OA
HETATM   15  N   UNK N   1      27.324  22.793  -6.837  0.00  0.00    -0.361 N 
HETATM   16  H   UNK N   1      26.843  22.161  -6.255  0.00  0.00     0.162 HD
BRANCH  15  17
HETATM   17  C   UNK N   1      26.620  23.934  -7.356  0.00  0.00     0.122 C 
BRANCH  17  18
HETATM   18  C   UNK N   1      26.160  24.780  -6.179  0.00  0.00     0.020 C 
BRANCH  18  19
HETATM   19  C   UNK N   1      25.607  26.119  -6.649  0.00  0.00     0.002 C 
BRANCH  19  20
HETATM   20  C   UNK N   1      24.948  26.841  -5.484  0.00  0.00     0.010 C 
BRANCH  20  21
HETATM   21  C   UNK N   1      25.792  28.026  -5.032  0.00  0.00     0.113 C 
BRANCH  21  22
HETATM   22  C   UNK N   1      25.993  28.112  -3.544  0.00  0.00     0.172 C 
HETATM   23  O   UNK N   1      26.311  29.179  -3.047  0.00  0.00    -0.648 OA
HETATM   24  O   UNK N   1      25.833  27.036  -2.749  0.00  0.00    -0.648 OA
ENDBRANCH  21  22
ENDBRANCH  20  21
ENDBRANCH  19  20
ENDBRANCH  18  19
ENDBRANCH  17  18
ENDBRANCH  15  17
ENDBRANCH   1  13
TORSDOF 10
ENDMDL
MODEL 2
REMARK VINA RESULT:      -6.3     10.884     13.170
REMARK  10 active torsions:
REMARK  status: ('A' for Active; 'I' for Inactive)
REMARK    1  A    between atoms: C_1  and  C_11 
REMARK    2  A    between atoms: C_3  and  N_4 
REMARK    3  A    between atoms: C_7  and  O_8 
REMARK    4  A    between atoms: C_11  and  C_12 
REMARK       I    between atoms: C_12  and  N_14 
REMARK    5  A    between atoms: N_14  and  C_15 
REMARK    6  A    between atoms: C_15  and  C_16 
REMARK    7  A    between atoms: C_16  and  C_17 
REMARK    8  A    between atoms: C_17  and  C_18 
REMARK    9  A    between atoms: C_18  and  C_19 
REMARK   10  A    between atoms: C_19  and  C_20 
ROOT
HETATM    1  C   UNK N   1      29.696  17.025   8.635  0.00  0.00     0.141 C 
ENDROOT
BRANCH   1   2
HETATM    2  C   UNK N   1      30.961  17.222   7.881  0.00  0.00    -0.047 A 
HETATM    3  C   UNK N   1      32.108  17.602   8.574  0.00  0.00     0.046 A 
HETATM    4  C   UNK N   1      33.346  17.690   7.923  0.00  0.00     0.136 A 
HETATM    5  C   UNK N   1      33.415  17.376   6.543  0.00  0.00     0.098 A 
HETATM    6  C   UNK N   1      32.256  17.002   5.853  0.00  0.00     0.039 A 
HETATM    7  C   UNK N   1      31.033  16.919   6.520  0.00  0.00     0.010 A 
BRANCH   4   8
HETATM    8  N   UNK N   1      34.502  18.075   8.669  0.00  0.00    -0.113 N 
HETATM    9  O   UNK N   1      35.207  19.130   8.328  0.00  0.00    -0.532 OA
HETATM   10  O   UNK N   1      34.849  17.422   9.610  0.00  0.00    -0.532 OA
ENDBRANCH   4   8
BRANCH   5  11
HETATM   11  O   UNK N   1      34.579  17.428   5.874  0.00  0.00    -0.358 OA
HETATM   12  H   UNK N   1      35.374  17.722   6.272  0.00  0.00     0.217 HD
ENDBRANCH   5  11
ENDBRANCH   1   2
BRANCH   1  13
HETATM   13  C   UNK N   1      28.857  18.250   8.758  0.00  0.00     0.221 C 
HETATM   14  O   UNK N   1      28.818  18.870   9.813  0.00  0.00    -0.273 OA
HETATM   15  N   UNK N   1      28.236  18.719   7.652  0.00  0.00    -0.361 N 
HETATM   16  H   UNK N   1      28.226  18.164   6.840  0.00  0.00     0.162 HD
BRANCH  15  17
HETATM   17  C   UNK N   1      27.589  20.002   7.626  0.00  0.00     0.122 C 
BRANCH  17  18
HETATM   18  C   UNK N   1      27.108  20.260   6.207  0.00  0.00     0.020 C 
BRANCH  18  19
HETATM   19  C   UNK N   1      27.764  19.300   5.223  0.00  0.00     0.002 C 
BRANCH  19  20
HETATM   20  C   UNK N   1      27.358  19.661   3.803  0.00  0.00     0.010 C 
BRANCH  20  21
HETATM   21  C   UNK N   1      26.253  20.711   3.804  0.00  0.00     0.113 C 
BRANCH  21  22
HETATM   22  C   UNK N   1      24.994  20.287   3.099  0.00  0.00     0.172 C 
HETATM   23  O   UNK N   1      24.229  19.518   3.657  0.00  0.00    -0.648 OA
HETATM   24  O   UNK N   1      24.695  20.734   1.864  0.00  0.00    -0.648 OA
ENDBRANCH  21  22
ENDBRANCH  20  21
ENDBRANCH  19  20
ENDBRANCH  18  19
ENDBRANCH  17  18
ENDBRANCH  15  17
ENDBRANCH   1  13
TORSDOF 10
ENDMDL
MODEL 3
REMARK VINA RESULT:      -6.2      2.607      6.856
REMARK  10 active torsions:
REMARK  status: ('A' for Active; 'I' for Inactive)
REMARK    1  A    between atoms: C_1  and  C_11 
REMARK    2  A    between atoms: C_3  and  N_4 
REMARK    3  A    between atoms: C_7  and  O_8 
REMARK    4  A    between atoms: C_11  and  C_12 
REMARK       I    between atoms: C_12  and  N_14 
REMARK    5  A    between atoms: N_14  and  C_15 
REMARK    6  A    between atoms: C_15  and  C_16 
REMARK    7  A    between atoms: C_16  and  C_17 
REMARK    8  A    between atoms: C_17  and  C_18 
REMARK    9  A    between atoms: C_18  and  C_19 
REMARK   10  A    between atoms: C_19  and  C_20 
ROOT
HETATM    1  C   UNK N   1      25.147  27.408  -5.147  0.00  0.00     0.141 C 
ENDROOT
BRANCH   1   2
HETATM    2  C   UNK N   1      25.405  26.058  -5.709  0.00  0.00    -0.047 A 
HETATM    3  C   UNK N   1      25.504  25.908  -7.090  0.00  0.00     0.046 A 
HETATM    4  C   UNK N   1      25.857  24.676  -7.658  0.00  0.00     0.136 A 
HETATM    5  C   UNK N   1      26.122  23.581  -6.799  0.00  0.00     0.098 A 
HETATM    6  C   UNK N   1      26.013  23.738  -5.413  0.00  0.00     0.039 A 
HETATM    7  C   UNK N   1      25.662  24.973  -4.867  0.00  0.00     0.010 A 
BRANCH   4   8
HETATM    8  N   UNK N   1      25.956  24.565  -9.079  0.00  0.00    -0.113 N 
HETATM    9  O   UNK N   1      24.881  24.578  -9.835  0.00  0.00    -0.532 OA
HETATM   10  O   UNK N   1      27.029  24.439  -9.593  0.00  0.00    -0.532 OA
ENDBRANCH   4   8
BRANCH   5  11
HETATM   11  O   UNK N   1      26.481  22.382  -7.289  0.00  0.00    -0.358 OA
HETATM   12  H   UNK N   1      27.039  21.794  -6.821  0.00  0.00     0.217 HD
ENDBRANCH   5  11
ENDBRANCH   1   2
BRANCH   1  13
HETATM   13  C   UNK N   1      26.150  27.856  -4.141  0.00  0.00     0.221 C 
HETATM   14  O   UNK N   1      25.823  28.030  -2.975  0.00  0.00    -0.273 OA
HETATM   15  N   UNK N   1      27.444  27.956  -4.523  0.00  0.00    -0.361 N 
HETATM   16  H   UNK N   1      27.666  27.881  -5.478  0.00  0.00     0.162 HD
BRANCH  15  17
HETATM   17  C   UNK N   1      28.505  28.169  -3.576  0.00  0.00     0.122 C 
BRANCH  17  18
HETATM   18  C   UNK N   1      29.624  27.190  -3.894  0.00  0.00     0.020 C 
BRANCH  18  19
HETATM   19  C   UNK N   1      29.080  25.783  -4.103  0.00  0.00     0.002 C 
BRANCH  19  20
HETATM   20  C   UNK N   1      30.193  24.767  -3.909  0.00  0.00     0.010 C 
BRANCH  20  21
HETATM   21  C   UNK N   1      29.623  23.387  -3.603  0.00  0.00     0.113 C 
BRANCH  21  22
HETATM   22  C   UNK N   1      29.421  23.111  -2.138  0.00  0.00     0.172 C 
HETATM   23  O   UNK N   1      30.395  23.013  -1.411  0.00  0.00    -0.648 OA
HETATM   24  O   UNK N   1      28.189  22.966  -1.613  0.00  0.00    -0.648 OA
ENDBRANCH  21  22
ENDBRANCH  20  21
ENDBRANCH  19  20
ENDBRANCH  18  19
ENDBRANCH  17  18
ENDBRANCH  15  17
ENDBRANCH   1  13
TORSDOF 10
ENDMDL
MODEL 4
REMARK VINA RESULT:      -6.1     10.180     12.306
REMARK  10 active torsions:
REMARK  status: ('A' for Active; 'I' for Inactive)
REMARK    1  A    between atoms: C_1  and  C_11 
REMARK    2  A    between atoms: C_3  and  N_4 
REMARK    3  A    between atoms: C_7  and  O_8 
REMARK    4  A    between atoms: C_11  and  C_12 
REMARK       I    between atoms: C_12  and  N_14 
REMARK    5  A    between atoms: N_14  and  C_15 
REMARK    6  A    between atoms: C_15  and  C_16 
REMARK    7  A    between atoms: C_16  and  C_17 
REMARK    8  A    between atoms: C_17  and  C_18 
REMARK    9  A    between atoms: C_18  and  C_19 
REMARK   10  A    between atoms: C_19  and  C_20 
ROOT
HETATM    1  C   UNK N   1      29.272  17.563   8.370  0.00  0.00     0.141 C 
ENDROOT
BRANCH   1   2
HETATM    2  C   UNK N   1      30.663  17.524   7.852  0.00  0.00    -0.047 A 
HETATM    3  C   UNK N   1      30.886  17.099   6.544  0.00  0.00     0.046 A 
HETATM    4  C   UNK N   1      32.168  17.153   5.978  0.00  0.00     0.136 A 
HETATM    5  C   UNK N   1      33.237  17.659   6.758  0.00  0.00     0.098 A 
HETATM    6  C   UNK N   1      33.005  18.077   8.073  0.00  0.00     0.039 A 
HETATM    7  C   UNK N   1      31.723  18.017   8.618  0.00  0.00     0.010 A 
BRANCH   4   8
HETATM    8  N   UNK N   1      32.355  16.715   4.631  0.00  0.00    -0.113 N 
HETATM    9  O   UNK N   1      32.043  15.491   4.268  0.00  0.00    -0.532 OA
HETATM   10  O   UNK N   1      32.818  17.463   3.820  0.00  0.00    -0.532 OA
ENDBRANCH   4   8
BRANCH   5  11
HETATM   11  O   UNK N   1      34.481  17.748   6.259  0.00  0.00    -0.358 OA
HETATM   12  H   UNK N   1      34.891  18.570   6.076  0.00  0.00     0.217 HD
ENDBRANCH   5  11
ENDBRANCH   1   2
BRANCH   1  13
HETATM   13  C   UNK N   1      28.275  18.118   7.412  0.00  0.00     0.221 C 
HETATM   14  O   UNK N   1      27.495  17.376   6.831  0.00  0.00    -0.273 OA
HETATM   15  N   UNK N   1      28.181  19.462   7.288  0.00  0.00    -0.361 N 
HETATM   16  H   UNK N   1      28.866  20.028   7.710  0.00  0.00     0.162 HD
BRANCH  15  17
HETATM   17  C   UNK N   1      27.113  20.088   6.559  0.00  0.00     0.122 C 
BRANCH  17  18
HETATM   18  C   UNK N   1      27.658  20.529   5.209  0.00  0.00     0.020 C 
BRANCH  18  19
HETATM   19  C   UNK N   1      26.946  19.813   4.069  0.00  0.00     0.002 C 
BRANCH  19  20
HETATM   20  C   UNK N   1      26.299  20.833   3.146  0.00  0.00     0.010 C 
BRANCH  20  21
HETATM   21  C   UNK N   1      25.132  20.214   2.385  0.00  0.00     0.113 C 
BRANCH  21  22
HETATM   22  C   UNK N   1      23.798  20.368   3.064  0.00  0.00     0.172 C 
HETATM   23  O   UNK N   1      23.222  21.441   3.007  0.00  0.00    -0.648 OA
HETATM   24  O   UNK N   1      23.229  19.348   3.734  0.00  0.00    -0.648 OA
ENDBRANCH  21  22
ENDBRANCH  20  21
ENDBRANCH  19  20
ENDBRANCH  18  19
ENDBRANCH  17  18
ENDBRANCH  15  17
ENDBRANCH   1  13
TORSDOF 10
ENDMDL
MODEL 5
REMARK VINA RESULT:      -6.1     11.817     13.803
REMARK  10 active torsions:
REMARK  status: ('A' for Active; 'I' for Inactive)
REMARK    1  A    between atoms: C_1  and  C_11 
REMARK    2  A    between atoms: C_3  and  N_4 
REMARK    3  A    between atoms: C_7  and  O_8 
REMARK    4  A    between atoms: C_11  and  C_12 
REMARK       I    between atoms: C_12  and  N_14 
REMARK    5  A    between atoms: N_14  and  C_15 
REMARK    6  A    between atoms: C_15  and  C_16 
REMARK    7  A    between atoms: C_16  and  C_17 
REMARK    8  A    between atoms: C_17  and  C_18 
REMARK    9  A    between atoms: C_18  and  C_19 
REMARK   10  A    between atoms: C_19  and  C_20 
ROOT
HETATM    1  C   UNK N   1      32.200  17.383   4.268  0.00  0.00     0.141 C 
ENDROOT
BRANCH   1   2
HETATM    2  C   UNK N   1      33.162  16.836   5.258  0.00  0.00    -0.047 A 
HETATM    3  C   UNK N   1      33.519  17.616   6.356  0.00  0.00     0.046 A 
HETATM    4  C   UNK N   1      34.336  17.099   7.371  0.00  0.00     0.136 A 
HETATM    5  C   UNK N   1      34.788  15.760   7.267  0.00  0.00     0.098 A 
HETATM    6  C   UNK N   1      34.430  14.986   6.157  0.00  0.00     0.039 A 
HETATM    7  C   UNK N   1      33.615  15.519   5.158  0.00  0.00     0.010 A 
BRANCH   4   8
HETATM    8  N   UNK N   1      34.673  17.927   8.486  0.00  0.00    -0.113 N 
HETATM    9  O   UNK N   1      34.670  17.448   9.710  0.00  0.00    -0.532 OA
HETATM   10  O   UNK N   1      34.945  19.079   8.312  0.00  0.00    -0.532 OA
ENDBRANCH   4   8
BRANCH   5  11
HETATM   11  O   UNK N   1      35.558  15.209   8.220  0.00  0.00    -0.358 OA
HETATM   12  H   UNK N   1      35.473  15.431   9.126  0.00  0.00     0.217 HD
ENDBRANCH   5  11
ENDBRANCH   1   2
BRANCH   1  13
HETATM   13  C   UNK N   1      30.768  17.155   4.613  0.00  0.00     0.221 C 
HETATM   14  O   UNK N   1      30.456  16.287   5.417  0.00  0.00    -0.273 OA
HETATM   15  N   UNK N   1      29.841  17.999   4.106  0.00  0.00    -0.361 N 
HETATM   16  H   UNK N   1      30.111  18.639   3.409  0.00  0.00     0.162 HD
BRANCH  15  17
HETATM   17  C   UNK N   1      28.475  17.989   4.552  0.00  0.00     0.122 C 
BRANCH  17  18
HETATM   18  C   UNK N   1      28.052  19.428   4.808  0.00  0.00     0.020 C 
BRANCH  18  19
HETATM   19  C   UNK N   1      27.697  19.643   6.273  0.00  0.00     0.002 C 
BRANCH  19  20
HETATM   20  C   UNK N   1      28.089  18.417   7.083  0.00  0.00     0.010 C 
BRANCH  20  21
HETATM   21  C   UNK N   1      28.349  18.787   8.538  0.00  0.00     0.113 C 
BRANCH  21  22
HETATM   22  C   UNK N   1      28.483  17.609   9.463  0.00  0.00     0.172 C 
HETATM   23  O   UNK N   1      29.551  17.403  10.014  0.00  0.00    -0.648 OA
HETATM   24  O   UNK N   1      27.450  16.776   9.694  0.00  0.00    -0.648 OA
ENDBRANCH  21  22
ENDBRANCH  20  21
ENDBRANCH  19  20
ENDBRANCH  18  19
ENDBRANCH  17  18
ENDBRANCH  15  17
ENDBRANCH   1  13
TORSDOF 10
ENDMDL
MODEL 6
REMARK VINA RESULT:      -6.1      2.139      3.243
REMARK  10 active torsions:
REMARK  status: ('A' for Active; 'I' for Inactive)
REMARK    1  A    between atoms: C_1  and  C_11 
REMARK    2  A    between atoms: C_3  and  N_4 
REMARK    3  A    between atoms: C_7  and  O_8 
REMARK    4  A    between atoms: C_11  and  C_12 
REMARK       I    between atoms: C_12  and  N_14 
REMARK    5  A    between atoms: N_14  and  C_15 
REMARK    6  A    between atoms: C_15  and  C_16 
REMARK    7  A    between atoms: C_16  and  C_17 
REMARK    8  A    between atoms: C_17  and  C_18 
REMARK    9  A    between atoms: C_18  and  C_19 
REMARK   10  A    between atoms: C_19  and  C_20 
ROOT
HETATM    1  C   UNK N   1      28.965  24.441  -3.628  0.00  0.00     0.141 C 
ENDROOT
BRANCH   1   2
HETATM    2  C   UNK N   1      29.746  23.179  -3.699  0.00  0.00    -0.047 A 
HETATM    3  C   UNK N   1      29.691  22.415  -4.862  0.00  0.00     0.046 A 
HETATM    4  C   UNK N   1      30.497  21.278  -5.016  0.00  0.00     0.136 A 
HETATM    5  C   UNK N   1      31.380  20.922  -3.967  0.00  0.00     0.098 A 
HETATM    6  C   UNK N   1      31.424  21.692  -2.799  0.00  0.00     0.039 A 
HETATM    7  C   UNK N   1      30.615  22.820  -2.666  0.00  0.00     0.010 A 
BRANCH   4   8
HETATM    8  N   UNK N   1      30.417  20.525  -6.227  0.00  0.00    -0.113 N 
HETATM    9  O   UNK N   1      31.481  19.940  -6.731  0.00  0.00    -0.532 OA
HETATM   10  O   UNK N   1      29.374  20.436  -6.807  0.00  0.00    -0.532 OA
ENDBRANCH   4   8
BRANCH   5  11
HETATM   11  O   UNK N   1      32.186  19.852  -4.069  0.00  0.00    -0.358 OA
HETATM   12  H   UNK N   1      32.956  19.852  -4.603  0.00  0.00     0.217 HD
ENDBRANCH   5  11
ENDBRANCH   1   2
BRANCH   1  13
HETATM   13  C   UNK N   1      27.497  24.265  -3.805  0.00  0.00     0.221 C 
HETATM   14  O   UNK N   1      26.802  23.884  -2.872  0.00  0.00    -0.273 OA
HETATM   15  N   UNK N   1      26.940  24.641  -4.979  0.00  0.00    -0.361 N 
HETATM   16  H   UNK N   1      27.528  24.874  -5.732  0.00  0.00     0.162 HD
BRANCH  15  17
HETATM   17  C   UNK N   1      25.516  24.710  -5.161  0.00  0.00     0.122 C 
BRANCH  17  18
HETATM   18  C   UNK N   1      25.183  26.065  -5.765  0.00  0.00     0.020 C 
BRANCH  18  19
HETATM   19  C   UNK N   1      26.441  26.777  -6.243  0.00  0.00     0.002 C 
BRANCH  19  20
HETATM   20  C   UNK N   1      26.544  28.141  -5.580  0.00  0.00     0.010 C 
BRANCH  20  21
HETATM   21  C   UNK N   1      25.574  28.252  -4.410  0.00  0.00     0.113 C 
BRANCH  21  22
HETATM   22  C   UNK N   1      26.211  28.080  -3.058  0.00  0.00     0.172 C 
HETATM   23  O   UNK N   1      25.963  27.080  -2.407  0.00  0.00    -0.648 OA
HETATM   24  O   UNK N   1      27.046  29.008  -2.552  0.00  0.00    -0.648 OA
ENDBRANCH  21  22
ENDBRANCH  20  21
ENDBRANCH  19  20
ENDBRANCH  18  19
ENDBRANCH  17  18
ENDBRANCH  15  17
ENDBRANCH   1  13
TORSDOF 10
ENDMDL
MODEL 7
REMARK VINA RESULT:      -6.1     14.796     18.748
REMARK  10 active torsions:
REMARK  status: ('A' for Active; 'I' for Inactive)
REMARK    1  A    between atoms: C_1  and  C_11 
REMARK    2  A    between atoms: C_3  and  N_4 
REMARK    3  A    between atoms: C_7  and  O_8 
REMARK    4  A    between atoms: C_11  and  C_12 
REMARK       I    between atoms: C_12  and  N_14 
REMARK    5  A    between atoms: N_14  and  C_15 
REMARK    6  A    between atoms: C_15  and  C_16 
REMARK    7  A    between atoms: C_16  and  C_17 
REMARK    8  A    between atoms: C_17  and  C_18 
REMARK    9  A    between atoms: C_18  and  C_19 
REMARK   10  A    between atoms: C_19  and  C_20 
ROOT
HETATM    1  C   UNK N   1      33.716  18.004   7.915  0.00  0.00     0.141 C 
ENDROOT
BRANCH   1   2
HETATM    2  C   UNK N   1      32.301  17.619   7.682  0.00  0.00    -0.047 A 
HETATM    3  C   UNK N   1      31.356  17.888   8.669  0.00  0.00     0.046 A 
HETATM    4  C   UNK N   1      29.993  17.644   8.447  0.00  0.00     0.136 A 
HETATM    5  C   UNK N   1      29.589  17.125   7.192  0.00  0.00     0.098 A 
HETATM    6  C   UNK N   1      30.547  16.850   6.209  0.00  0.00     0.039 A 
HETATM    7  C   UNK N   1      31.897  17.102   6.449  0.00  0.00     0.010 A 
BRANCH   4   8
HETATM    8  N   UNK N   1      29.053  17.941   9.481  0.00  0.00    -0.113 N 
HETATM    9  O   UNK N   1      27.868  17.373   9.502  0.00  0.00    -0.532 OA
HETATM   10  O   UNK N   1      29.335  18.732  10.334  0.00  0.00    -0.532 OA
ENDBRANCH   4   8
BRANCH   5  11
HETATM   11  O   UNK N   1      28.295  16.888   6.920  0.00  0.00    -0.358 OA
HETATM   12  H   UNK N   1      27.599  17.270   7.418  0.00  0.00     0.217 HD
ENDBRANCH   5  11
ENDBRANCH   1   2
BRANCH   1  13
HETATM   13  C   UNK N   1      34.511  16.995   8.669  0.00  0.00     0.221 C 
HETATM   14  O   UNK N   1      35.020  16.047   8.086  0.00  0.00    -0.273 OA
HETATM   15  N   UNK N   1      34.749  17.212   9.982  0.00  0.00    -0.361 N 
HETATM   16  H   UNK N   1      34.271  17.941  10.439  0.00  0.00     0.162 HD
BRANCH  15  17
HETATM   17  C   UNK N   1      35.679  16.413  10.732  0.00  0.00     0.122 C 
BRANCH  17  18
HETATM   18  C   UNK N   1      34.897  15.318  11.439  0.00  0.00     0.020 C 
BRANCH  18  19
HETATM   19  C   UNK N   1      35.759  14.609  12.476  0.00  0.00     0.002 C 
BRANCH  19  20
HETATM   20  C   UNK N   1      35.202  13.221  12.746  0.00  0.00     0.010 C 
BRANCH  20  21
HETATM   21  C   UNK N   1      35.867  12.596  13.967  0.00  0.00     0.113 C 
BRANCH  21  22
HETATM   22  C   UNK N   1      35.417  13.171  15.281  0.00  0.00     0.172 C 
HETATM   23  O   UNK N   1      36.230  13.733  15.995  0.00  0.00    -0.648 OA
HETATM   24  O   UNK N   1      34.136  13.076  15.688  0.00  0.00    -0.648 OA
ENDBRANCH  21  22
ENDBRANCH  20  21
ENDBRANCH  19  20
ENDBRANCH  18  19
ENDBRANCH  17  18
ENDBRANCH  15  17
ENDBRANCH   1  13
TORSDOF 10
ENDMDL
MODEL 8
REMARK VINA RESULT:      -5.9      2.226      6.888
REMARK  10 active torsions:
REMARK  status: ('A' for Active; 'I' for Inactive)
REMARK    1  A    between atoms: C_1  and  C_11 
REMARK    2  A    between atoms: C_3  and  N_4 
REMARK    3  A    between atoms: C_7  and  O_8 
REMARK    4  A    between atoms: C_11  and  C_12 
REMARK       I    between atoms: C_12  and  N_14 
REMARK    5  A    between atoms: N_14  and  C_15 
REMARK    6  A    between atoms: C_15  and  C_16 
REMARK    7  A    between atoms: C_16  and  C_17 
REMARK    8  A    between atoms: C_17  and  C_18 
REMARK    9  A    between atoms: C_18  and  C_19 
REMARK   10  A    between atoms: C_19  and  C_20 
ROOT
HETATM    1  C   UNK N   1      25.729  25.908  -7.488  0.00  0.00     0.141 C 
ENDROOT
BRANCH   1   2
HETATM    2  C   UNK N   1      26.386  27.070  -6.838  0.00  0.00    -0.047 A 
HETATM    3  C   UNK N   1      25.971  27.458  -5.566  0.00  0.00     0.046 A 
HETATM    4  C   UNK N   1      26.637  28.476  -4.870  0.00  0.00     0.136 A 
HETATM    5  C   UNK N   1      27.752  29.102  -5.480  0.00  0.00     0.098 A 
HETATM    6  C   UNK N   1      28.158  28.712  -6.761  0.00  0.00     0.039 A 
HETATM    7  C   UNK N   1      27.483  27.696  -7.437  0.00  0.00     0.010 A 
BRANCH   4   8
HETATM    8  N   UNK N   1      26.187  28.839  -3.564  0.00  0.00    -0.113 N 
HETATM    9  O   UNK N   1      26.258  30.082  -3.145  0.00  0.00    -0.532 OA
HETATM   10  O   UNK N   1      25.753  28.000  -2.828  0.00  0.00    -0.532 OA
ENDBRANCH   4   8
BRANCH   5  11
HETATM   11  O   UNK N   1      28.437  30.072  -4.851  0.00  0.00    -0.358 OA
HETATM   12  H   UNK N   1      29.353  30.209  -4.986  0.00  0.00     0.217 HD
ENDBRANCH   5  11
ENDBRANCH   1   2
BRANCH   1  13
HETATM   13  C   UNK N   1      26.141  24.585  -6.942  0.00  0.00     0.221 C 
HETATM   14  O   UNK N   1      25.394  23.961  -6.200  0.00  0.00    -0.273 OA
HETATM   15  N   UNK N   1      27.303  24.044  -7.374  0.00  0.00    -0.361 N 
HETATM   16  H   UNK N   1      27.915  24.596  -7.912  0.00  0.00     0.162 HD
BRANCH  15  17
HETATM   17  C   UNK N   1      27.673  22.688  -7.072  0.00  0.00     0.122 C 
BRANCH  17  18
HETATM   18  C   UNK N   1      29.189  22.585  -7.144  0.00  0.00     0.020 C 
BRANCH  18  19
HETATM   19  C   UNK N   1      29.737  21.744  -5.999  0.00  0.00     0.002 C 
BRANCH  19  20
HETATM   20  C   UNK N   1      29.911  22.611  -4.762  0.00  0.00     0.010 C 
BRANCH  20  21
HETATM   21  C   UNK N   1      29.917  21.759  -3.498  0.00  0.00     0.113 C 
BRANCH  21  22
HETATM   22  C   UNK N   1      30.794  22.290  -2.397  0.00  0.00     0.172 C 
HETATM   23  O   UNK N   1      30.298  22.980  -1.522  0.00  0.00    -0.648 OA
HETATM   24  O   UNK N   1      32.113  22.021  -2.357  0.00  0.00    -0.648 OA
ENDBRANCH  21  22
ENDBRANCH  20  21
ENDBRANCH  19  20
ENDBRANCH  18  19
ENDBRANCH  17  18
ENDBRANCH  15  17
ENDBRANCH   1  13
TORSDOF 10
ENDMDL
MODEL 9
REMARK VINA RESULT:      -5.9     19.565     22.708
REMARK  10 active torsions:
REMARK  status: ('A' for Active; 'I' for Inactive)
REMARK    1  A    between atoms: C_1  and  C_11 
REMARK    2  A    between atoms: C_3  and  N_4 
REMARK    3  A    between atoms: C_7  and  O_8 
REMARK    4  A    between atoms: C_11  and  C_12 
REMARK       I    between atoms: C_12  and  N_14 
REMARK    5  A    between atoms: N_14  and  C_15 
REMARK    6  A    between atoms: C_15  and  C_16 
REMARK    7  A    between atoms: C_16  and  C_17 
REMARK    8  A    between atoms: C_17  and  C_18 
REMARK    9  A    between atoms: C_18  and  C_19 
REMARK   10  A    between atoms: C_19  and  C_20 
ROOT
HETATM    1  C   UNK N   1      34.115  11.376  14.263  0.00  0.00     0.141 C 
ENDROOT
BRANCH   1   2
HETATM    2  C   UNK N   1      34.617  11.215  15.651  0.00  0.00    -0.047 A 
HETATM    3  C   UNK N   1      34.766  12.345  16.452  0.00  0.00     0.046 A 
HETATM    4  C   UNK N   1      35.130  12.229  17.801  0.00  0.00     0.136 A 
HETATM    5  C   UNK N   1      35.335  10.936  18.343  0.00  0.00     0.098 A 
HETATM    6  C   UNK N   1      35.191   9.807  17.529  0.00  0.00     0.039 A 
HETATM    7  C   UNK N   1      34.827   9.943  16.190  0.00  0.00     0.010 A 
BRANCH   4   8
HETATM    8  N   UNK N   1      35.264  13.411  18.592  0.00  0.00    -0.113 N 
HETATM    9  O   UNK N   1      34.840  13.445  19.836  0.00  0.00    -0.532 OA
HETATM   10  O   UNK N   1      35.751  14.395  18.116  0.00  0.00    -0.532 OA
ENDBRANCH   4   8
BRANCH   5  11
HETATM   11  O   UNK N   1      35.668  10.767  19.634  0.00  0.00    -0.358 OA
HETATM   12  H   UNK N   1      35.711  11.481  20.239  0.00  0.00     0.217 HD
ENDBRANCH   5  11
ENDBRANCH   1   2
BRANCH   1  13
HETATM   13  C   UNK N   1      35.061  12.068  13.344  0.00  0.00     0.221 C 
HETATM   14  O   UNK N   1      36.236  11.728  13.295  0.00  0.00    -0.273 OA
HETATM   15  N   UNK N   1      34.569  12.995  12.491  0.00  0.00    -0.361 N 
HETATM   16  H   UNK N   1      33.640  13.298  12.602  0.00  0.00     0.162 HD
BRANCH  15  17
HETATM   17  C   UNK N   1      35.362  13.552  11.429  0.00  0.00     0.122 C 
BRANCH  17  18
HETATM   18  C   UNK N   1      35.630  15.013  11.757  0.00  0.00     0.020 C 
BRANCH  18  19
HETATM   19  C   UNK N   1      36.214  15.746  10.557  0.00  0.00     0.002 C 
BRANCH  19  20
HETATM   20  C   UNK N   1      35.334  16.934  10.202  0.00  0.00     0.010 C 
BRANCH  20  21
HETATM   21  C   UNK N   1      34.593  16.690   8.893  0.00  0.00     0.113 C 
BRANCH  21  22
HETATM   22  C   UNK N   1      34.516  17.891   7.990  0.00  0.00     0.172 C 
HETATM   23  O   UNK N   1      34.509  19.006   8.483  0.00  0.00    -0.648 OA
HETATM   24  O   UNK N   1      34.453  17.761   6.651  0.00  0.00    -0.648 OA
ENDBRANCH  21  22
ENDBRANCH  20  21
ENDBRANCH  19  20
ENDBRANCH  18  19
ENDBRANCH  17  18
ENDBRANCH  15  17
ENDBRANCH   1  13
TORSDOF 10
ENDMDL
