REMARK  9 active torsions:
REMARK  status: ('A' for Active; 'I' for Inactive)
REMARK    1  A    between atoms: C_1  and  N_2 
REMARK    2  A    between atoms: C_7  and  O_10 
REMARK    3  A    between atoms: P_11  and  O_10 
REMARK    4  A    between atoms: P_11  and  C_14 
REMARK    5  A    between atoms: C_14  and  C_15 
REMARK    6  A    between atoms: C_15  and  C_16 
REMARK    7  A    between atoms: C_16  and  C_17 
REMARK    8  A    between atoms: C_17  and  C_18 
REMARK    9  A    between atoms: C_18  and  O_20 
ROOT
HETATM    1  P   UNK N   1       0.428   1.383   0.135  0.00  0.00     0.254 P 
HETATM    2  O   UNK N   1       0.489   1.137   1.667  0.00  0.00    -0.646 OA
HETATM    3  O   UNK N   1       1.029   3.001  -0.042  0.00  0.00    -0.646 OA
ENDROOT
BRANCH   1   4
HETATM    4  O   UNK N   1      -1.257   1.460  -0.214  0.00  0.00    -0.270 OA
BRANCH   4   5
HETATM    5  C   UNK N   1      -2.109   0.412  -0.154  0.00  0.00     0.079 A 
HETATM    6  C   UNK N   1      -3.483   0.664  -0.199  0.00  0.00     0.040 A 
HETATM    7  C   UNK N   1      -4.398  -0.389  -0.133  0.00  0.00     0.039 A 
HETATM    8  C   UNK N   1      -3.947  -1.714  -0.037  0.00  0.00     0.103 A 
HETATM    9  C   UNK N   1      -2.568  -1.969  -0.004  0.00  0.00     0.039 A 
HETATM   10  C   UNK N   1      -1.653  -0.912  -0.057  0.00  0.00     0.040 A 
BRANCH   8  11
HETATM   11  N   UNK N   1      -4.878  -2.788   0.030  0.00  0.00    -0.116 N 
HETATM   12  O   UNK N   1      -4.451  -4.032   0.087  0.00  0.00    -0.532 OA
HETATM   13  O   UNK N   1      -6.052  -2.570   0.038  0.00  0.00    -0.532 OA
ENDBRANCH   8  11
ENDBRANCH   4   5
ENDBRANCH   1   4
BRANCH   1  14
HETATM   14  C   UNK N   1       1.448   0.099  -0.762  0.00  0.00     0.136 C 
BRANCH  14  15
HETATM   15  C   UNK N   1       2.908   0.528  -0.893  0.00  0.00     0.013 C 
BRANCH  15  16
HETATM   16  C   UNK N   1       3.528   0.970   0.425  0.00  0.00     0.011 C 
BRANCH  16  17
HETATM   17  C   UNK N   1       4.787   1.781   0.153  0.00  0.00     0.110 C 
BRANCH  17  18
HETATM   18  C   UNK N   1       6.009   0.924   0.016  0.00  0.00     0.139 C 
HETATM   19  O   UNK N   1       7.087   1.447  -0.214  0.00  0.00    -0.650 OA
BRANCH  18  20
HETATM   20  O   UNK N   1       5.935  -0.415   0.157  0.00  0.00    -0.776 OA
HETATM   21  H   UNK N   1       5.103  -0.835   0.255  0.00  0.00     0.167 HD
ENDBRANCH  18  20
ENDBRANCH  17  18
ENDBRANCH  16  17
ENDBRANCH  15  16
ENDBRANCH  14  15
ENDBRANCH   1  14
TORSDOF 9
