MODEL 1
REMARK VINA RESULT:      -6.4      0.000      0.000
REMARK  9 active torsions:
REMARK  status: ('A' for Active; 'I' for Inactive)
REMARK    1  A    between atoms: C_1  and  N_2 
REMARK    2  A    between atoms: C_7  and  O_10 
REMARK    3  A    between atoms: P_11  and  O_10 
REMARK    4  A    between atoms: P_11  and  C_14 
REMARK    5  A    between atoms: C_14  and  C_15 
REMARK    6  A    between atoms: C_15  and  C_16 
REMARK    7  A    between atoms: C_16  and  C_17 
REMARK    8  A    between atoms: C_17  and  C_18 
REMARK    9  A    between atoms: C_18  and  O_20 
ROOT
HETATM    1  P   UNK N   1      34.141  17.865   7.847  0.00  0.00     0.254 P 
HETATM    2  O   UNK N   1      34.227  18.031   6.306  0.00  0.00    -0.646 OA
HETATM    3  O   UNK N   1      35.208  19.093   8.449  0.00  0.00    -0.646 OA
ENDROOT
BRANCH   1   4
HETATM    4  O   UNK N   1      34.922  16.361   8.155  0.00  0.00    -0.270 OA
BRANCH   4   5
HETATM    5  C   UNK N   1      35.062  15.796   9.375  0.00  0.00     0.079 A 
HETATM    6  C   UNK N   1      34.838  14.423   9.505  0.00  0.00     0.040 A 
HETATM    7  C   UNK N   1      34.965  13.800  10.749  0.00  0.00     0.039 A 
HETATM    8  C   UNK N   1      35.334  14.545  11.879  0.00  0.00     0.103 A 
HETATM    9  C   UNK N   1      35.570  15.921  11.748  0.00  0.00     0.039 A 
HETATM   10  C   UNK N   1      35.430  16.546  10.503  0.00  0.00     0.040 A 
BRANCH   8  11
HETATM   11  N   UNK N   1      35.464  13.912  13.147  0.00  0.00    -0.116 N 
HETATM   12  O   UNK N   1      34.582  13.013  13.532  0.00  0.00    -0.532 OA
HETATM   13  O   UNK N   1      36.373  14.189  13.870  0.00  0.00    -0.532 OA
ENDBRANCH   8  11
ENDBRANCH   4   5
ENDBRANCH   1   4
BRANCH   1  14
HETATM   14  C   UNK N   1      32.371  18.062   8.416  0.00  0.00     0.136 C 
BRANCH  14  15
HETATM   15  C   UNK N   1      31.464  16.985   7.823  0.00  0.00     0.013 C 
BRANCH  15  16
HETATM   16  C   UNK N   1      30.062  17.485   7.504  0.00  0.00     0.011 C 
BRANCH  16  17
HETATM   17  C   UNK N   1      29.519  18.276   8.686  0.00  0.00     0.110 C 
BRANCH  17  18
HETATM   18  C   UNK N   1      28.849  17.406   9.706  0.00  0.00     0.139 C 
HETATM   19  O   UNK N   1      27.665  17.138   9.583  0.00  0.00    -0.650 OA
BRANCH  18  20
HETATM   20  O   UNK N   1      29.541  16.905  10.749  0.00  0.00    -0.776 OA
HETATM   21  H   UNK N   1      29.506  17.326  11.586  0.00  0.00     0.167 HD
ENDBRANCH  18  20
ENDBRANCH  17  18
ENDBRANCH  16  17
ENDBRANCH  15  16
ENDBRANCH  14  15
ENDBRANCH   1  14
TORSDOF 9
ENDMDL
MODEL 2
REMARK VINA RESULT:      -6.3     16.468     19.746
REMARK  9 active torsions:
REMARK  status: ('A' for Active; 'I' for Inactive)
REMARK    1  A    between atoms: C_1  and  N_2 
REMARK    2  A    between atoms: C_7  and  O_10 
REMARK    3  A    between atoms: P_11  and  O_10 
REMARK    4  A    between atoms: P_11  and  C_14 
REMARK    5  A    between atoms: C_14  and  C_15 
REMARK    6  A    between atoms: C_15  and  C_16 
REMARK    7  A    between atoms: C_16  and  C_17 
REMARK    8  A    between atoms: C_17  and  C_18 
REMARK    9  A    between atoms: C_18  and  O_20 
ROOT
HETATM    1  P   UNK N   1      25.957  24.162  -7.735  0.00  0.00     0.254 P 
HETATM    2  O   UNK N   1      27.156  23.929  -8.694  0.00  0.00    -0.646 OA
HETATM    3  O   UNK N   1      24.623  23.425  -8.565  0.00  0.00    -0.646 OA
ENDROOT
BRANCH   1   4
HETATM    4  O   UNK N   1      25.682  25.861  -7.806  0.00  0.00    -0.270 OA
BRANCH   4   5
HETATM    5  C   UNK N   1      25.929  26.728  -6.798  0.00  0.00     0.079 A 
HETATM    6  C   UNK N   1      24.993  26.837  -5.766  0.00  0.00     0.040 A 
HETATM    7  C   UNK N   1      25.205  27.726  -4.710  0.00  0.00     0.039 A 
HETATM    8  C   UNK N   1      26.369  28.507  -4.665  0.00  0.00     0.103 A 
HETATM    9  C   UNK N   1      27.315  28.389  -5.693  0.00  0.00     0.039 A 
HETATM   10  C   UNK N   1      27.095  27.508  -6.758  0.00  0.00     0.040 A 
BRANCH   8  11
HETATM   11  N   UNK N   1      26.587  29.412  -3.589  0.00  0.00    -0.116 N 
HETATM   12  O   UNK N   1      27.044  28.972  -2.435  0.00  0.00    -0.532 OA
HETATM   13  O   UNK N   1      26.359  30.577  -3.724  0.00  0.00    -0.532 OA
ENDBRANCH   8  11
ENDBRANCH   4   5
ENDBRANCH   1   4
BRANCH   1  14
HETATM   14  C   UNK N   1      26.315  23.404  -6.064  0.00  0.00     0.136 C 
BRANCH  14  15
HETATM   15  C   UNK N   1      27.701  23.793  -5.553  0.00  0.00     0.013 C 
BRANCH  15  16
HETATM   16  C   UNK N   1      27.724  24.129  -4.068  0.00  0.00     0.011 C 
BRANCH  16  17
HETATM   17  C   UNK N   1      29.127  23.920  -3.517  0.00  0.00     0.110 C 
BRANCH  17  18
HETATM   18  C   UNK N   1      29.128  23.269  -2.167  0.00  0.00     0.139 C 
HETATM   19  O   UNK N   1      28.066  23.009  -1.625  0.00  0.00    -0.650 OA
BRANCH  18  20
HETATM   20  O   UNK N   1      30.285  22.954  -1.551  0.00  0.00    -0.776 OA
HETATM   21  H   UNK N   1      30.311  22.845  -0.620  0.00  0.00     0.167 HD
ENDBRANCH  18  20
ENDBRANCH  17  18
ENDBRANCH  16  17
ENDBRANCH  15  16
ENDBRANCH  14  15
ENDBRANCH   1  14
TORSDOF 9
ENDMDL
MODEL 3
REMARK VINA RESULT:      -6.2     13.950     15.485
REMARK  9 active torsions:
REMARK  status: ('A' for Active; 'I' for Inactive)
REMARK    1  A    between atoms: C_1  and  N_2 
REMARK    2  A    between atoms: C_7  and  O_10 
REMARK    3  A    between atoms: P_11  and  O_10 
REMARK    4  A    between atoms: P_11  and  C_14 
REMARK    5  A    between atoms: C_14  and  C_15 
REMARK    6  A    between atoms: C_15  and  C_16 
REMARK    7  A    between atoms: C_16  and  C_17 
REMARK    8  A    between atoms: C_17  and  C_18 
REMARK    9  A    between atoms: C_18  and  O_20 
ROOT
HETATM    1  P   UNK N   1      19.844  15.671   6.027  0.00  0.00     0.254 P 
HETATM    2  O   UNK N   1      19.809  14.121   6.123  0.00  0.00    -0.646 OA
HETATM    3  O   UNK N   1      18.299  16.072   5.347  0.00  0.00    -0.646 OA
ENDROOT
BRANCH   1   4
HETATM    4  O   UNK N   1      21.004  15.992   4.796  0.00  0.00    -0.270 OA
BRANCH   4   5
HETATM    5  C   UNK N   1      20.986  17.067   3.975  0.00  0.00     0.079 A 
HETATM    6  C   UNK N   1      20.411  16.931   2.708  0.00  0.00     0.040 A 
HETATM    7  C   UNK N   1      20.378  18.014   1.827  0.00  0.00     0.039 A 
HETATM    8  C   UNK N   1      20.906  19.256   2.211  0.00  0.00     0.103 A 
HETATM    9  C   UNK N   1      21.472  19.396   3.487  0.00  0.00     0.039 A 
HETATM   10  C   UNK N   1      21.517  18.307   4.363  0.00  0.00     0.040 A 
BRANCH   8  11
HETATM   11  N   UNK N   1      20.872  20.360   1.314  0.00  0.00    -0.116 N 
HETATM   12  O   UNK N   1      20.820  20.157   0.015  0.00  0.00    -0.532 OA
HETATM   13  O   UNK N   1      20.887  21.478   1.733  0.00  0.00    -0.532 OA
ENDBRANCH   8  11
ENDBRANCH   4   5
ENDBRANCH   1   4
BRANCH   1  14
HETATM   14  C   UNK N   1      20.137  16.412   7.718  0.00  0.00     0.136 C 
BRANCH  14  15
HETATM   15  C   UNK N   1      18.826  16.794   8.402  0.00  0.00     0.013 C 
BRANCH  15  16
HETATM   16  C   UNK N   1      18.969  17.957   9.374  0.00  0.00     0.011 C 
BRANCH  16  17
HETATM   17  C   UNK N   1      17.674  18.134  10.155  0.00  0.00     0.110 C 
BRANCH  17  18
HETATM   18  C   UNK N   1      17.836  19.029  11.347  0.00  0.00     0.139 C 
HETATM   19  O   UNK N   1      16.938  19.101  12.170  0.00  0.00    -0.650 OA
BRANCH  18  20
HETATM   20  O   UNK N   1      18.964  19.744  11.528  0.00  0.00    -0.776 OA
HETATM   21  H   UNK N   1      19.734  19.546  11.032  0.00  0.00     0.167 HD
ENDBRANCH  18  20
ENDBRANCH  17  18
ENDBRANCH  16  17
ENDBRANCH  15  16
ENDBRANCH  14  15
ENDBRANCH   1  14
TORSDOF 9
ENDMDL
MODEL 4
REMARK VINA RESULT:      -6.2      3.703      7.623
REMARK  9 active torsions:
REMARK  status: ('A' for Active; 'I' for Inactive)
REMARK    1  A    between atoms: C_1  and  N_2 
REMARK    2  A    between atoms: C_7  and  O_10 
REMARK    3  A    between atoms: P_11  and  O_10 
REMARK    4  A    between atoms: P_11  and  C_14 
REMARK    5  A    between atoms: C_14  and  C_15 
REMARK    6  A    between atoms: C_15  and  C_16 
REMARK    7  A    between atoms: C_16  and  C_17 
REMARK    8  A    between atoms: C_17  and  C_18 
REMARK    9  A    between atoms: C_18  and  O_20 
ROOT
HETATM    1  P   UNK N   1      35.361  12.677  12.140  0.00  0.00     0.254 P 
HETATM    2  O   UNK N   1      36.774  13.280  12.370  0.00  0.00    -0.646 OA
HETATM    3  O   UNK N   1      35.452  12.026  10.535  0.00  0.00    -0.646 OA
ENDROOT
BRANCH   1   4
HETATM    4  O   UNK N   1      34.327  14.051  12.040  0.00  0.00    -0.270 OA
BRANCH   4   5
HETATM    5  C   UNK N   1      34.420  15.023  11.105  0.00  0.00     0.079 A 
HETATM    6  C   UNK N   1      35.362  16.039  11.288  0.00  0.00     0.040 A 
HETATM    7  C   UNK N   1      35.486  17.066  10.350  0.00  0.00     0.039 A 
HETATM    8  C   UNK N   1      34.676  17.081   9.204  0.00  0.00     0.103 A 
HETATM    9  C   UNK N   1      33.738  16.055   9.014  0.00  0.00     0.039 A 
HETATM   10  C   UNK N   1      33.606  15.034   9.961  0.00  0.00     0.040 A 
BRANCH   8  11
HETATM   11  N   UNK N   1      34.801  18.126   8.247  0.00  0.00    -0.116 N 
HETATM   12  O   UNK N   1      35.322  19.284   8.596  0.00  0.00    -0.532 OA
HETATM   13  O   UNK N   1      34.438  17.962   7.122  0.00  0.00    -0.532 OA
ENDBRANCH   8  11
ENDBRANCH   4   5
ENDBRANCH   1   4
BRANCH   1  14
HETATM   14  C   UNK N   1      34.989  11.398  13.451  0.00  0.00     0.136 C 
BRANCH  14  15
HETATM   15  C   UNK N   1      34.391  12.032  14.705  0.00  0.00     0.013 C 
BRANCH  15  16
HETATM   16  C   UNK N   1      35.371  12.114  15.867  0.00  0.00     0.011 C 
BRANCH  16  17
HETATM   17  C   UNK N   1      35.697  13.572  16.160  0.00  0.00     0.110 C 
BRANCH  17  18
HETATM   18  C   UNK N   1      37.034  13.985  15.623  0.00  0.00     0.139 C 
HETATM   19  O   UNK N   1      37.411  15.136  15.770  0.00  0.00    -0.650 OA
BRANCH  18  20
HETATM   20  O   UNK N   1      37.830  13.100  14.990  0.00  0.00    -0.776 OA
HETATM   21  H   UNK N   1      38.624  13.384  14.583  0.00  0.00     0.167 HD
ENDBRANCH  18  20
ENDBRANCH  17  18
ENDBRANCH  16  17
ENDBRANCH  15  16
ENDBRANCH  14  15
ENDBRANCH   1  14
TORSDOF 9
ENDMDL
MODEL 5
REMARK VINA RESULT:      -6.0     15.312     17.943
REMARK  9 active torsions:
REMARK  status: ('A' for Active; 'I' for Inactive)
REMARK    1  A    between atoms: C_1  and  N_2 
REMARK    2  A    between atoms: C_7  and  O_10 
REMARK    3  A    between atoms: P_11  and  O_10 
REMARK    4  A    between atoms: P_11  and  C_14 
REMARK    5  A    between atoms: C_14  and  C_15 
REMARK    6  A    between atoms: C_15  and  C_16 
REMARK    7  A    between atoms: C_16  and  C_17 
REMARK    8  A    between atoms: C_17  and  C_18 
REMARK    9  A    between atoms: C_18  and  O_20 
ROOT
HETATM    1  P   UNK N   1      26.164  24.019  -7.179  0.00  0.00     0.254 P 
HETATM    2  O   UNK N   1      25.375  23.224  -6.104  0.00  0.00    -0.646 OA
HETATM    3  O   UNK N   1      25.525  23.424  -8.678  0.00  0.00    -0.646 OA
ENDROOT
BRANCH   1   4
HETATM    4  O   UNK N   1      27.769  23.404  -7.067  0.00  0.00    -0.270 OA
BRANCH   4   5
HETATM    5  C   UNK N   1      28.460  23.248  -5.916  0.00  0.00     0.079 A 
HETATM    6  C   UNK N   1      29.336  22.164  -5.803  0.00  0.00     0.040 A 
HETATM    7  C   UNK N   1      30.064  21.963  -4.629  0.00  0.00     0.039 A 
HETATM    8  C   UNK N   1      29.938  22.857  -3.555  0.00  0.00     0.103 A 
HETATM    9  C   UNK N   1      29.069  23.952  -3.672  0.00  0.00     0.039 A 
HETATM   10  C   UNK N   1      28.330  24.144  -4.844  0.00  0.00     0.040 A 
BRANCH   8  11
HETATM   11  N   UNK N   1      30.680  22.653  -2.358  0.00  0.00    -0.116 N 
HETATM   12  O   UNK N   1      31.837  22.027  -2.395  0.00  0.00    -0.532 OA
HETATM   13  O   UNK N   1      30.261  23.050  -1.312  0.00  0.00    -0.532 OA
ENDBRANCH   8  11
ENDBRANCH   4   5
ENDBRANCH   1   4
BRANCH   1  14
HETATM   14  C   UNK N   1      25.914  25.855  -6.930  0.00  0.00     0.136 C 
BRANCH  14  15
HETATM   15  C   UNK N   1      25.242  26.158  -5.592  0.00  0.00     0.013 C 
BRANCH  15  16
HETATM   16  C   UNK N   1      25.408  27.604  -5.147  0.00  0.00     0.011 C 
BRANCH  16  17
HETATM   17  C   UNK N   1      25.615  27.655  -3.640  0.00  0.00     0.110 C 
BRANCH  17  18
HETATM   18  C   UNK N   1      27.003  28.077  -3.261  0.00  0.00     0.139 C 
HETATM   19  O   UNK N   1      27.163  28.852  -2.333  0.00  0.00    -0.650 OA
BRANCH  18  20
HETATM   20  O   UNK N   1      28.077  27.600  -3.923  0.00  0.00    -0.776 OA
HETATM   21  H   UNK N   1      28.388  26.732  -3.756  0.00  0.00     0.167 HD
ENDBRANCH  18  20
ENDBRANCH  17  18
ENDBRANCH  16  17
ENDBRANCH  15  16
ENDBRANCH  14  15
ENDBRANCH   1  14
TORSDOF 9
ENDMDL
MODEL 6
REMARK VINA RESULT:      -5.8     11.382     14.173
REMARK  9 active torsions:
REMARK  status: ('A' for Active; 'I' for Inactive)
REMARK    1  A    between atoms: C_1  and  N_2 
REMARK    2  A    between atoms: C_7  and  O_10 
REMARK    3  A    between atoms: P_11  and  O_10 
REMARK    4  A    between atoms: P_11  and  C_14 
REMARK    5  A    between atoms: C_14  and  C_15 
REMARK    6  A    between atoms: C_15  and  C_16 
REMARK    7  A    between atoms: C_16  and  C_17 
REMARK    8  A    between atoms: C_17  and  C_18 
REMARK    9  A    between atoms: C_18  and  O_20 
ROOT
HETATM    1  P   UNK N   1      21.165  13.938   7.157  0.00  0.00     0.254 P 
HETATM    2  O   UNK N   1      20.600  12.580   6.660  0.00  0.00    -0.646 OA
HETATM    3  O   UNK N   1      19.741  14.873   7.491  0.00  0.00    -0.646 OA
ENDROOT
BRANCH   1   4
HETATM    4  O   UNK N   1      21.877  14.639   5.755  0.00  0.00    -0.270 OA
BRANCH   4   5
HETATM    5  C   UNK N   1      21.522  15.828   5.217  0.00  0.00     0.079 A 
HETATM    6  C   UNK N   1      20.797  15.832   4.023  0.00  0.00     0.040 A 
HETATM    7  C   UNK N   1      20.416  17.037   3.430  0.00  0.00     0.039 A 
HETATM    8  C   UNK N   1      20.743  18.259   4.037  0.00  0.00     0.103 A 
HETATM    9  C   UNK N   1      21.461  18.257   5.242  0.00  0.00     0.039 A 
HETATM   10  C   UNK N   1      21.853  17.048   5.828  0.00  0.00     0.040 A 
BRANCH   8  11
HETATM   11  N   UNK N   1      20.355  19.489   3.434  0.00  0.00    -0.116 N 
HETATM   12  O   UNK N   1      19.740  19.491   2.270  0.00  0.00    -0.532 OA
HETATM   13  O   UNK N   1      20.581  20.526   3.980  0.00  0.00    -0.532 OA
ENDBRANCH   8  11
ENDBRANCH   4   5
ENDBRANCH   1   4
BRANCH   1  14
HETATM   14  C   UNK N   1      22.256  13.671   8.651  0.00  0.00     0.136 C 
BRANCH  14  15
HETATM   15  C   UNK N   1      21.459  13.734   9.952  0.00  0.00     0.013 C 
BRANCH  15  16
HETATM   16  C   UNK N   1      21.412  12.408  10.697  0.00  0.00     0.011 C 
BRANCH  16  17
HETATM   17  C   UNK N   1      22.770  11.725  10.613  0.00  0.00     0.110 C 
BRANCH  17  18
HETATM   18  C   UNK N   1      23.623  11.982  11.819  0.00  0.00     0.139 C 
HETATM   19  O   UNK N   1      23.128  11.910  12.931  0.00  0.00    -0.650 OA
BRANCH  18  20
HETATM   20  O   UNK N   1      24.932  12.278  11.690  0.00  0.00    -0.776 OA
HETATM   21  H   UNK N   1      25.533  12.073  12.379  0.00  0.00     0.167 HD
ENDBRANCH  18  20
ENDBRANCH  17  18
ENDBRANCH  16  17
ENDBRANCH  15  16
ENDBRANCH  14  15
ENDBRANCH   1  14
TORSDOF 9
ENDMDL
MODEL 7
REMARK VINA RESULT:      -5.8     12.669     14.748
REMARK  9 active torsions:
REMARK  status: ('A' for Active; 'I' for Inactive)
REMARK    1  A    between atoms: C_1  and  N_2 
REMARK    2  A    between atoms: C_7  and  O_10 
REMARK    3  A    between atoms: P_11  and  O_10 
REMARK    4  A    between atoms: P_11  and  C_14 
REMARK    5  A    between atoms: C_14  and  C_15 
REMARK    6  A    between atoms: C_15  and  C_16 
REMARK    7  A    between atoms: C_16  and  C_17 
REMARK    8  A    between atoms: C_17  and  C_18 
REMARK    9  A    between atoms: C_18  and  O_20 
ROOT
HETATM    1  P   UNK N   1      20.026  15.381   6.024  0.00  0.00     0.254 P 
HETATM    2  O   UNK N   1      19.866  13.836   6.033  0.00  0.00    -0.646 OA
HETATM    3  O   UNK N   1      18.394  15.958   5.900  0.00  0.00    -0.646 OA
ENDROOT
BRANCH   1   4
HETATM    4  O   UNK N   1      20.768  15.721   4.508  0.00  0.00    -0.270 OA
BRANCH   4   5
HETATM    5  C   UNK N   1      20.934  16.957   3.987  0.00  0.00     0.079 A 
HETATM    6  C   UNK N   1      22.154  17.609   4.188  0.00  0.00     0.040 A 
HETATM    7  C   UNK N   1      22.366  18.890   3.673  0.00  0.00     0.039 A 
HETATM    8  C   UNK N   1      21.360  19.531   2.934  0.00  0.00     0.103 A 
HETATM    9  C   UNK N   1      20.140  18.873   2.721  0.00  0.00     0.039 A 
HETATM   10  C   UNK N   1      19.925  17.595   3.249  0.00  0.00     0.040 A 
BRANCH   8  11
HETATM   11  N   UNK N   1      21.575  20.835   2.408  0.00  0.00    -0.116 N 
HETATM   12  O   UNK N   1      20.791  21.304   1.460  0.00  0.00    -0.532 OA
HETATM   13  O   UNK N   1      22.463  21.516   2.825  0.00  0.00    -0.532 OA
ENDBRANCH   8  11
ENDBRANCH   4   5
ENDBRANCH   1   4
BRANCH   1  14
HETATM   14  C   UNK N   1      20.907  15.943   7.574  0.00  0.00     0.136 C 
BRANCH  14  15
HETATM   15  C   UNK N   1      20.371  15.236   8.817  0.00  0.00     0.013 C 
BRANCH  15  16
HETATM   16  C   UNK N   1      21.395  14.331   9.486  0.00  0.00     0.011 C 
BRANCH  16  17
HETATM   17  C   UNK N   1      20.683  13.189  10.198  0.00  0.00     0.110 C 
BRANCH  17  18
HETATM   18  C   UNK N   1      21.633  12.172  10.754  0.00  0.00     0.139 C 
HETATM   19  O   UNK N   1      22.477  11.676  10.025  0.00  0.00    -0.650 OA
BRANCH  18  20
HETATM   20  O   UNK N   1      21.576  11.808  12.051  0.00  0.00    -0.776 OA
HETATM   21  H   UNK N   1      20.751  11.623  12.455  0.00  0.00     0.167 HD
ENDBRANCH  18  20
ENDBRANCH  17  18
ENDBRANCH  16  17
ENDBRANCH  15  16
ENDBRANCH  14  15
ENDBRANCH   1  14
TORSDOF 9
ENDMDL
MODEL 8
REMARK VINA RESULT:      -5.7     10.796     12.547
REMARK  9 active torsions:
REMARK  status: ('A' for Active; 'I' for Inactive)
REMARK    1  A    between atoms: C_1  and  N_2 
REMARK    2  A    between atoms: C_7  and  O_10 
REMARK    3  A    between atoms: P_11  and  O_10 
REMARK    4  A    between atoms: P_11  and  C_14 
REMARK    5  A    between atoms: C_14  and  C_15 
REMARK    6  A    between atoms: C_15  and  C_16 
REMARK    7  A    between atoms: C_16  and  C_17 
REMARK    8  A    between atoms: C_17  and  C_18 
REMARK    9  A    between atoms: C_18  and  O_20 
ROOT
HETATM    1  P   UNK N   1      20.505  16.261   7.272  0.00  0.00     0.254 P 
HETATM    2  O   UNK N   1      20.746  16.746   8.727  0.00  0.00    -0.646 OA
HETATM    3  O   UNK N   1      18.777  16.136   7.165  0.00  0.00    -0.646 OA
ENDROOT
BRANCH   1   4
HETATM    4  O   UNK N   1      21.100  14.645   7.261  0.00  0.00    -0.270 OA
BRANCH   4   5
HETATM    5  C   UNK N   1      21.711  14.037   8.302  0.00  0.00     0.079 A 
HETATM    6  C   UNK N   1      20.936  13.650   9.399  0.00  0.00     0.040 A 
HETATM    7  C   UNK N   1      21.528  13.025  10.499  0.00  0.00     0.039 A 
HETATM    8  C   UNK N   1      22.906  12.765  10.508  0.00  0.00     0.103 A 
HETATM    9  C   UNK N   1      23.684  13.142   9.403  0.00  0.00     0.039 A 
HETATM   10  C   UNK N   1      23.091  13.780   8.308  0.00  0.00     0.040 A 
BRANCH   8  11
HETATM   11  N   UNK N   1      23.511  12.129  11.628  0.00  0.00    -0.116 N 
HETATM   12  O   UNK N   1      22.779  11.771  12.662  0.00  0.00    -0.532 OA
HETATM   13  O   UNK N   1      24.685  11.912  11.638  0.00  0.00    -0.532 OA
ENDBRANCH   8  11
ENDBRANCH   4   5
ENDBRANCH   1   4
BRANCH   1  14
HETATM   14  C   UNK N   1      21.248  17.474   6.060  0.00  0.00     0.136 C 
BRANCH  14  15
HETATM   15  C   UNK N   1      20.822  17.173   4.625  0.00  0.00     0.013 C 
BRANCH  15  16
HETATM   16  C   UNK N   1      21.456  18.101   3.599  0.00  0.00     0.011 C 
BRANCH  16  17
HETATM   17  C   UNK N   1      20.993  19.530   3.844  0.00  0.00     0.110 C 
BRANCH  17  18
HETATM   18  C   UNK N   1      21.207  20.419   2.657  0.00  0.00     0.139 C 
HETATM   19  O   UNK N   1      20.738  20.102   1.577  0.00  0.00    -0.650 OA
BRANCH  18  20
HETATM   20  O   UNK N   1      21.898  21.571   2.771  0.00  0.00    -0.776 OA
HETATM   21  H   UNK N   1      22.791  21.617   2.489  0.00  0.00     0.167 HD
ENDBRANCH  18  20
ENDBRANCH  17  18
ENDBRANCH  16  17
ENDBRANCH  15  16
ENDBRANCH  14  15
ENDBRANCH   1  14
TORSDOF 9
ENDMDL
MODEL 9
REMARK VINA RESULT:      -5.7     13.632     15.114
REMARK  9 active torsions:
REMARK  status: ('A' for Active; 'I' for Inactive)
REMARK    1  A    between atoms: C_1  and  N_2 
REMARK    2  A    between atoms: C_7  and  O_10 
REMARK    3  A    between atoms: P_11  and  O_10 
REMARK    4  A    between atoms: P_11  and  C_14 
REMARK    5  A    between atoms: C_14  and  C_15 
REMARK    6  A    between atoms: C_15  and  C_16 
REMARK    7  A    between atoms: C_16  and  C_17 
REMARK    8  A    between atoms: C_17  and  C_18 
REMARK    9  A    between atoms: C_18  and  O_20 
ROOT
HETATM    1  P   UNK N   1      19.723  14.710   4.870  0.00  0.00     0.254 P 
HETATM    2  O   UNK N   1      20.334  14.489   3.460  0.00  0.00    -0.646 OA
HETATM    3  O   UNK N   1      18.242  13.807   4.819  0.00  0.00    -0.646 OA
ENDROOT
BRANCH   1   4
HETATM    4  O   UNK N   1      19.268  16.371   4.877  0.00  0.00    -0.270 OA
BRANCH   4   5
HETATM    5  C   UNK N   1      19.941  17.361   4.249  0.00  0.00     0.079 A 
HETATM    6  C   UNK N   1      19.399  17.900   3.079  0.00  0.00     0.040 A 
HETATM    7  C   UNK N   1      20.064  18.920   2.395  0.00  0.00     0.039 A 
HETATM    8  C   UNK N   1      21.278  19.426   2.885  0.00  0.00     0.103 A 
HETATM    9  C   UNK N   1      21.817  18.894   4.066  0.00  0.00     0.039 A 
HETATM   10  C   UNK N   1      21.155  17.864   4.742  0.00  0.00     0.040 A 
BRANCH   8  11
HETATM   11  N   UNK N   1      21.957  20.465   2.189  0.00  0.00    -0.116 N 
HETATM   12  O   UNK N   1      21.738  20.656   0.905  0.00  0.00    -0.532 OA
HETATM   13  O   UNK N   1      22.728  21.173   2.764  0.00  0.00    -0.532 OA
ENDBRANCH   8  11
ENDBRANCH   4   5
ENDBRANCH   1   4
BRANCH   1  14
HETATM   14  C   UNK N   1      20.916  14.126   6.185  0.00  0.00     0.136 C 
BRANCH  14  15
HETATM   15  C   UNK N   1      21.252  15.237   7.177  0.00  0.00     0.013 C 
BRANCH  15  16
HETATM   16  C   UNK N   1      20.158  15.479   8.207  0.00  0.00     0.011 C 
BRANCH  16  17
HETATM   17  C   UNK N   1      19.869  16.970   8.309  0.00  0.00     0.110 C 
BRANCH  17  18
HETATM   18  C   UNK N   1      18.567  17.262   8.991  0.00  0.00     0.139 C 
HETATM   19  O   UNK N   1      17.643  16.472   8.885  0.00  0.00    -0.650 OA
BRANCH  18  20
HETATM   20  O   UNK N   1      18.407  18.378   9.730  0.00  0.00    -0.776 OA
HETATM   21  H   UNK N   1      19.108  18.695  10.266  0.00  0.00     0.167 HD
ENDBRANCH  18  20
ENDBRANCH  17  18
ENDBRANCH  16  17
ENDBRANCH  15  16
ENDBRANCH  14  15
ENDBRANCH   1  14
TORSDOF 9
ENDMDL
