MODEL 1
REMARK VINA RESULT:      -6.4      0.000      0.000
REMARK  6 active torsions:
REMARK  status: ('A' for Active; 'I' for Inactive)
REMARK    1  A    between atoms: C_1  and  O_10 
REMARK    2  A    between atoms: C_6  and  N_7 
REMARK    3  A    between atoms: C_11  and  O_10 
REMARK    4  A    between atoms: C_12  and  O_13 
REMARK    5  A    between atoms: C_14  and  O_15 
REMARK    6  A    between atoms: C_16  and  O_17 
ROOT
HETATM    1  C   UNK N   1      28.222  17.468   7.245  0.00  0.00     0.298 C 
HETATM    2  C   UNK N   1      28.270  17.754   8.765  0.00  0.00     0.205 C 
HETATM    3  C   UNK N   1      29.660  18.221   9.205  0.00  0.00     0.183 C 
HETATM    4  C   UNK N   1      30.696  17.208   8.707  0.00  0.00     0.178 C 
HETATM    5  C   UNK N   1      30.547  17.096   7.181  0.00  0.00     0.152 C 
HETATM    6  C   UNK N   1      31.590  16.141   6.623  0.00  0.00     0.042 C 
HETATM    7  O   UNK N   1      29.266  16.589   6.844  0.00  0.00    -0.351 OA
ENDROOT
BRANCH   1   8
HETATM    8  O   UNK N   1      28.180  18.624   6.476  0.00  0.00    -0.315 OA
BRANCH   8   9
HETATM    9  C   UNK N   1      27.228  18.839   5.527  0.00  0.00     0.105 A 
HETATM   10  C   UNK N   1      26.935  17.837   4.587  0.00  0.00     0.039 A 
HETATM   11  C   UNK N   1      25.961  18.036   3.610  0.00  0.00     0.003 A 
HETATM   12  C   UNK N   1      25.261  19.239   3.559  0.00  0.00     0.003 A 
HETATM   13  C   UNK N   1      25.531  20.243   4.489  0.00  0.00     0.039 A 
HETATM   14  C   UNK N   1      26.511  20.065   5.480  0.00  0.00     0.136 A 
BRANCH  14  15
HETATM   15  N   UNK N   1      26.728  21.109   6.431  0.00  0.00    -0.113 N 
HETATM   16  O   UNK N   1      26.139  21.056   7.608  0.00  0.00    -0.532 OA
HETATM   17  O   UNK N   1      27.475  22.009   6.195  0.00  0.00    -0.532 OA
ENDBRANCH  14  15
ENDBRANCH   8   9
ENDBRANCH   1   8
BRANCH   2  18
HETATM   18  O   UNK N   1      27.301  18.697   9.119  0.00  0.00    -0.388 OA
HETATM   19  H   UNK N   1      26.521  18.458   9.644  0.00  0.00     0.210 HD
ENDBRANCH   2  18
BRANCH   3  20
HETATM   20  O   UNK N   1      29.715  18.313  10.599  0.00  0.00    -0.390 OA
HETATM   21  H   UNK N   1      30.024  17.558  11.124  0.00  0.00     0.210 HD
ENDBRANCH   3  20
BRANCH   4  22
HETATM   22  O   UNK N   1      31.982  17.637   9.048  0.00  0.00    -0.390 OA
HETATM   23  H   UNK N   1      32.875  17.615   8.671  0.00  0.00     0.210 HD
ENDBRANCH   4  22
TORSDOF 6
ENDMDL
MODEL 2
REMARK VINA RESULT:      -6.3      5.993      7.774
REMARK  6 active torsions:
REMARK  status: ('A' for Active; 'I' for Inactive)
REMARK    1  A    between atoms: C_1  and  O_10 
REMARK    2  A    between atoms: C_6  and  N_7 
REMARK    3  A    between atoms: C_11  and  O_10 
REMARK    4  A    between atoms: C_12  and  O_13 
REMARK    5  A    between atoms: C_14  and  O_15 
REMARK    6  A    between atoms: C_16  and  O_17 
ROOT
HETATM    1  C   UNK N   1      34.622  14.994   9.261  0.00  0.00     0.298 C 
HETATM    2  C   UNK N   1      34.856  15.572  10.678  0.00  0.00     0.205 C 
HETATM    3  C   UNK N   1      36.257  15.234  11.198  0.00  0.00     0.183 C 
HETATM    4  C   UNK N   1      36.471  13.723  11.075  0.00  0.00     0.178 C 
HETATM    5  C   UNK N   1      36.260  13.335   9.602  0.00  0.00     0.152 C 
HETATM    6  C   UNK N   1      36.515  11.849   9.411  0.00  0.00     0.042 C 
HETATM    7  O   UNK N   1      34.925  13.604   9.206  0.00  0.00    -0.351 OA
ENDROOT
BRANCH   1   8
HETATM    8  O   UNK N   1      35.268  15.716   8.266  0.00  0.00    -0.315 OA
BRANCH   8   9
HETATM    9  C   UNK N   1      34.677  16.016   7.078  0.00  0.00     0.105 A 
HETATM   10  C   UNK N   1      34.709  15.087   6.024  0.00  0.00     0.039 A 
HETATM   11  C   UNK N   1      34.106  15.375   4.799  0.00  0.00     0.003 A 
HETATM   12  C   UNK N   1      33.457  16.592   4.611  0.00  0.00     0.003 A 
HETATM   13  C   UNK N   1      33.407  17.524   5.648  0.00  0.00     0.039 A 
HETATM   14  C   UNK N   1      34.011  17.257   6.889  0.00  0.00     0.136 A 
BRANCH  14  15
HETATM   15  N   UNK N   1      33.903  18.228   7.932  0.00  0.00    -0.113 N 
HETATM   16  O   UNK N   1      34.938  18.986   8.230  0.00  0.00    -0.532 OA
HETATM   17  O   UNK N   1      32.872  18.398   8.507  0.00  0.00    -0.532 OA
ENDBRANCH  14  15
ENDBRANCH   8   9
ENDBRANCH   1   8
BRANCH   2  18
HETATM   18  O   UNK N   1      34.651  16.955  10.685  0.00  0.00    -0.388 OA
HETATM   19  H   UNK N   1      35.363  17.579  10.475  0.00  0.00     0.210 HD
ENDBRANCH   2  18
BRANCH   3  20
HETATM   20  O   UNK N   1      36.379  15.628  12.534  0.00  0.00    -0.390 OA
HETATM   21  H   UNK N   1      37.109  15.287  13.075  0.00  0.00     0.210 HD
ENDBRANCH   3  20
BRANCH   4  22
HETATM   22  O   UNK N   1      37.764  13.391  11.493  0.00  0.00    -0.390 OA
HETATM   23  H   UNK N   1      38.649  13.785  11.485  0.00  0.00     0.210 HD
ENDBRANCH   4  22
TORSDOF 6
ENDMDL
MODEL 3
REMARK VINA RESULT:      -6.0     10.926     13.931
REMARK  6 active torsions:
REMARK  status: ('A' for Active; 'I' for Inactive)
REMARK    1  A    between atoms: C_1  and  O_10 
REMARK    2  A    between atoms: C_6  and  N_7 
REMARK    3  A    between atoms: C_11  and  O_10 
REMARK    4  A    between atoms: C_12  and  O_13 
REMARK    5  A    between atoms: C_14  and  O_15 
REMARK    6  A    between atoms: C_16  and  O_17 
ROOT
HETATM    1  C   UNK N   1      36.218  12.509  15.174  0.00  0.00     0.298 C 
HETATM    2  C   UNK N   1      36.775  13.685  14.336  0.00  0.00     0.205 C 
HETATM    3  C   UNK N   1      35.745  14.187  13.319  0.00  0.00     0.183 C 
HETATM    4  C   UNK N   1      35.244  12.993  12.501  0.00  0.00     0.178 C 
HETATM    5  C   UNK N   1      34.673  11.957  13.483  0.00  0.00     0.152 C 
HETATM    6  C   UNK N   1      34.110  10.769  12.720  0.00  0.00     0.042 C 
HETATM    7  O   UNK N   1      35.692  11.478  14.346  0.00  0.00    -0.351 OA
ENDROOT
BRANCH   1   8
HETATM    8  O   UNK N   1      35.315  12.917  16.148  0.00  0.00    -0.315 OA
BRANCH   8   9
HETATM    9  C   UNK N   1      35.274  12.357  17.388  0.00  0.00     0.105 A 
HETATM   10  C   UNK N   1      35.172  10.963  17.526  0.00  0.00     0.039 A 
HETATM   11  C   UNK N   1      35.132  10.370  18.787  0.00  0.00     0.003 A 
HETATM   12  C   UNK N   1      35.198  11.162  19.931  0.00  0.00     0.003 A 
HETATM   13  C   UNK N   1      35.308  12.547  19.815  0.00  0.00     0.039 A 
HETATM   14  C   UNK N   1      35.346  13.166  18.554  0.00  0.00     0.136 A 
BRANCH  14  15
HETATM   15  N   UNK N   1      35.494  14.586  18.486  0.00  0.00    -0.113 N 
HETATM   16  O   UNK N   1      36.551  15.107  17.898  0.00  0.00    -0.532 OA
HETATM   17  O   UNK N   1      34.650  15.312  18.913  0.00  0.00    -0.532 OA
ENDBRANCH  14  15
ENDBRANCH   8   9
ENDBRANCH   1   8
BRANCH   2  18
HETATM   18  O   UNK N   1      37.191  14.728  15.167  0.00  0.00    -0.388 OA
HETATM   19  H   UNK N   1      36.883  15.639  15.039  0.00  0.00     0.210 HD
ENDBRANCH   2  18
BRANCH   3  20
HETATM   20  O   UNK N   1      36.330  15.134  12.473  0.00  0.00    -0.390 OA
HETATM   21  H   UNK N   1      37.222  14.984  12.120  0.00  0.00     0.210 HD
ENDBRANCH   3  20
BRANCH   4  22
HETATM   22  O   UNK N   1      34.261  13.413  11.599  0.00  0.00    -0.390 OA
HETATM   23  H   UNK N   1      33.770  14.222  11.391  0.00  0.00     0.210 HD
ENDBRANCH   4  22
TORSDOF 6
ENDMDL
MODEL 4
REMARK VINA RESULT:      -5.9      2.926      4.699
REMARK  6 active torsions:
REMARK  status: ('A' for Active; 'I' for Inactive)
REMARK    1  A    between atoms: C_1  and  O_10 
REMARK    2  A    between atoms: C_6  and  N_7 
REMARK    3  A    between atoms: C_11  and  O_10 
REMARK    4  A    between atoms: C_12  and  O_13 
REMARK    5  A    between atoms: C_14  and  O_15 
REMARK    6  A    between atoms: C_16  and  O_17 
ROOT
HETATM    1  C   UNK N   1      32.377  15.674   7.885  0.00  0.00     0.298 C 
HETATM    2  C   UNK N   1      32.934  14.646   8.898  0.00  0.00     0.205 C 
HETATM    3  C   UNK N   1      33.506  15.335  10.141  0.00  0.00     0.183 C 
HETATM    4  C   UNK N   1      34.507  16.403   9.689  0.00  0.00     0.178 C 
HETATM    5  C   UNK N   1      33.773  17.367   8.744  0.00  0.00     0.152 C 
HETATM    6  C   UNK N   1      34.707  18.483   8.306  0.00  0.00     0.042 C 
HETATM    7  O   UNK N   1      33.335  16.683   7.581  0.00  0.00    -0.351 OA
ENDROOT
BRANCH   1   8
HETATM    8  O   UNK N   1      31.153  16.206   8.269  0.00  0.00    -0.315 OA
BRANCH   8   9
HETATM    9  C   UNK N   1      30.336  16.864   7.402  0.00  0.00     0.105 A 
HETATM   10  C   UNK N   1      30.556  16.766   6.018  0.00  0.00     0.039 A 
HETATM   11  C   UNK N   1      29.729  17.430   5.113  0.00  0.00     0.003 A 
HETATM   12  C   UNK N   1      28.663  18.197   5.577  0.00  0.00     0.003 A 
HETATM   13  C   UNK N   1      28.422  18.299   6.947  0.00  0.00     0.039 A 
HETATM   14  C   UNK N   1      29.246  17.643   7.877  0.00  0.00     0.136 A 
BRANCH  14  15
HETATM   15  N   UNK N   1      28.938  17.750   9.268  0.00  0.00    -0.113 N 
HETATM   16  O   UNK N   1      29.622  18.579  10.029  0.00  0.00    -0.532 OA
HETATM   17  O   UNK N   1      28.036  17.133   9.746  0.00  0.00    -0.532 OA
ENDBRANCH  14  15
ENDBRANCH   8   9
ENDBRANCH   1   8
BRANCH   2  18
HETATM   18  O   UNK N   1      31.946  13.726   9.259  0.00  0.00    -0.388 OA
HETATM   19  H   UNK N   1      31.842  12.879   8.798  0.00  0.00     0.210 HD
ENDBRANCH   2  18
BRANCH   3  20
HETATM   20  O   UNK N   1      34.145  14.397  10.957  0.00  0.00    -0.390 OA
HETATM   21  H   UNK N   1      33.675  13.592  11.230  0.00  0.00     0.210 HD
ENDBRANCH   3  20
BRANCH   4  22
HETATM   22  O   UNK N   1      35.007  17.087  10.802  0.00  0.00    -0.390 OA
HETATM   23  H   UNK N   1      34.777  17.861  11.337  0.00  0.00     0.210 HD
ENDBRANCH   4  22
TORSDOF 6
ENDMDL
MODEL 5
REMARK VINA RESULT:      -5.9     12.741     14.968
REMARK  6 active torsions:
REMARK  status: ('A' for Active; 'I' for Inactive)
REMARK    1  A    between atoms: C_1  and  O_10 
REMARK    2  A    between atoms: C_6  and  N_7 
REMARK    3  A    between atoms: C_11  and  O_10 
REMARK    4  A    between atoms: C_12  and  O_13 
REMARK    5  A    between atoms: C_14  and  O_15 
REMARK    6  A    between atoms: C_16  and  O_17 
ROOT
HETATM    1  C   UNK N   1      26.593  24.193  -7.446  0.00  0.00     0.298 C 
HETATM    2  C   UNK N   1      25.816  23.432  -8.547  0.00  0.00     0.205 C 
HETATM    3  C   UNK N   1      25.877  21.916  -8.331  0.00  0.00     0.183 C 
HETATM    4  C   UNK N   1      27.344  21.504  -8.175  0.00  0.00     0.178 C 
HETATM    5  C   UNK N   1      27.937  22.308  -7.007  0.00  0.00     0.152 C 
HETATM    6  C   UNK N   1      29.381  21.899  -6.771  0.00  0.00     0.042 C 
HETATM    7  O   UNK N   1      27.919  23.695  -7.302  0.00  0.00    -0.351 OA
ENDROOT
BRANCH   1   8
HETATM    8  O   UNK N   1      25.912  24.243  -6.237  0.00  0.00    -0.315 OA
BRANCH   8   9
HETATM    9  C   UNK N   1      25.818  25.381  -5.496  0.00  0.00     0.105 A 
HETATM   10  C   UNK N   1      25.090  26.479  -5.983  0.00  0.00     0.039 A 
HETATM   11  C   UNK N   1      24.980  27.652  -5.238  0.00  0.00     0.003 A 
HETATM   12  C   UNK N   1      25.592  27.745  -3.991  0.00  0.00     0.003 A 
HETATM   13  C   UNK N   1      26.313  26.663  -3.485  0.00  0.00     0.039 A 
HETATM   14  C   UNK N   1      26.440  25.472  -4.221  0.00  0.00     0.136 A 
BRANCH  14  15
HETATM   15  N   UNK N   1      27.159  24.379  -3.646  0.00  0.00    -0.113 N 
HETATM   16  O   UNK N   1      28.386  24.119  -4.048  0.00  0.00    -0.532 OA
HETATM   17  O   UNK N   1      26.684  23.725  -2.770  0.00  0.00    -0.532 OA
ENDBRANCH  14  15
ENDBRANCH   8   9
ENDBRANCH   1   8
BRANCH   2  18
HETATM   18  O   UNK N   1      24.489  23.866  -8.602  0.00  0.00    -0.388 OA
HETATM   19  H   UNK N   1      23.842  23.626  -7.920  0.00  0.00     0.210 HD
ENDBRANCH   2  18
BRANCH   3  20
HETATM   20  O   UNK N   1      25.307  21.255  -9.424  0.00  0.00    -0.390 OA
HETATM   21  H   UNK N   1      24.959  20.355  -9.318  0.00  0.00     0.210 HD
ENDBRANCH   3  20
BRANCH   4  22
HETATM   22  O   UNK N   1      27.427  20.131  -7.924  0.00  0.00    -0.390 OA
HETATM   23  H   UNK N   1      28.101  19.483  -7.671  0.00  0.00     0.210 HD
ENDBRANCH   4  22
TORSDOF 6
ENDMDL
MODEL 6
REMARK VINA RESULT:      -5.9      3.828      7.367
REMARK  6 active torsions:
REMARK  status: ('A' for Active; 'I' for Inactive)
REMARK    1  A    between atoms: C_1  and  O_10 
REMARK    2  A    between atoms: C_6  and  N_7 
REMARK    3  A    between atoms: C_11  and  O_10 
REMARK    4  A    between atoms: C_12  and  O_13 
REMARK    5  A    between atoms: C_14  and  O_15 
REMARK    6  A    between atoms: C_16  and  O_17 
ROOT
HETATM    1  C   UNK N   1      31.702  15.871   6.398  0.00  0.00     0.298 C 
HETATM    2  C   UNK N   1      32.154  16.173   4.949  0.00  0.00     0.205 C 
HETATM    3  C   UNK N   1      31.408  17.377   4.367  0.00  0.00     0.183 C 
HETATM    4  C   UNK N   1      29.903  17.147   4.538  0.00  0.00     0.178 C 
HETATM    5  C   UNK N   1      29.627  16.928   6.034  0.00  0.00     0.152 C 
HETATM    6  C   UNK N   1      28.137  16.748   6.271  0.00  0.00     0.042 C 
HETATM    7  O   UNK N   1      30.286  15.758   6.492  0.00  0.00    -0.351 OA
ENDROOT
BRANCH   1   8
HETATM    8  O   UNK N   1      32.224  16.764   7.327  0.00  0.00    -0.315 OA
BRANCH   8   9
HETATM    9  C   UNK N   1      32.995  16.363   8.374  0.00  0.00     0.105 A 
HETATM   10  C   UNK N   1      32.627  15.234   9.125  0.00  0.00     0.039 A 
HETATM   11  C   UNK N   1      33.406  14.806  10.200  0.00  0.00     0.003 A 
HETATM   12  C   UNK N   1      34.567  15.496  10.538  0.00  0.00     0.003 A 
HETATM   13  C   UNK N   1      34.954  16.614   9.798  0.00  0.00     0.039 A 
HETATM   14  C   UNK N   1      34.182  17.065   8.714  0.00  0.00     0.136 A 
BRANCH  14  15
HETATM   15  N   UNK N   1      34.638  18.195   7.966  0.00  0.00    -0.113 N 
HETATM   16  O   UNK N   1      34.524  18.201   6.654  0.00  0.00    -0.532 OA
HETATM   17  O   UNK N   1      35.077  19.158   8.516  0.00  0.00    -0.532 OA
ENDBRANCH  14  15
ENDBRANCH   8   9
ENDBRANCH   1   8
BRANCH   2  18
HETATM   18  O   UNK N   1      33.535  16.381   4.898  0.00  0.00    -0.388 OA
HETATM   19  H   UNK N   1      33.936  17.005   4.273  0.00  0.00     0.210 HD
ENDBRANCH   2  18
BRANCH   3  20
HETATM   20  O   UNK N   1      31.718  17.522   3.011  0.00  0.00    -0.390 OA
HETATM   21  H   UNK N   1      31.835  16.736   2.454  0.00  0.00     0.210 HD
ENDBRANCH   3  20
BRANCH   4  22
HETATM   22  O   UNK N   1      29.196  18.256   4.063  0.00  0.00    -0.390 OA
HETATM   23  H   UNK N   1      28.692  18.508   3.275  0.00  0.00     0.210 HD
ENDBRANCH   4  22
TORSDOF 6
ENDMDL
MODEL 7
REMARK VINA RESULT:      -5.9     11.470     14.006
REMARK  6 active torsions:
REMARK  status: ('A' for Active; 'I' for Inactive)
REMARK    1  A    between atoms: C_1  and  O_10 
REMARK    2  A    between atoms: C_6  and  N_7 
REMARK    3  A    between atoms: C_11  and  O_10 
REMARK    4  A    between atoms: C_12  and  O_13 
REMARK    5  A    between atoms: C_14  and  O_15 
REMARK    6  A    between atoms: C_16  and  O_17 
ROOT
HETATM    1  C   UNK N   1      28.345  26.120  -5.089  0.00  0.00     0.298 C 
HETATM    2  C   UNK N   1      28.811  27.376  -4.314  0.00  0.00     0.205 C 
HETATM    3  C   UNK N   1      27.714  27.900  -3.383  0.00  0.00     0.183 C 
HETATM    4  C   UNK N   1      26.430  28.085  -4.197  0.00  0.00     0.178 C 
HETATM    5  C   UNK N   1      26.084  26.733  -4.842  0.00  0.00     0.152 C 
HETATM    6  C   UNK N   1      24.783  26.844  -5.621  0.00  0.00     0.042 C 
HETATM    7  O   UNK N   1      27.103  26.341  -5.747  0.00  0.00    -0.351 OA
ENDROOT
BRANCH   1   8
HETATM    8  O   UNK N   1      28.331  24.973  -4.305  0.00  0.00    -0.315 OA
BRANCH   8   9
HETATM    9  C   UNK N   1      28.861  23.792  -4.726  0.00  0.00     0.105 A 
HETATM   10  C   UNK N   1      28.428  23.218  -5.933  0.00  0.00     0.039 A 
HETATM   11  C   UNK N   1      28.961  22.010  -6.382  0.00  0.00     0.003 A 
HETATM   12  C   UNK N   1      29.940  21.360  -5.635  0.00  0.00     0.003 A 
HETATM   13  C   UNK N   1      30.390  21.918  -4.439  0.00  0.00     0.039 A 
HETATM   14  C   UNK N   1      29.863  23.132  -3.965  0.00  0.00     0.136 A 
BRANCH  14  15
HETATM   15  N   UNK N   1      30.381  23.681  -2.751  0.00  0.00    -0.113 N 
HETATM   16  O   UNK N   1      30.277  23.001  -1.628  0.00  0.00    -0.532 OA
HETATM   17  O   UNK N   1      30.951  24.729  -2.746  0.00  0.00    -0.532 OA
ENDBRANCH  14  15
ENDBRANCH   8   9
ENDBRANCH   1   8
BRANCH   2  18
HETATM   18  O   UNK N   1      29.978  27.105  -3.593  0.00  0.00    -0.388 OA
HETATM   19  H   UNK N   1      30.824  26.934  -4.035  0.00  0.00     0.210 HD
ENDBRANCH   2  18
BRANCH   3  20
HETATM   20  O   UNK N   1      28.105  29.121  -2.823  0.00  0.00    -0.390 OA
HETATM   21  H   UNK N   1      28.257  29.890  -3.395  0.00  0.00     0.210 HD
ENDBRANCH   3  20
BRANCH   4  22
HETATM   22  O   UNK N   1      25.394  28.513  -3.360  0.00  0.00    -0.390 OA
HETATM   23  H   UNK N   1      24.492  28.244  -3.132  0.00  0.00     0.210 HD
ENDBRANCH   4  22
TORSDOF 6
ENDMDL
MODEL 8
REMARK VINA RESULT:      -5.8     11.127     13.222
REMARK  6 active torsions:
REMARK  status: ('A' for Active; 'I' for Inactive)
REMARK    1  A    between atoms: C_1  and  O_10 
REMARK    2  A    between atoms: C_6  and  N_7 
REMARK    3  A    between atoms: C_11  and  O_10 
REMARK    4  A    between atoms: C_12  and  O_13 
REMARK    5  A    between atoms: C_14  and  O_15 
REMARK    6  A    between atoms: C_16  and  O_17 
ROOT
HETATM    1  C   UNK N   1      28.566  24.977  -4.380  0.00  0.00     0.298 C 
HETATM    2  C   UNK N   1      27.771  24.116  -3.370  0.00  0.00     0.205 C 
HETATM    3  C   UNK N   1      28.636  23.713  -2.172  0.00  0.00     0.183 C 
HETATM    4  C   UNK N   1      29.924  23.069  -2.695  0.00  0.00     0.178 C 
HETATM    5  C   UNK N   1      30.610  24.080  -3.627  0.00  0.00     0.152 C 
HETATM    6  C   UNK N   1      31.926  23.514  -4.134  0.00  0.00     0.042 C 
HETATM    7  O   UNK N   1      29.790  24.353  -4.751  0.00  0.00    -0.351 OA
ENDROOT
BRANCH   1   8
HETATM    8  O   UNK N   1      28.748  26.286  -3.951  0.00  0.00    -0.315 OA
BRANCH   8   9
HETATM    9  C   UNK N   1      28.504  27.359  -4.752  0.00  0.00     0.105 A 
HETATM   10  C   UNK N   1      29.132  27.458  -6.005  0.00  0.00     0.039 A 
HETATM   11  C   UNK N   1      28.893  28.548  -6.841  0.00  0.00     0.003 A 
HETATM   12  C   UNK N   1      28.018  29.554  -6.440  0.00  0.00     0.003 A 
HETATM   13  C   UNK N   1      27.378  29.471  -5.204  0.00  0.00     0.039 A 
HETATM   14  C   UNK N   1      27.608  28.383  -4.343  0.00  0.00     0.136 A 
BRANCH  14  15
HETATM   15  N   UNK N   1      26.903  28.325  -3.102  0.00  0.00    -0.113 N 
HETATM   16  O   UNK N   1      27.339  29.014  -2.067  0.00  0.00    -0.532 OA
HETATM   17  O   UNK N   1      25.893  27.698  -2.998  0.00  0.00    -0.532 OA
ENDBRANCH  14  15
ENDBRANCH   8   9
ENDBRANCH   1   8
BRANCH   2  18
HETATM   18  O   UNK N   1      26.625  24.791  -2.942  0.00  0.00    -0.388 OA
HETATM   19  H   UNK N   1      26.428  25.697  -3.227  0.00  0.00     0.210 HD
ENDBRANCH   2  18
BRANCH   3  20
HETATM   20  O   UNK N   1      27.942  22.806  -1.365  0.00  0.00    -0.390 OA
HETATM   21  H   UNK N   1      28.327  22.512  -0.523  0.00  0.00     0.210 HD
ENDBRANCH   3  20
BRANCH   4  22
HETATM   22  O   UNK N   1      30.759  22.739  -1.623  0.00  0.00    -0.390 OA
HETATM   23  H   UNK N   1      31.261  21.972  -1.308  0.00  0.00     0.210 HD
ENDBRANCH   4  22
TORSDOF 6
ENDMDL
MODEL 9
REMARK VINA RESULT:      -5.8     10.974     13.676
REMARK  6 active torsions:
REMARK  status: ('A' for Active; 'I' for Inactive)
REMARK    1  A    between atoms: C_1  and  O_10 
REMARK    2  A    between atoms: C_6  and  N_7 
REMARK    3  A    between atoms: C_11  and  O_10 
REMARK    4  A    between atoms: C_12  and  O_13 
REMARK    5  A    between atoms: C_14  and  O_15 
REMARK    6  A    between atoms: C_16  and  O_17 
ROOT
HETATM    1  C   UNK N   1      28.828  23.448  -5.627  0.00  0.00     0.298 C 
HETATM    2  C   UNK N   1      27.683  24.414  -5.238  0.00  0.00     0.205 C 
HETATM    3  C   UNK N   1      26.308  23.784  -5.483  0.00  0.00     0.183 C 
HETATM    4  C   UNK N   1      26.257  23.271  -6.925  0.00  0.00     0.178 C 
HETATM    5  C   UNK N   1      27.420  22.284  -7.116  0.00  0.00     0.152 C 
HETATM    6  C   UNK N   1      27.386  21.700  -8.518  0.00  0.00     0.042 C 
HETATM    7  O   UNK N   1      28.663  22.946  -6.948  0.00  0.00    -0.351 OA
ENDROOT
BRANCH   1   8
HETATM    8  O   UNK N   1      29.022  22.434  -4.697  0.00  0.00    -0.315 OA
BRANCH   8   9
HETATM    9  C   UNK N   1      30.238  21.863  -4.480  0.00  0.00     0.105 A 
HETATM   10  C   UNK N   1      30.716  20.875  -5.356  0.00  0.00     0.039 A 
HETATM   11  C   UNK N   1      31.961  20.280  -5.152  0.00  0.00     0.003 A 
HETATM   12  C   UNK N   1      32.750  20.668  -4.072  0.00  0.00     0.003 A 
HETATM   13  C   UNK N   1      32.296  21.654  -3.195  0.00  0.00     0.039 A 
HETATM   14  C   UNK N   1      31.043  22.263  -3.379  0.00  0.00     0.136 A 
BRANCH  14  15
HETATM   15  N   UNK N   1      30.638  23.292  -2.475  0.00  0.00    -0.113 N 
HETATM   16  O   UNK N   1      30.635  24.549  -2.870  0.00  0.00    -0.532 OA
HETATM   17  O   UNK N   1      30.253  23.028  -1.377  0.00  0.00    -0.532 OA
ENDBRANCH  14  15
ENDBRANCH   8   9
ENDBRANCH   1   8
BRANCH   2  18
HETATM   18  O   UNK N   1      27.808  24.814  -3.904  0.00  0.00    -0.388 OA
HETATM   19  H   UNK N   1      28.551  25.358  -3.601  0.00  0.00     0.210 HD
ENDBRANCH   2  18
BRANCH   3  20
HETATM   20  O   UNK N   1      25.303  24.734  -5.277  0.00  0.00    -0.390 OA
HETATM   21  H   UNK N   1      25.309  25.281  -4.475  0.00  0.00     0.210 HD
ENDBRANCH   3  20
BRANCH   4  22
HETATM   22  O   UNK N   1      25.031  22.642  -7.162  0.00  0.00    -0.390 OA
HETATM   23  H   UNK N   1      24.659  21.991  -7.777  0.00  0.00     0.210 HD
ENDBRANCH   4  22
TORSDOF 6
ENDMDL
