MODEL 1
REMARK VINA RESULT:      -8.4      0.000      0.000
REMARK  5 active torsions:
REMARK  status: ('A' for Active; 'I' for Inactive)
REMARK    1  A    between atoms: C_11  and  C_1 
REMARK    2  A    between atoms: C_4  and  C_6 
REMARK    3  A    between atoms: O_13  and  C_11 
REMARK    4  A    between atoms: C_21  and  C_22 
REMARK    5  A    between atoms: N_28  and  C_27 
ROOT
HETATM    1  C   UNK N   1      36.214  13.366  12.676  0.00  0.00     0.043 A 
HETATM    2  C   UNK N   1      37.729  12.639   7.970  0.00  0.00     0.088 A 
HETATM    3  C   UNK N   1      37.259  12.621  12.113  0.00  0.00     0.044 A 
HETATM    4  C   UNK N   1      37.428  12.623  10.728  0.00  0.00    -0.005 A 
HETATM    5  C   UNK N   1      38.466  11.898  10.143  0.00  0.00     0.015 A 
HETATM    6  N   UNK N   1      35.383  14.073  11.866  0.00  0.00    -0.353 N 
ATOM      7  HN  UNK N   1      34.632  14.612  12.296  1.00  0.00     0.166 HD
HETATM    8  C   UNK N   1      38.620  11.907   8.755  0.00  0.00     0.018 A 
HETATM    9  N   UNK N   1      36.725  13.343   8.555  0.00  0.00    -0.363 N 
ATOM     10  HN  UNK N   1      36.083  13.875   7.965  1.00  0.00     0.165 HD
HETATM   11  C   UNK N   1      36.547  13.362   9.907  0.00  0.00     0.070 A 
HETATM   12  C   UNK N   1      35.502  14.102  10.512  0.00  0.00     0.071 A 
ENDROOT
BRANCH   1  13
HETATM   13  C   UNK N   1      35.968  13.389  14.130  0.00  0.00    -0.009 A 
HETATM   14  C   UNK N   1      36.784  14.189  14.941  0.00  0.00     0.015 A 
HETATM   15  C   UNK N   1      36.561  14.273  16.312  0.00  0.00     0.019 A 
HETATM   16  C   UNK N   1      35.508  13.565  16.897  0.00  0.00     0.037 A 
HETATM   17  C   UNK N   1      34.689  12.754  16.094  0.00  0.00     0.019 A 
HETATM   18  C   UNK N   1      34.921  12.661  14.715  0.00  0.00     0.015 A 
BRANCH  16  19
HETATM   19  C   UNK N   1      35.262  13.696  18.345  0.00  0.00     0.176 C 
HETATM   20  O   UNK N   1      35.178  14.799  18.861  0.00  0.00    -0.646 OA
BRANCH  19  21
HETATM   21  O   UNK N   1      35.140  12.593  19.112  0.00  0.00    -0.773 OA
HETATM   22  H   UNK N   1      35.087  11.746  18.715  0.00  0.00     0.167 HD
ENDBRANCH  19  21
ENDBRANCH  16  19
ENDBRANCH   1  13
BRANCH  12  23
HETATM   23  C   UNK N   1      34.526  14.927   9.750  0.00  0.00    -0.005 A 
HETATM   24  C   UNK N   1      33.165  14.576   9.757  0.00  0.00     0.014 A 
HETATM   25  C   UNK N   1      32.227  15.357   9.077  0.00  0.00     0.003 A 
HETATM   26  C   UNK N   1      32.638  16.503   8.392  0.00  0.00     0.036 A 
HETATM   27  C   UNK N   1      33.994  16.866   8.376  0.00  0.00     0.103 A 
HETATM   28  C   UNK N   1      34.923  16.071   9.051  0.00  0.00     0.050 A 
BRANCH  27  29
HETATM   29  N   UNK N   1      34.428  18.037   7.699  0.00  0.00    -0.116 N 
HETATM   30  O   UNK N   1      34.286  18.142   6.520  0.00  0.00    -0.532 OA
HETATM   31  O   UNK N   1      34.966  19.029   8.379  0.00  0.00    -0.532 OA
ENDBRANCH  27  29
ENDBRANCH  12  23
TORSDOF 5
ENDMDL
MODEL 2
REMARK VINA RESULT:      -8.2      6.966     10.723
REMARK  5 active torsions:
REMARK  status: ('A' for Active; 'I' for Inactive)
REMARK    1  A    between atoms: C_11  and  C_1 
REMARK    2  A    between atoms: C_4  and  C_6 
REMARK    3  A    between atoms: O_13  and  C_11 
REMARK    4  A    between atoms: C_21  and  C_22 
REMARK    5  A    between atoms: N_28  and  C_27 
ROOT
HETATM    1  C   UNK N   1      30.417  16.712   5.102  0.00  0.00     0.043 A 
HETATM    2  C   UNK N   1      27.240  14.715   1.802  0.00  0.00     0.088 A 
HETATM    3  C   UNK N   1      30.447  15.539   4.337  0.00  0.00     0.044 A 
HETATM    4  C   UNK N   1      29.381  15.256   3.482  0.00  0.00    -0.005 A 
HETATM    5  C   UNK N   1      29.390  14.099   2.701  0.00  0.00     0.015 A 
HETATM    6  N   UNK N   1      29.353  17.550   5.002  0.00  0.00    -0.353 N 
ATOM      7  HN  UNK N   1      29.352  18.401   5.565  1.00  0.00     0.166 HD
HETATM    8  C   UNK N   1      28.314  13.827   1.854  0.00  0.00     0.018 A 
HETATM    9  N   UNK N   1      27.246  15.840   2.566  0.00  0.00    -0.363 N 
ATOM     10  HN  UNK N   1      26.453  16.479   2.514  1.00  0.00     0.165 HD
HETATM   11  C   UNK N   1      28.282  16.139   3.401  0.00  0.00     0.070 A 
HETATM   12  C   UNK N   1      28.287  17.315   4.191  0.00  0.00     0.071 A 
ENDROOT
BRANCH   1  13
HETATM   13  C   UNK N   1      31.502  17.059   6.040  0.00  0.00    -0.009 A 
HETATM   14  C   UNK N   1      32.797  17.244   5.536  0.00  0.00     0.015 A 
HETATM   15  C   UNK N   1      33.841  17.613   6.379  0.00  0.00     0.019 A 
HETATM   16  C   UNK N   1      33.607  17.815   7.741  0.00  0.00     0.037 A 
HETATM   17  C   UNK N   1      32.314  17.624   8.257  0.00  0.00     0.019 A 
HETATM   18  C   UNK N   1      31.265  17.242   7.410  0.00  0.00     0.015 A 
BRANCH  16  19
HETATM   19  C   UNK N   1      34.717  18.243   8.613  0.00  0.00     0.176 C 
HETATM   20  O   UNK N   1      35.307  19.289   8.393  0.00  0.00    -0.646 OA
BRANCH  19  21
HETATM   21  O   UNK N   1      35.095  17.472   9.652  0.00  0.00    -0.773 OA
HETATM   22  H   UNK N   1      34.996  17.783  10.531  0.00  0.00     0.167 HD
ENDBRANCH  19  21
ENDBRANCH  16  19
ENDBRANCH   1  13
BRANCH  12  23
HETATM   23  C   UNK N   1      27.194  18.325   4.176  0.00  0.00    -0.005 A 
HETATM   24  C   UNK N   1      27.489  19.662   3.859  0.00  0.00     0.014 A 
HETATM   25  C   UNK N   1      26.473  20.620   3.804  0.00  0.00     0.003 A 
HETATM   26  C   UNK N   1      25.150  20.248   4.055  0.00  0.00     0.036 A 
HETATM   27  C   UNK N   1      24.840  18.917   4.374  0.00  0.00     0.103 A 
HETATM   28  C   UNK N   1      25.867  17.971   4.435  0.00  0.00     0.050 A 
BRANCH  27  29
HETATM   29  N   UNK N   1      23.499  18.517   4.615  0.00  0.00    -0.116 N 
HETATM   30  O   UNK N   1      23.251  17.708   5.456  0.00  0.00    -0.532 OA
HETATM   31  O   UNK N   1      22.516  19.060   3.927  0.00  0.00    -0.532 OA
ENDBRANCH  27  29
ENDBRANCH  12  23
TORSDOF 5
ENDMDL
MODEL 3
REMARK VINA RESULT:      -8.1     12.162     14.784
REMARK  5 active torsions:
REMARK  status: ('A' for Active; 'I' for Inactive)
REMARK    1  A    between atoms: C_11  and  C_1 
REMARK    2  A    between atoms: C_4  and  C_6 
REMARK    3  A    between atoms: O_13  and  C_11 
REMARK    4  A    between atoms: C_21  and  C_22 
REMARK    5  A    between atoms: N_28  and  C_27 
ROOT
HETATM    1  C   UNK N   1      22.059  17.198   5.931  0.00  0.00     0.043 A 
HETATM    2  C   UNK N   1      22.144  20.633   2.303  0.00  0.00     0.088 A 
HETATM    3  C   UNK N   1      21.053  17.812   5.174  0.00  0.00     0.044 A 
HETATM    4  C   UNK N   1      21.407  18.754   4.207  0.00  0.00    -0.005 A 
HETATM    5  C   UNK N   1      20.426  19.373   3.432  0.00  0.00     0.015 A 
HETATM    6  N   UNK N   1      23.358  17.532   5.716  0.00  0.00    -0.353 N 
ATOM      7  HN  UNK N   1      24.076  17.070   6.275  1.00  0.00     0.166 HD
HETATM    8  C   UNK N   1      20.795  20.317   2.473  0.00  0.00     0.018 A 
HETATM    9  N   UNK N   1      23.089  20.019   3.063  0.00  0.00    -0.363 N 
ATOM     10  HN  UNK N   1      24.071  20.261   2.925  1.00  0.00     0.165 HD
HETATM   11  C   UNK N   1      22.765  19.089   4.006  0.00  0.00     0.070 A 
HETATM   12  C   UNK N   1      23.753  18.448   4.793  0.00  0.00     0.071 A 
ENDROOT
BRANCH   1  13
HETATM   13  C   UNK N   1      21.750  16.210   6.983  0.00  0.00    -0.009 A 
HETATM   14  C   UNK N   1      22.539  15.054   7.076  0.00  0.00     0.015 A 
HETATM   15  C   UNK N   1      22.309  14.117   8.078  0.00  0.00     0.019 A 
HETATM   16  C   UNK N   1      21.294  14.323   9.015  0.00  0.00     0.037 A 
HETATM   17  C   UNK N   1      20.493  15.474   8.925  0.00  0.00     0.019 A 
HETATM   18  C   UNK N   1      20.717  16.413   7.909  0.00  0.00     0.015 A 
BRANCH  16  19
HETATM   19  C   UNK N   1      21.090  13.338  10.093  0.00  0.00     0.176 C 
HETATM   20  O   UNK N   1      19.962  13.043  10.456  0.00  0.00    -0.646 OA
BRANCH  19  21
HETATM   21  O   UNK N   1      22.153  12.766  10.695  0.00  0.00    -0.773 OA
HETATM   22  H   UNK N   1      22.950  13.247  10.801  0.00  0.00     0.167 HD
ENDBRANCH  19  21
ENDBRANCH  16  19
ENDBRANCH   1  13
BRANCH  12  23
HETATM   23  C   UNK N   1      25.212  18.709   4.658  0.00  0.00    -0.005 A 
HETATM   24  C   UNK N   1      25.746  19.922   5.125  0.00  0.00     0.014 A 
HETATM   25  C   UNK N   1      27.119  20.174   5.040  0.00  0.00     0.003 A 
HETATM   26  C   UNK N   1      27.972  19.210   4.498  0.00  0.00     0.036 A 
HETATM   27  C   UNK N   1      27.453  17.993   4.027  0.00  0.00     0.103 A 
HETATM   28  C   UNK N   1      26.079  17.759   4.109  0.00  0.00     0.050 A 
BRANCH  27  29
HETATM   29  N   UNK N   1      28.308  16.995   3.490  0.00  0.00    -0.116 N 
HETATM   30  O   UNK N   1      29.467  16.975   3.771  0.00  0.00    -0.532 OA
HETATM   31  O   UNK N   1      27.817  16.065   2.695  0.00  0.00    -0.532 OA
ENDBRANCH  27  29
ENDBRANCH  12  23
TORSDOF 5
ENDMDL
MODEL 4
REMARK VINA RESULT:      -7.9      8.456     13.052
REMARK  5 active torsions:
REMARK  status: ('A' for Active; 'I' for Inactive)
REMARK    1  A    between atoms: C_11  and  C_1 
REMARK    2  A    between atoms: C_4  and  C_6 
REMARK    3  A    between atoms: O_13  and  C_11 
REMARK    4  A    between atoms: C_21  and  C_22 
REMARK    5  A    between atoms: N_28  and  C_27 
ROOT
HETATM    1  C   UNK N   1      27.419  18.773   5.303  0.00  0.00     0.043 A 
HETATM    2  C   UNK N   1      30.648  17.290   8.816  0.00  0.00     0.088 A 
HETATM    3  C   UNK N   1      27.428  18.883   6.699  0.00  0.00     0.044 A 
HETATM    4  C   UNK N   1      28.502  18.357   7.417  0.00  0.00    -0.005 A 
HETATM    5  C   UNK N   1      28.541  18.461   8.808  0.00  0.00     0.015 A 
HETATM    6  N   UNK N   1      28.453  18.156   4.673  0.00  0.00    -0.353 N 
ATOM      7  HN  UNK N   1      28.430  18.090   3.655  1.00  0.00     0.166 HD
HETATM    8  C   UNK N   1      29.620  17.927   9.513  0.00  0.00     0.018 A 
HETATM    9  N   UNK N   1      30.599  17.199   7.461  0.00  0.00    -0.363 N 
ATOM     10  HN  UNK N   1      31.360  16.732   6.968  1.00  0.00     0.165 HD
HETATM   11  C   UNK N   1      29.562  17.714   6.740  0.00  0.00     0.070 A 
HETATM   12  C   UNK N   1      29.518  17.622   5.327  0.00  0.00     0.071 A 
ENDROOT
BRANCH   1  13
HETATM   13  C   UNK N   1      26.303  19.289   4.487  0.00  0.00    -0.009 A 
HETATM   14  C   UNK N   1      25.001  18.857   4.775  0.00  0.00     0.015 A 
HETATM   15  C   UNK N   1      23.915  19.349   4.058  0.00  0.00     0.019 A 
HETATM   16  C   UNK N   1      24.109  20.292   3.046  0.00  0.00     0.037 A 
HETATM   17  C   UNK N   1      25.412  20.725   2.744  0.00  0.00     0.019 A 
HETATM   18  C   UNK N   1      26.507  20.221   3.458  0.00  0.00     0.015 A 
BRANCH  16  19
HETATM   19  C   UNK N   1      22.943  20.832   2.322  0.00  0.00     0.176 C 
HETATM   20  O   UNK N   1      22.676  20.437   1.198  0.00  0.00    -0.646 OA
BRANCH  19  21
HETATM   21  O   UNK N   1      22.170  21.776   2.896  0.00  0.00    -0.773 OA
HETATM   22  H   UNK N   1      21.236  21.709   2.857  0.00  0.00     0.167 HD
ENDBRANCH  19  21
ENDBRANCH  16  19
ENDBRANCH   1  13
BRANCH  12  23
HETATM   23  C   UNK N   1      30.583  16.982   4.508  0.00  0.00    -0.005 A 
HETATM   24  C   UNK N   1      31.734  17.716   4.172  0.00  0.00     0.014 A 
HETATM   25  C   UNK N   1      32.762  17.124   3.433  0.00  0.00     0.003 A 
HETATM   26  C   UNK N   1      32.655  15.791   3.032  0.00  0.00     0.036 A 
HETATM   27  C   UNK N   1      31.511  15.046   3.360  0.00  0.00     0.103 A 
HETATM   28  C   UNK N   1      30.486  15.652   4.090  0.00  0.00     0.050 A 
BRANCH  27  29
HETATM   29  N   UNK N   1      31.393  13.683   2.976  0.00  0.00    -0.116 N 
HETATM   30  O   UNK N   1      32.159  12.869   3.391  0.00  0.00    -0.532 OA
HETATM   31  O   UNK N   1      30.415  13.307   2.176  0.00  0.00    -0.532 OA
ENDBRANCH  27  29
ENDBRANCH  12  23
TORSDOF 5
ENDMDL
MODEL 5
REMARK VINA RESULT:      -7.9     18.074     22.203
REMARK  5 active torsions:
REMARK  status: ('A' for Active; 'I' for Inactive)
REMARK    1  A    between atoms: C_11  and  C_1 
REMARK    2  A    between atoms: C_4  and  C_6 
REMARK    3  A    between atoms: O_13  and  C_11 
REMARK    4  A    between atoms: C_21  and  C_22 
REMARK    5  A    between atoms: N_28  and  C_27 
ROOT
HETATM    1  C   UNK N   1      26.906  25.065  -6.009  0.00  0.00     0.043 A 
HETATM    2  C   UNK N   1      26.601  20.895  -8.746  0.00  0.00     0.088 A 
HETATM    3  C   UNK N   1      26.035  24.651  -7.026  0.00  0.00     0.044 A 
HETATM    4  C   UNK N   1      26.212  23.394  -7.605  0.00  0.00    -0.005 A 
HETATM    5  C   UNK N   1      25.353  22.954  -8.612  0.00  0.00     0.015 A 
HETATM    6  N   UNK N   1      27.908  24.240  -5.609  0.00  0.00    -0.353 N 
ATOM      7  HN  UNK N   1      28.529  24.558  -4.865  1.00  0.00     0.166 HD
HETATM    8  C   UNK N   1      25.546  21.696  -9.186  0.00  0.00     0.018 A 
HETATM    9  N   UNK N   1      27.427  21.336  -7.762  0.00  0.00    -0.363 N 
ATOM     10  HN  UNK N   1      28.193  20.736  -7.452  1.00  0.00     0.165 HD
HETATM   11  C   UNK N   1      27.266  22.557  -7.176  0.00  0.00     0.070 A 
HETATM   12  C   UNK N   1      28.127  23.011  -6.147  0.00  0.00     0.071 A 
ENDROOT
BRANCH   1  13
HETATM   13  C   UNK N   1      26.786  26.389  -5.371  0.00  0.00    -0.009 A 
HETATM   14  C   UNK N   1      26.315  26.463  -4.052  0.00  0.00     0.015 A 
HETATM   15  C   UNK N   1      26.225  27.688  -3.397  0.00  0.00     0.019 A 
HETATM   16  C   UNK N   1      26.617  28.861  -4.045  0.00  0.00     0.037 A 
HETATM   17  C   UNK N   1      27.083  28.799  -5.369  0.00  0.00     0.019 A 
HETATM   18  C   UNK N   1      27.163  27.567  -6.032  0.00  0.00     0.015 A 
BRANCH  16  19
HETATM   19  C   UNK N   1      26.552  30.145  -3.322  0.00  0.00     0.176 C 
HETATM   20  O   UNK N   1      27.330  30.382  -2.412  0.00  0.00    -0.646 OA
BRANCH  19  21
HETATM   21  O   UNK N   1      25.622  31.062  -3.656  0.00  0.00    -0.773 OA
HETATM   22  H   UNK N   1      25.875  31.943  -3.852  0.00  0.00     0.167 HD
ENDBRANCH  19  21
ENDBRANCH  16  19
ENDBRANCH   1  13
BRANCH  12  23
HETATM   23  C   UNK N   1      29.258  22.210  -5.604  0.00  0.00    -0.005 A 
HETATM   24  C   UNK N   1      29.827  21.193  -6.389  0.00  0.00     0.014 A 
HETATM   25  C   UNK N   1      30.913  20.452  -5.913  0.00  0.00     0.003 A 
HETATM   26  C   UNK N   1      31.446  20.728  -4.652  0.00  0.00     0.036 A 
HETATM   27  C   UNK N   1      30.888  21.741  -3.857  0.00  0.00     0.103 A 
HETATM   28  C   UNK N   1      29.797  22.467  -4.340  0.00  0.00     0.050 A 
BRANCH  27  29
HETATM   29  N   UNK N   1      31.428  22.047  -2.579  0.00  0.00    -0.116 N 
HETATM   30  O   UNK N   1      30.858  22.793  -1.844  0.00  0.00    -0.532 OA
HETATM   31  O   UNK N   1      32.554  21.486  -2.188  0.00  0.00    -0.532 OA
ENDBRANCH  27  29
ENDBRANCH  12  23
TORSDOF 5
ENDMDL
MODEL 6
REMARK VINA RESULT:      -7.9     10.788     15.466
REMARK  5 active torsions:
REMARK  status: ('A' for Active; 'I' for Inactive)
REMARK    1  A    between atoms: C_11  and  C_1 
REMARK    2  A    between atoms: C_4  and  C_6 
REMARK    3  A    between atoms: O_13  and  C_11 
REMARK    4  A    between atoms: C_21  and  C_22 
REMARK    5  A    between atoms: N_28  and  C_27 
ROOT
HETATM    1  C   UNK N   1      24.762  18.679   4.502  0.00  0.00     0.043 A 
HETATM    2  C   UNK N   1      20.146  20.007   3.123  0.00  0.00     0.088 A 
HETATM    3  C   UNK N   1      24.272  19.547   3.518  0.00  0.00     0.044 A 
HETATM    4  C   UNK N   1      22.893  19.712   3.380  0.00  0.00    -0.005 A 
HETATM    5  C   UNK N   1      22.379  20.579   2.415  0.00  0.00     0.015 A 
HETATM    6  N   UNK N   1      23.889  18.010   5.300  0.00  0.00    -0.353 N 
ATOM      7  HN  UNK N   1      24.266  17.386   6.013  1.00  0.00     0.166 HD
HETATM    8  C   UNK N   1      20.997  20.729   2.286  0.00  0.00     0.018 A 
HETATM    9  N   UNK N   1      20.662  19.169   4.061  0.00  0.00    -0.363 N 
ATOM     10  HN  UNK N   1      20.024  18.650   4.666  1.00  0.00     0.165 HD
HETATM   11  C   UNK N   1      22.006  19.001   4.218  0.00  0.00     0.070 A 
HETATM   12  C   UNK N   1      22.539  18.130   5.200  0.00  0.00     0.071 A 
ENDROOT
BRANCH   1  13
HETATM   13  C   UNK N   1      26.207  18.444   4.685  0.00  0.00    -0.009 A 
HETATM   14  C   UNK N   1      26.639  17.169   5.077  0.00  0.00     0.015 A 
HETATM   15  C   UNK N   1      27.995  16.892   5.222  0.00  0.00     0.019 A 
HETATM   16  C   UNK N   1      28.946  17.882   4.964  0.00  0.00     0.037 A 
HETATM   17  C   UNK N   1      28.523  19.165   4.578  0.00  0.00     0.019 A 
HETATM   18  C   UNK N   1      27.157  19.447   4.444  0.00  0.00     0.015 A 
BRANCH  16  19
HETATM   19  C   UNK N   1      30.380  17.560   5.084  0.00  0.00     0.176 C 
HETATM   20  O   UNK N   1      30.796  16.944   6.053  0.00  0.00    -0.646 OA
BRANCH  19  21
HETATM   21  O   UNK N   1      31.244  17.956   4.127  0.00  0.00    -0.773 OA
HETATM   22  H   UNK N   1      32.055  18.362   4.362  0.00  0.00     0.167 HD
ENDBRANCH  19  21
ENDBRANCH  16  19
ENDBRANCH   1  13
BRANCH  12  23
HETATM   23  C   UNK N   1      21.703  17.344   6.148  0.00  0.00    -0.005 A 
HETATM   24  C   UNK N   1      21.731  15.940   6.097  0.00  0.00     0.014 A 
HETATM   25  C   UNK N   1      20.981  15.181   7.000  0.00  0.00     0.003 A 
HETATM   26  C   UNK N   1      20.204  15.819   7.970  0.00  0.00     0.036 A 
HETATM   27  C   UNK N   1      20.165  17.221   8.032  0.00  0.00     0.103 A 
HETATM   28  C   UNK N   1      20.912  17.967   7.117  0.00  0.00     0.050 A 
BRANCH  27  29
HETATM   29  N   UNK N   1      19.395  17.886   9.022  0.00  0.00    -0.116 N 
HETATM   30  O   UNK N   1      19.794  18.892   9.525  0.00  0.00    -0.532 OA
HETATM   31  O   UNK N   1      18.218  17.409   9.373  0.00  0.00    -0.532 OA
ENDBRANCH  27  29
ENDBRANCH  12  23
TORSDOF 5
ENDMDL
MODEL 7
REMARK VINA RESULT:      -7.9     12.670     14.968
REMARK  5 active torsions:
REMARK  status: ('A' for Active; 'I' for Inactive)
REMARK    1  A    between atoms: C_11  and  C_1 
REMARK    2  A    between atoms: C_4  and  C_6 
REMARK    3  A    between atoms: O_13  and  C_11 
REMARK    4  A    between atoms: C_21  and  C_22 
REMARK    5  A    between atoms: N_28  and  C_27 
ROOT
HETATM    1  C   UNK N   1      21.808  17.009   5.939  0.00  0.00     0.043 A 
HETATM    2  C   UNK N   1      21.652  20.274   2.159  0.00  0.00     0.088 A 
HETATM    3  C   UNK N   1      20.777  17.446   5.097  0.00  0.00     0.044 A 
HETATM    4  C   UNK N   1      21.060  18.388   4.108  0.00  0.00    -0.005 A 
HETATM    5  C   UNK N   1      20.054  18.833   3.248  0.00  0.00     0.015 A 
HETATM    6  N   UNK N   1      23.060  17.512   5.783  0.00  0.00    -0.353 N 
ATOM      7  HN  UNK N   1      23.797  17.178   6.404  1.00  0.00     0.166 HD
HETATM    8  C   UNK N   1      20.351  19.780   2.267  0.00  0.00     0.018 A 
HETATM    9  N   UNK N   1      22.622  19.828   3.001  0.00  0.00    -0.363 N 
ATOM     10  HN  UNK N   1      23.568  20.199   2.907  1.00  0.00     0.165 HD
HETATM   11  C   UNK N   1      22.369  18.901   3.968  0.00  0.00     0.070 A 
HETATM   12  C   UNK N   1      23.384  18.436   4.840  0.00  0.00     0.071 A 
ENDROOT
BRANCH   1  13
HETATM   13  C   UNK N   1      21.571  16.031   7.018  0.00  0.00    -0.009 A 
HETATM   14  C   UNK N   1      22.455  14.952   7.157  0.00  0.00     0.015 A 
HETATM   15  C   UNK N   1      22.293  14.029   8.186  0.00  0.00     0.019 A 
HETATM   16  C   UNK N   1      21.251  14.175   9.104  0.00  0.00     0.037 A 
HETATM   17  C   UNK N   1      20.355  15.249   8.969  0.00  0.00     0.019 A 
HETATM   18  C   UNK N   1      20.510  16.172   7.926  0.00  0.00     0.015 A 
BRANCH  16  19
HETATM   19  C   UNK N   1      21.118  13.210  10.211  0.00  0.00     0.176 C 
HETATM   20  O   UNK N   1      20.016  12.917  10.648  0.00  0.00    -0.646 OA
BRANCH  19  21
HETATM   21  O   UNK N   1      22.218  12.654  10.758  0.00  0.00    -0.773 OA
HETATM   22  H   UNK N   1      22.465  11.778  10.534  0.00  0.00     0.167 HD
ENDBRANCH  19  21
ENDBRANCH  16  19
ENDBRANCH   1  13
BRANCH  12  23
HETATM   23  C   UNK N   1      24.799  18.892   4.776  0.00  0.00    -0.005 A 
HETATM   24  C   UNK N   1      25.668  18.326   3.828  0.00  0.00     0.014 A 
HETATM   25  C   UNK N   1      26.992  18.763   3.727  0.00  0.00     0.003 A 
HETATM   26  C   UNK N   1      27.456  19.779   4.566  0.00  0.00     0.036 A 
HETATM   27  C   UNK N   1      26.600  20.353   5.519  0.00  0.00     0.103 A 
HETATM   28  C   UNK N   1      25.283  19.899   5.616  0.00  0.00     0.050 A 
BRANCH  27  29
HETATM   29  N   UNK N   1      27.051  21.398   6.369  0.00  0.00    -0.116 N 
HETATM   30  O   UNK N   1      28.155  21.835   6.257  0.00  0.00    -0.532 OA
HETATM   31  O   UNK N   1      26.238  21.910   7.271  0.00  0.00    -0.532 OA
ENDBRANCH  27  29
ENDBRANCH  12  23
TORSDOF 5
ENDMDL
MODEL 8
REMARK VINA RESULT:      -7.8      4.228      7.602
REMARK  5 active torsions:
REMARK  status: ('A' for Active; 'I' for Inactive)
REMARK    1  A    between atoms: C_11  and  C_1 
REMARK    2  A    between atoms: C_4  and  C_6 
REMARK    3  A    between atoms: O_13  and  C_11 
REMARK    4  A    between atoms: C_21  and  C_22 
REMARK    5  A    between atoms: N_28  and  C_27 
ROOT
HETATM    1  C   UNK N   1      34.943  13.641  11.872  0.00  0.00     0.043 A 
HETATM    2  C   UNK N   1      35.552  10.496  15.708  0.00  0.00     0.088 A 
HETATM    3  C   UNK N   1      35.389  13.815  13.189  0.00  0.00     0.044 A 
HETATM    4  C   UNK N   1      35.452  12.711  14.039  0.00  0.00    -0.005 A 
HETATM    5  C   UNK N   1      35.902  12.855  15.352  0.00  0.00     0.015 A 
HETATM    6  N   UNK N   1      34.576  12.403  11.448  0.00  0.00    -0.353 N 
ATOM      7  HN  UNK N   1      34.258  12.297  10.485  1.00  0.00     0.166 HD
HETATM    8  C   UNK N   1      35.955  11.741  16.192  0.00  0.00     0.018 A 
HETATM    9  N   UNK N   1      35.120  10.370  14.425  0.00  0.00    -0.363 N 
ATOM     10  HN  UNK N   1      34.831   9.451  14.088  1.00  0.00     0.165 HD
HETATM   11  C   UNK N   1      35.059  11.435  13.576  0.00  0.00     0.070 A 
HETATM   12  C   UNK N   1      34.612  11.298  12.239  0.00  0.00     0.071 A 
ENDROOT
BRANCH   1  13
HETATM   13  C   UNK N   1      34.833  14.770  10.930  0.00  0.00    -0.009 A 
HETATM   14  C   UNK N   1      35.381  16.008  11.293  0.00  0.00     0.015 A 
HETATM   15  C   UNK N   1      35.336  17.090  10.418  0.00  0.00     0.019 A 
HETATM   16  C   UNK N   1      34.753  16.949   9.157  0.00  0.00     0.037 A 
HETATM   17  C   UNK N   1      34.194  15.714   8.787  0.00  0.00     0.019 A 
HETATM   18  C   UNK N   1      34.229  14.629   9.672  0.00  0.00     0.015 A 
BRANCH  16  19
HETATM   19  C   UNK N   1      34.749  18.094   8.227  0.00  0.00     0.176 C 
HETATM   20  O   UNK N   1      34.262  17.985   7.114  0.00  0.00    -0.646 OA
BRANCH  19  21
HETATM   21  O   UNK N   1      35.298  19.268   8.600  0.00  0.00    -0.773 OA
HETATM   22  H   UNK N   1      36.225  19.340   8.716  0.00  0.00     0.167 HD
ENDBRANCH  19  21
ENDBRANCH  16  19
ENDBRANCH   1  13
BRANCH  12  23
HETATM   23  C   UNK N   1      34.190  10.004  11.638  0.00  0.00    -0.005 A 
HETATM   24  C   UNK N   1      34.943   8.844  11.888  0.00  0.00     0.014 A 
HETATM   25  C   UNK N   1      34.545   7.612  11.362  0.00  0.00     0.003 A 
HETATM   26  C   UNK N   1      33.384   7.525  10.591  0.00  0.00     0.036 A 
HETATM   27  C   UNK N   1      32.622   8.675  10.332  0.00  0.00     0.103 A 
HETATM   28  C   UNK N   1      33.036   9.902  10.855  0.00  0.00     0.050 A 
BRANCH  27  29
HETATM   29  N   UNK N   1      31.429   8.602   9.564  0.00  0.00    -0.116 N 
HETATM   30  O   UNK N   1      30.572   7.824   9.850  0.00  0.00    -0.532 OA
HETATM   31  O   UNK N   1      31.251   9.417   8.544  0.00  0.00    -0.532 OA
ENDBRANCH  27  29
ENDBRANCH  12  23
TORSDOF 5
ENDMDL
MODEL 9
REMARK VINA RESULT:      -7.8     11.772     13.637
REMARK  5 active torsions:
REMARK  status: ('A' for Active; 'I' for Inactive)
REMARK    1  A    between atoms: C_11  and  C_1 
REMARK    2  A    between atoms: C_4  and  C_6 
REMARK    3  A    between atoms: O_13  and  C_11 
REMARK    4  A    between atoms: C_21  and  C_22 
REMARK    5  A    between atoms: N_28  and  C_27 
ROOT
HETATM    1  C   UNK N   1      24.150  14.386   6.772  0.00  0.00     0.043 A 
HETATM    2  C   UNK N   1      26.225  16.041   2.538  0.00  0.00     0.088 A 
HETATM    3  C   UNK N   1      25.432  14.258   6.224  0.00  0.00     0.044 A 
HETATM    4  C   UNK N   1      25.710  14.855   4.993  0.00  0.00    -0.005 A 
HETATM    5  C   UNK N   1      26.982  14.752   4.429  0.00  0.00     0.015 A 
HETATM    6  N   UNK N   1      23.199  15.083   6.096  0.00  0.00    -0.353 N 
ATOM      7  HN  UNK N   1      22.272  15.167   6.514  1.00  0.00     0.166 HD
HETATM    8  C   UNK N   1      27.243  15.350   3.196  0.00  0.00     0.018 A 
HETATM    9  N   UNK N   1      24.992  16.136   3.101  0.00  0.00    -0.363 N 
ATOM     10  HN  UNK N   1      24.260  16.648   2.607  1.00  0.00     0.165 HD
HETATM   11  C   UNK N   1      24.703  15.569   4.307  0.00  0.00     0.070 A 
HETATM   12  C   UNK N   1      23.417  15.675   4.892  0.00  0.00     0.071 A 
ENDROOT
BRANCH   1  13
HETATM   13  C   UNK N   1      23.785  13.762   8.058  0.00  0.00    -0.009 A 
HETATM   14  C   UNK N   1      24.788  13.139   8.814  0.00  0.00     0.015 A 
HETATM   15  C   UNK N   1      24.497  12.575  10.052  0.00  0.00     0.019 A 
HETATM   16  C   UNK N   1      23.198  12.633  10.563  0.00  0.00     0.037 A 
HETATM   17  C   UNK N   1      22.185  13.248   9.809  0.00  0.00     0.019 A 
HETATM   18  C   UNK N   1      22.475  13.806   8.558  0.00  0.00     0.015 A 
BRANCH  16  19
HETATM   19  C   UNK N   1      22.916  12.063  11.894  0.00  0.00     0.176 C 
HETATM   20  O   UNK N   1      23.800  11.985  12.733  0.00  0.00    -0.646 OA
BRANCH  19  21
HETATM   21  O   UNK N   1      21.679  11.614  12.188  0.00  0.00    -0.773 OA
HETATM   22  H   UNK N   1      21.518  10.694  12.269  0.00  0.00     0.167 HD
ENDBRANCH  19  21
ENDBRANCH  16  19
ENDBRANCH   1  13
BRANCH  12  23
HETATM   23  C   UNK N   1      22.285  16.414   4.270  0.00  0.00    -0.005 A 
HETATM   24  C   UNK N   1      21.160  15.706   3.816  0.00  0.00     0.014 A 
HETATM   25  C   UNK N   1      20.071  16.383   3.260  0.00  0.00     0.003 A 
HETATM   26  C   UNK N   1      20.092  17.776   3.164  0.00  0.00     0.036 A 
HETATM   27  C   UNK N   1      21.209  18.497   3.612  0.00  0.00     0.103 A 
HETATM   28  C   UNK N   1      22.295  17.807   4.156  0.00  0.00     0.050 A 
BRANCH  27  29
HETATM   29  N   UNK N   1      21.241  19.915   3.538  0.00  0.00    -0.116 N 
HETATM   30  O   UNK N   1      20.304  20.561   3.896  0.00  0.00    -0.532 OA
HETATM   31  O   UNK N   1      22.320  20.529   3.096  0.00  0.00    -0.532 OA
ENDBRANCH  27  29
ENDBRANCH  12  23
TORSDOF 5
ENDMDL
