MODEL 1
REMARK VINA RESULT:      -7.8      0.000      0.000
REMARK  2 active torsions:
REMARK  status: ('A' for Active; 'I' for Inactive)
REMARK    1  A    between atoms: N_2  and  C_1 
REMARK    2  A    between atoms: C_14  and  C_15 
ROOT
HETATM    1  C   UNK N   1      36.361  14.148  12.600  0.00  0.00     0.116 A 
HETATM    2  C   UNK N   1      35.520  13.053  12.328  0.00  0.00     0.082 A 
HETATM    3  N   UNK N   1      36.818  14.890  11.550  0.00  0.00    -0.338 N 
ATOM      4  HN  UNK N   1      37.429  15.686  11.732  1.00  0.00     0.168 HD
HETATM    5  C   UNK N   1      36.478  14.589  10.259  0.00  0.00     0.183 A 
HETATM    6  N   UNK N   1      35.655  13.536   9.990  0.00  0.00    -0.337 N 
ATOM      7  HN  UNK N   1      35.391  13.311   9.031  1.00  0.00     0.168 HD
HETATM    8  C   UNK N   1      35.197  12.798  11.026  0.00  0.00     0.139 A 
HETATM    9  N   UNK N   1      34.396  11.726  10.955  0.00  0.00    -0.280 N 
HETATM   10  C   UNK N   1      33.848  11.135   9.745  0.00  0.00     0.179 C 
HETATM   11  N   UNK N   1      34.189  11.257  12.174  0.00  0.00    -0.295 N 
ATOM     12  HN  UNK N   1      33.619  10.446  12.414  1.00  0.00     0.187 HD
HETATM   13  C   UNK N   1      34.867  12.043  13.055  0.00  0.00     0.076 A 
ENDROOT
BRANCH  13  14
HETATM   14  C   UNK N   1      34.912  11.742  14.505  0.00  0.00    -0.006 A 
HETATM   15  C   UNK N   1      34.854  12.769  15.446  0.00  0.00     0.026 A 
HETATM   16  C   UNK N   1      35.009  12.513  16.801  0.00  0.00    -0.025 A 
HETATM   17  C   UNK N   1      35.232  11.194  17.244  0.00  0.00    -0.026 A 
HETATM   18  C   UNK N   1      34.971  13.566  17.716  0.00  0.00     0.012 A 
HETATM   19  C   UNK N   1      35.272  10.149  16.315  0.00  0.00     0.013 A 
HETATM   20  C   UNK N   1      35.422  10.946  18.607  0.00  0.00     0.012 A 
HETATM   21  C   UNK N   1      35.117  10.423  14.949  0.00  0.00     0.014 A 
HETATM   22  C   UNK N   1      35.391  12.006  19.521  0.00  0.00     0.001 A 
HETATM   23  C   UNK N   1      35.163  13.314  19.076  0.00  0.00     0.001 A 
ENDBRANCH  13  14
BRANCH   1  24
HETATM   24  N   UNK N   1      36.736  14.510  13.906  0.00  0.00    -0.385 N 
HETATM   25  H   UNK N   1      37.305  15.298  14.059  0.00  0.00     0.157 HD
HETATM   26  H   UNK N   1      36.428  13.973  14.672  0.00  0.00     0.157 HD
ENDBRANCH   1  24
TORSDOF 2
ENDMDL
MODEL 2
REMARK VINA RESULT:      -7.6     11.170     14.432
REMARK  2 active torsions:
REMARK  status: ('A' for Active; 'I' for Inactive)
REMARK    1  A    between atoms: N_2  and  C_1 
REMARK    2  A    between atoms: C_14  and  C_15 
ROOT
HETATM    1  C   UNK N   1      28.453  18.497   8.020  0.00  0.00     0.116 A 
HETATM    2  C   UNK N   1      28.866  17.999   6.771  0.00  0.00     0.082 A 
HETATM    3  N   UNK N   1      29.137  18.100   9.133  0.00  0.00    -0.338 N 
ATOM      4  HN  UNK N   1      28.850  18.453  10.046  1.00  0.00     0.168 HD
HETATM    5  C   UNK N   1      30.198  17.239   9.052  0.00  0.00     0.183 A 
HETATM    6  N   UNK N   1      30.608  16.761   7.843  0.00  0.00    -0.337 N 
ATOM      7  HN  UNK N   1      31.402  16.126   7.775  1.00  0.00     0.168 HD
HETATM    8  C   UNK N   1      29.936  17.152   6.737  0.00  0.00     0.139 A 
HETATM    9  N   UNK N   1      30.185  16.779   5.475  0.00  0.00    -0.280 N 
HETATM   10  C   UNK N   1      31.234  15.876   5.030  0.00  0.00     0.179 C 
HETATM   11  N   UNK N   1      29.299  17.346   4.672  0.00  0.00    -0.295 N 
ATOM     12  HN  UNK N   1      29.252  17.234   3.659  1.00  0.00     0.187 HD
HETATM   13  C   UNK N   1      28.461  18.106   5.429  0.00  0.00     0.076 A 
ENDROOT
BRANCH  13  14
HETATM   14  C   UNK N   1      27.299  18.816   4.845  0.00  0.00    -0.006 A 
HETATM   15  C   UNK N   1      26.009  18.310   4.995  0.00  0.00     0.026 A 
HETATM   16  C   UNK N   1      24.926  18.901   4.359  0.00  0.00    -0.025 A 
HETATM   17  C   UNK N   1      25.124  20.033   3.543  0.00  0.00    -0.026 A 
HETATM   18  C   UNK N   1      23.650  18.355   4.509  0.00  0.00     0.012 A 
HETATM   19  C   UNK N   1      26.409  20.566   3.399  0.00  0.00     0.013 A 
HETATM   20  C   UNK N   1      24.035  20.604   2.878  0.00  0.00     0.012 A 
HETATM   21  C   UNK N   1      27.494  19.956   4.045  0.00  0.00     0.014 A 
HETATM   22  C   UNK N   1      22.758  20.048   3.025  0.00  0.00     0.001 A 
HETATM   23  C   UNK N   1      22.565  18.928   3.841  0.00  0.00     0.001 A 
ENDBRANCH  13  14
BRANCH   1  24
HETATM   24  N   UNK N   1      27.377  19.391   8.163  0.00  0.00    -0.385 N 
HETATM   25  H   UNK N   1      26.652  19.197   8.800  0.00  0.00     0.157 HD
HETATM   26  H   UNK N   1      27.349  20.215   7.625  0.00  0.00     0.157 HD
ENDBRANCH   1  24
TORSDOF 2
ENDMDL
MODEL 3
REMARK VINA RESULT:      -7.6     14.447     16.716
REMARK  2 active torsions:
REMARK  status: ('A' for Active; 'I' for Inactive)
REMARK    1  A    between atoms: N_2  and  C_1 
REMARK    2  A    between atoms: C_14  and  C_15 
ROOT
HETATM    1  C   UNK N   1      19.701  16.814   4.252  0.00  0.00     0.116 A 
HETATM    2  C   UNK N   1      20.985  17.217   4.664  0.00  0.00     0.082 A 
HETATM    3  N   UNK N   1      19.188  17.359   3.111  0.00  0.00    -0.338 N 
ATOM      4  HN  UNK N   1      18.258  17.076   2.799  1.00  0.00     0.168 HD
HETATM    5  C   UNK N   1      19.890  18.275   2.375  0.00  0.00     0.183 A 
HETATM    6  N   UNK N   1      21.138  18.661   2.765  0.00  0.00    -0.337 N 
ATOM      7  HN  UNK N   1      21.670  19.337   2.218  1.00  0.00     0.168 HD
HETATM    8  C   UNK N   1      21.654  18.124   3.893  0.00  0.00     0.139 A 
HETATM    9  N   UNK N   1      22.850  18.391   4.434  0.00  0.00    -0.280 N 
HETATM   10  C   UNK N   1      23.848  19.313   3.917  0.00  0.00     0.179 C 
HETATM   11  N   UNK N   1      22.987  17.693   5.550  0.00  0.00    -0.295 N 
ATOM     12  HN  UNK N   1      23.800  17.705   6.167  1.00  0.00     0.187 HD
HETATM   13  C   UNK N   1      21.858  16.956   5.735  0.00  0.00     0.076 A 
ENDROOT
BRANCH  13  14
HETATM   14  C   UNK N   1      21.652  16.120   6.940  0.00  0.00    -0.006 A 
HETATM   15  C   UNK N   1      22.393  14.955   7.132  0.00  0.00     0.026 A 
HETATM   16  C   UNK N   1      22.132  14.104   8.197  0.00  0.00    -0.025 A 
HETATM   17  C   UNK N   1      21.100  14.413   9.105  0.00  0.00    -0.026 A 
HETATM   18  C   UNK N   1      22.876  12.932   8.348  0.00  0.00     0.012 A 
HETATM   19  C   UNK N   1      20.361  15.589   8.939  0.00  0.00     0.013 A 
HETATM   20  C   UNK N   1      20.819  13.535  10.157  0.00  0.00     0.012 A 
HETATM   21  C   UNK N   1      20.634  16.437   7.857  0.00  0.00     0.014 A 
HETATM   22  C   UNK N   1      21.562  12.356  10.300  0.00  0.00     0.001 A 
HETATM   23  C   UNK N   1      22.590  12.057   9.399  0.00  0.00     0.001 A 
ENDBRANCH  13  14
BRANCH   1  24
HETATM   24  N   UNK N   1      18.938  15.870   4.961  0.00  0.00    -0.385 N 
HETATM   25  H   UNK N   1      18.349  16.158   5.695  0.00  0.00     0.157 HD
HETATM   26  H   UNK N   1      18.992  14.916   4.723  0.00  0.00     0.157 HD
ENDBRANCH   1  24
TORSDOF 2
ENDMDL
MODEL 4
REMARK VINA RESULT:      -7.3      1.579      1.740
REMARK  2 active torsions:
REMARK  status: ('A' for Active; 'I' for Inactive)
REMARK    1  A    between atoms: N_2  and  C_1 
REMARK    2  A    between atoms: C_14  and  C_15 
ROOT
HETATM    1  C   UNK N   1      37.707  12.307  12.378  0.00  0.00     0.116 A 
HETATM    2  C   UNK N   1      36.423  12.882  12.392  0.00  0.00     0.082 A 
HETATM    3  N   UNK N   1      38.472  12.459  11.258  0.00  0.00    -0.338 N 
ATOM      4  HN  UNK N   1      39.405  12.048  11.234  1.00  0.00     0.168 HD
HETATM    5  C   UNK N   1      38.016  13.148  10.168  0.00  0.00     0.183 A 
HETATM    6  N   UNK N   1      36.776  13.715  10.179  0.00  0.00    -0.337 N 
ATOM      7  HN  UNK N   1      36.432  14.237   9.373  1.00  0.00     0.168 HD
HETATM    8  C   UNK N   1      36.014  13.570  11.287  0.00  0.00     0.139 A 
HETATM    9  N   UNK N   1      34.774  14.043  11.474  0.00  0.00    -0.280 N 
HETATM   10  C   UNK N   1      33.990  14.816  10.525  0.00  0.00     0.179 C 
HETATM   11  N   UNK N   1      34.346  13.675  12.670  0.00  0.00    -0.295 N 
ATOM     12  HN  UNK N   1      33.435  13.896  13.073  1.00  0.00     0.187 HD
HETATM   13  C   UNK N   1      35.329  12.952  13.273  0.00  0.00     0.076 A 
ENDROOT
BRANCH  13  14
HETATM   14  C   UNK N   1      35.141  12.319  14.598  0.00  0.00    -0.006 A 
HETATM   15  C   UNK N   1      35.229  13.074  15.766  0.00  0.00     0.026 A 
HETATM   16  C   UNK N   1      35.168  12.476  17.017  0.00  0.00    -0.025 A 
HETATM   17  C   UNK N   1      35.016  11.079  17.119  0.00  0.00    -0.026 A 
HETATM   18  C   UNK N   1      35.284  13.258  18.168  0.00  0.00     0.012 A 
HETATM   19  C   UNK N   1      34.906  10.308  15.957  0.00  0.00     0.013 A 
HETATM   20  C   UNK N   1      34.990  10.477  18.381  0.00  0.00     0.012 A 
HETATM   21  C   UNK N   1      34.972  10.926  14.701  0.00  0.00     0.014 A 
HETATM   22  C   UNK N   1      35.114  11.264  19.533  0.00  0.00     0.001 A 
HETATM   23  C   UNK N   1      35.258  12.653  19.426  0.00  0.00     0.001 A 
ENDBRANCH  13  14
BRANCH   1  24
HETATM   24  N   UNK N   1      38.232  11.597  13.472  0.00  0.00    -0.385 N 
HETATM   25  H   UNK N   1      37.629  11.164  14.119  0.00  0.00     0.157 HD
HETATM   26  H   UNK N   1      39.207  11.531  13.592  0.00  0.00     0.157 HD
ENDBRANCH   1  24
TORSDOF 2
ENDMDL
MODEL 5
REMARK VINA RESULT:      -7.2      1.026      2.565
REMARK  2 active torsions:
REMARK  status: ('A' for Active; 'I' for Inactive)
REMARK    1  A    between atoms: N_2  and  C_1 
REMARK    2  A    between atoms: C_14  and  C_15 
ROOT
HETATM    1  C   UNK N   1      34.411  11.201  11.958  0.00  0.00     0.116 A 
HETATM    2  C   UNK N   1      35.014  12.393  12.401  0.00  0.00     0.082 A 
HETATM    3  N   UNK N   1      33.993  11.131  10.661  0.00  0.00    -0.338 N 
ATOM      4  HN  UNK N   1      33.554  10.274  10.325  1.00  0.00     0.168 HD
HETATM    5  C   UNK N   1      34.149  12.184   9.801  0.00  0.00     0.183 A 
HETATM    6  N   UNK N   1      34.742  13.337  10.222  0.00  0.00    -0.337 N 
ATOM      7  HN  UNK N   1      34.868  14.123   9.585  1.00  0.00     0.168 HD
HETATM    8  C   UNK N   1      35.160  13.412  11.506  0.00  0.00     0.139 A 
HETATM    9  N   UNK N   1      35.748  14.461  12.097  0.00  0.00    -0.280 N 
HETATM   10  C   UNK N   1      36.063  15.739  11.479  0.00  0.00     0.179 C 
HETATM   11  N   UNK N   1      35.985  14.168  13.365  0.00  0.00    -0.295 N 
ATOM     12  HN  UNK N   1      36.422  14.785  14.050  1.00  0.00     0.187 HD
HETATM   13  C   UNK N   1      35.545  12.901  13.600  0.00  0.00     0.076 A 
ENDROOT
BRANCH  13  14
HETATM   14  C   UNK N   1      35.588  12.291  14.949  0.00  0.00    -0.006 A 
HETATM   15  C   UNK N   1      35.208  13.023  16.073  0.00  0.00     0.026 A 
HETATM   16  C   UNK N   1      35.350  12.504  17.351  0.00  0.00    -0.025 A 
HETATM   17  C   UNK N   1      35.889  11.214  17.529  0.00  0.00    -0.026 A 
HETATM   18  C   UNK N   1      34.983  13.272  18.458  0.00  0.00     0.012 A 
HETATM   19  C   UNK N   1      36.256  10.458  16.411  0.00  0.00     0.013 A 
HETATM   20  C   UNK N   1      36.062  10.709  18.821  0.00  0.00     0.012 A 
HETATM   21  C   UNK N   1      36.110  10.997  15.125  0.00  0.00     0.014 A 
HETATM   22  C   UNK N   1      35.700  11.486  19.929  0.00  0.00     0.001 A 
HETATM   23  C   UNK N   1      35.158  12.764  19.747  0.00  0.00     0.001 A 
ENDBRANCH  13  14
BRANCH   1  24
HETATM   24  N   UNK N   1      34.234  10.084  12.794  0.00  0.00    -0.385 N 
HETATM   25  H   UNK N   1      34.524  10.117  13.734  0.00  0.00     0.157 HD
HETATM   26  H   UNK N   1      33.817   9.267  12.438  0.00  0.00     0.157 HD
ENDBRANCH   1  24
TORSDOF 2
ENDMDL
MODEL 6
REMARK VINA RESULT:      -7.2      1.259      3.205
REMARK  2 active torsions:
REMARK  status: ('A' for Active; 'I' for Inactive)
REMARK    1  A    between atoms: N_2  and  C_1 
REMARK    2  A    between atoms: C_14  and  C_15 
ROOT
HETATM    1  C   UNK N   1      34.371  11.038  12.978  0.00  0.00     0.116 A 
HETATM    2  C   UNK N   1      34.975  12.292  13.188  0.00  0.00     0.082 A 
HETATM    3  N   UNK N   1      33.936  10.732  11.722  0.00  0.00    -0.338 N 
ATOM      4  HN  UNK N   1      33.497   9.827  11.554  1.00  0.00     0.168 HD
HETATM    5  C   UNK N   1      34.075  11.611  10.682  0.00  0.00     0.183 A 
HETATM    6  N   UNK N   1      34.668  12.822  10.877  0.00  0.00    -0.337 N 
ATOM      7  HN  UNK N   1      34.781  13.479  10.106  1.00  0.00     0.168 HD
HETATM    8  C   UNK N   1      35.103  13.132  12.120  0.00  0.00     0.139 A 
HETATM    9  N   UNK N   1      35.694  14.272  12.501  0.00  0.00    -0.280 N 
HETATM   10  C   UNK N   1      35.995  15.416  11.656  0.00  0.00     0.179 C 
HETATM   11  N   UNK N   1      35.950  14.215  13.798  0.00  0.00    -0.295 N 
ATOM     12  HN  UNK N   1      36.394  14.947  14.352  1.00  0.00     0.187 HD
HETATM   13  C   UNK N   1      35.520  13.012  14.266  0.00  0.00     0.076 A 
ENDROOT
BRANCH  13  14
HETATM   14  C   UNK N   1      35.583  12.658  15.703  0.00  0.00    -0.006 A 
HETATM   15  C   UNK N   1      36.100  11.429  16.110  0.00  0.00     0.026 A 
HETATM   16  C   UNK N   1      36.062  11.038  17.441  0.00  0.00    -0.025 A 
HETATM   17  C   UNK N   1      35.490  11.890  18.407  0.00  0.00    -0.026 A 
HETATM   18  C   UNK N   1      36.565   9.790  17.813  0.00  0.00     0.012 A 
HETATM   19  C   UNK N   1      34.986  13.135  18.018  0.00  0.00     0.013 A 
HETATM   20  C   UNK N   1      35.423  11.476  19.741  0.00  0.00     0.012 A 
HETATM   21  C   UNK N   1      35.029  13.516  16.670  0.00  0.00     0.014 A 
HETATM   22  C   UNK N   1      35.922  10.221  20.108  0.00  0.00     0.001 A 
HETATM   23  C   UNK N   1      36.495   9.380  19.146  0.00  0.00     0.001 A 
ENDBRANCH  13  14
BRANCH   1  24
HETATM   24  N   UNK N   1      34.211  10.092  14.006  0.00  0.00    -0.385 N 
HETATM   25  H   UNK N   1      33.859  10.367  14.883  0.00  0.00     0.157 HD
HETATM   26  H   UNK N   1      34.450   9.151  13.848  0.00  0.00     0.157 HD
ENDBRANCH   1  24
TORSDOF 2
ENDMDL
MODEL 7
REMARK VINA RESULT:      -7.2      9.735     12.206
REMARK  2 active torsions:
REMARK  status: ('A' for Active; 'I' for Inactive)
REMARK    1  A    between atoms: N_2  and  C_1 
REMARK    2  A    between atoms: C_14  and  C_15 
ROOT
HETATM    1  C   UNK N   1      27.272  18.974   4.469  0.00  0.00     0.116 A 
HETATM    2  C   UNK N   1      27.072  17.906   5.362  0.00  0.00     0.082 A 
HETATM    3  N   UNK N   1      26.284  19.262   3.572  0.00  0.00    -0.338 N 
ATOM      4  HN  UNK N   1      26.415  20.034   2.918  1.00  0.00     0.168 HD
HETATM    5  C   UNK N   1      25.123  18.539   3.530  0.00  0.00     0.183 A 
HETATM    6  N   UNK N   1      24.920  17.509   4.400  0.00  0.00    -0.337 N 
ATOM      7  HN  UNK N   1      24.054  16.971   4.379  1.00  0.00     0.168 HD
HETATM    8  C   UNK N   1      25.894  17.220   5.292  0.00  0.00     0.139 A 
HETATM    9  N   UNK N   1      25.877  16.243   6.209  0.00  0.00    -0.280 N 
HETATM   10  C   UNK N   1      24.804  15.290   6.439  0.00  0.00     0.179 C 
HETATM   11  N   UNK N   1      27.019  16.256   6.877  0.00  0.00    -0.295 N 
ATOM     12  HN  UNK N   1      27.277  15.619   7.631  1.00  0.00     0.187 HD
HETATM   13  C   UNK N   1      27.790  17.264   6.386  0.00  0.00     0.076 A 
ENDROOT
BRANCH  13  14
HETATM   14  C   UNK N   1      29.172  17.501   6.863  0.00  0.00    -0.006 A 
HETATM   15  C   UNK N   1      30.265  17.209   6.049  0.00  0.00     0.026 A 
HETATM   16  C   UNK N   1      31.565  17.319   6.522  0.00  0.00    -0.025 A 
HETATM   17  C   UNK N   1      31.795  17.730   7.850  0.00  0.00    -0.026 A 
HETATM   18  C   UNK N   1      32.638  16.994   5.689  0.00  0.00     0.012 A 
HETATM   19  C   UNK N   1      30.711  18.047   8.674  0.00  0.00     0.013 A 
HETATM   20  C   UNK N   1      33.106  17.806   8.333  0.00  0.00     0.012 A 
HETATM   21  C   UNK N   1      29.403  17.929   8.183  0.00  0.00     0.014 A 
HETATM   22  C   UNK N   1      34.178  17.473   7.496  0.00  0.00     0.001 A 
HETATM   23  C   UNK N   1      33.945  17.071   6.176  0.00  0.00     0.001 A 
ENDBRANCH  13  14
BRANCH   1  24
HETATM   24  N   UNK N   1      28.440  19.758   4.472  0.00  0.00    -0.385 N 
HETATM   25  H   UNK N   1      28.577  20.440   5.169  0.00  0.00     0.157 HD
HETATM   26  H   UNK N   1      29.122  19.624   3.776  0.00  0.00     0.157 HD
ENDBRANCH   1  24
TORSDOF 2
ENDMDL
MODEL 8
REMARK VINA RESULT:      -7.1     25.395     27.041
REMARK  2 active torsions:
REMARK  status: ('A' for Active; 'I' for Inactive)
REMARK    1  A    between atoms: N_2  and  C_1 
REMARK    2  A    between atoms: C_14  and  C_15 
ROOT
HETATM    1  C   UNK N   1      26.666  23.449  -7.015  0.00  0.00     0.116 A 
HETATM    2  C   UNK N   1      26.263  24.388  -7.982  0.00  0.00     0.082 A 
HETATM    3  N   UNK N   1      26.749  22.138  -7.383  0.00  0.00    -0.338 N 
ATOM      4  HN  UNK N   1      27.040  21.445  -6.692  1.00  0.00     0.168 HD
HETATM    5  C   UNK N   1      26.452  21.730  -8.655  0.00  0.00     0.183 A 
HETATM    6  N   UNK N   1      26.071  22.637  -9.598  0.00  0.00    -0.337 N 
ATOM      7  HN  UNK N   1      25.855  22.342 -10.550  1.00  0.00     0.168 HD
HETATM    8  C   UNK N   1      25.988  23.939  -9.241  0.00  0.00     0.139 A 
HETATM    9  N   UNK N   1      25.621  24.962 -10.024  0.00  0.00    -0.280 N 
HETATM   10  C   UNK N   1      25.238  24.888 -11.424  0.00  0.00     0.179 C 
HETATM   11  N   UNK N   1      25.634  26.078  -9.313  0.00  0.00    -0.295 N 
ATOM     12  HN  UNK N   1      25.395  27.009  -9.656  1.00  0.00     0.187 HD
HETATM   13  C   UNK N   1      26.021  25.772  -8.044  0.00  0.00     0.076 A 
ENDROOT
BRANCH  13  14
HETATM   14  C   UNK N   1      26.061  26.788  -6.967  0.00  0.00    -0.006 A 
HETATM   15  C   UNK N   1      27.081  27.737  -6.924  0.00  0.00     0.026 A 
HETATM   16  C   UNK N   1      27.196  28.622  -5.860  0.00  0.00    -0.025 A 
HETATM   17  C   UNK N   1      26.272  28.566  -4.798  0.00  0.00    -0.026 A 
HETATM   18  C   UNK N   1      28.244  29.544  -5.834  0.00  0.00     0.012 A 
HETATM   19  C   UNK N   1      25.231  27.632  -4.836  0.00  0.00     0.013 A 
HETATM   20  C   UNK N   1      26.412  29.436  -3.713  0.00  0.00     0.012 A 
HETATM   21  C   UNK N   1      25.128  26.744  -5.915  0.00  0.00     0.014 A 
HETATM   22  C   UNK N   1      27.469  30.355  -3.687  0.00  0.00     0.001 A 
HETATM   23  C   UNK N   1      28.381  30.411  -4.748  0.00  0.00     0.001 A 
ENDBRANCH  13  14
BRANCH   1  24
HETATM   24  N   UNK N   1      26.993  23.811  -5.696  0.00  0.00    -0.385 N 
HETATM   25  H   UNK N   1      27.384  24.694  -5.506  0.00  0.00     0.157 HD
HETATM   26  H   UNK N   1      26.830  23.179  -4.959  0.00  0.00     0.157 HD
ENDBRANCH   1  24
TORSDOF 2
ENDMDL
MODEL 9
REMARK VINA RESULT:      -7.0      2.405      7.438
REMARK  2 active torsions:
REMARK  status: ('A' for Active; 'I' for Inactive)
REMARK    1  A    between atoms: N_2  and  C_1 
REMARK    2  A    between atoms: C_14  and  C_15 
ROOT
HETATM    1  C   UNK N   1      34.782  12.071  12.928  0.00  0.00     0.116 A 
HETATM    2  C   UNK N   1      35.500  13.247  13.215  0.00  0.00     0.082 A 
HETATM    3  N   UNK N   1      34.622  11.151  13.923  0.00  0.00    -0.338 N 
ATOM      4  HN  UNK N   1      34.105  10.294  13.730  1.00  0.00     0.168 HD
HETATM    5  C   UNK N   1      35.141  11.352  15.174  0.00  0.00     0.183 A 
HETATM    6  N   UNK N   1      35.828  12.494  15.460  0.00  0.00    -0.337 N 
ATOM      7  HN  UNK N   1      36.211  12.653  16.392  1.00  0.00     0.168 HD
HETATM    8  C   UNK N   1      35.988  13.410  14.479  0.00  0.00     0.139 A 
HETATM    9  N   UNK N   1      36.641  14.577  14.571  0.00  0.00    -0.280 N 
HETATM   10  C   UNK N   1      37.310  15.104  15.749  0.00  0.00     0.179 C 
HETATM   11  N   UNK N   1      36.608  15.186  13.397  0.00  0.00    -0.295 N 
ATOM     12  HN  UNK N   1      37.027  16.090  13.180  1.00  0.00     0.187 HD
HETATM   13  C   UNK N   1      35.916  14.400  12.527  0.00  0.00     0.076 A 
ENDROOT
BRANCH  13  14
HETATM   14  C   UNK N   1      35.763  14.754  11.097  0.00  0.00    -0.006 A 
HETATM   15  C   UNK N   1      35.015  15.867  10.716  0.00  0.00     0.026 A 
HETATM   16  C   UNK N   1      34.769  16.146   9.380  0.00  0.00    -0.025 A 
HETATM   17  C   UNK N   1      35.278  15.294   8.380  0.00  0.00    -0.026 A 
HETATM   18  C   UNK N   1      33.994  17.254   9.032  0.00  0.00     0.012 A 
HETATM   19  C   UNK N   1      36.049  14.184   8.744  0.00  0.00     0.013 A 
HETATM   20  C   UNK N   1      34.999  15.560   7.036  0.00  0.00     0.012 A 
HETATM   21  C   UNK N   1      36.287  13.913  10.098  0.00  0.00     0.014 A 
HETATM   22  C   UNK N   1      34.215  16.668   6.692  0.00  0.00     0.001 A 
HETATM   23  C   UNK N   1      33.717  17.516   7.689  0.00  0.00     0.001 A 
ENDBRANCH  13  14
BRANCH   1  24
HETATM   24  N   UNK N   1      34.219  11.815  11.665  0.00  0.00    -0.385 N 
HETATM   25  H   UNK N   1      34.572  11.089  11.102  0.00  0.00     0.157 HD
HETATM   26  H   UNK N   1      33.468  12.364  11.342  0.00  0.00     0.157 HD
ENDBRANCH   1  24
TORSDOF 2
ENDMDL
