MODEL 1
REMARK VINA RESULT:      -7.8      0.000      0.000
REMARK  5 active torsions:
REMARK  status: ('A' for Active; 'I' for Inactive)
REMARK    1  A    between atoms: S_1  and  N_2 
REMARK    2  A    between atoms: S_1  and  C_5 
REMARK    3  A    between atoms: C_8  and  N_9 
REMARK       I    between atoms: N_9  and  C_10 
REMARK       I    between atoms: C_10  and  N_12 
REMARK    4  A    between atoms: N_12  and  S_13 
REMARK    5  A    between atoms: S_13  and  C_16 
ROOT
HETATM    1  N   UNK N   1      35.872  13.263  11.561  0.00  0.00    -0.308 N 
HETATM    2  C   UNK N   1      37.033  12.599  11.809  0.00  0.00     0.334 C 
HETATM    3  O   UNK N   1      38.078  12.947  11.283  0.00  0.00    -0.246 OA
HETATM    4  N   UNK N   1      37.053  11.578  12.699  0.00  0.00    -0.232 N 
HETATM    5  H   UNK N   1      35.057  12.913  11.986  0.00  0.00     0.170 HD
HETATM    6  H   UNK N   1      37.906  11.111  12.847  0.00  0.00     0.183 HD
ENDROOT
BRANCH   1   7
HETATM    7  C   UNK N   1      35.729  14.414  10.742  0.00  0.00     0.036 A 
HETATM    8  C   UNK N   1      35.689  15.714  11.273  0.00  0.00     0.031 A 
HETATM    9  C   UNK N   1      35.332  16.791  10.458  0.00  0.00     0.027 A 
HETATM   10  C   UNK N   1      35.012  16.570   9.116  0.00  0.00     0.079 A 
HETATM   11  C   UNK N   1      35.102  15.287   8.575  0.00  0.00     0.027 A 
HETATM   12  C   UNK N   1      35.470  14.216   9.384  0.00  0.00     0.031 A 
BRANCH  10  13
HETATM   13  S   UNK N   1      34.285  17.871   8.140  0.00  0.00     0.256 S 
HETATM   14  O   UNK N   1      34.980  19.210   8.436  0.00  0.00    -0.201 OA
HETATM   15  O   UNK N   1      34.535  17.722   6.632  0.00  0.00    -0.201 OA
BRANCH  13  16
HETATM   16  N   UNK N   1      32.565  18.215   8.314  0.00  0.00    -0.324 N 
HETATM   17  H   UNK N   1      31.812  18.760   7.895  0.00  0.00     0.169 HD
HETATM   18  H   UNK N   1      32.197  17.688   9.106  0.00  0.00     0.169 HD
ENDBRANCH  13  16
ENDBRANCH  10  13
ENDBRANCH   1   7
BRANCH   4  19
HETATM   19  S   UNK N   1      35.643  11.037  13.611  0.00  0.00     0.266 S 
HETATM   20  O   UNK N   1      34.398  11.337  12.763  0.00  0.00    -0.200 OA
HETATM   21  O   UNK N   1      35.711   9.506  13.506  0.00  0.00    -0.200 OA
BRANCH  19  22
HETATM   22  C   UNK N   1      35.473  11.560  15.317  0.00  0.00     0.080 A 
HETATM   23  C   UNK N   1      35.101  12.876  15.608  0.00  0.00     0.026 A 
HETATM   24  C   UNK N   1      34.992  13.298  16.937  0.00  0.00     0.008 A 
HETATM   25  C   UNK N   1      35.257  12.404  17.978  0.00  0.00    -0.062 A 
HETATM   26  C   UNK N   1      35.145  12.856  19.390  0.00  0.00     0.048 C 
HETATM   27  C   UNK N   1      35.628  11.085  17.690  0.00  0.00     0.008 A 
HETATM   28  C   UNK N   1      35.738  10.663  16.360  0.00  0.00     0.026 A 
ENDBRANCH  19  22
ENDBRANCH   4  19
TORSDOF 5
ENDMDL
MODEL 2
REMARK VINA RESULT:      -7.7      8.890     13.412
REMARK  5 active torsions:
REMARK  status: ('A' for Active; 'I' for Inactive)
REMARK    1  A    between atoms: S_1  and  N_2 
REMARK    2  A    between atoms: S_1  and  C_5 
REMARK    3  A    between atoms: C_8  and  N_9 
REMARK       I    between atoms: N_9  and  C_10 
REMARK       I    between atoms: C_10  and  N_12 
REMARK    4  A    between atoms: N_12  and  S_13 
REMARK    5  A    between atoms: S_13  and  C_16 
ROOT
HETATM    1  N   UNK N   1      28.518  17.839   6.196  0.00  0.00    -0.308 N 
HETATM    2  C   UNK N   1      27.425  17.032   6.252  0.00  0.00     0.334 C 
HETATM    3  O   UNK N   1      27.461  15.969   6.851  0.00  0.00    -0.246 OA
HETATM    4  N   UNK N   1      26.257  17.432   5.692  0.00  0.00    -0.232 N 
HETATM    5  H   UNK N   1      28.438  18.666   5.668  0.00  0.00     0.170 HD
HETATM    6  H   UNK N   1      25.489  16.820   5.739  0.00  0.00     0.183 HD
ENDROOT
BRANCH   1   7
HETATM    7  C   UNK N   1      29.765  17.596   6.829  0.00  0.00     0.036 A 
HETATM    8  C   UNK N   1      30.029  17.999   8.149  0.00  0.00     0.031 A 
HETATM    9  C   UNK N   1      31.330  17.934   8.653  0.00  0.00     0.027 A 
HETATM   10  C   UNK N   1      32.368  17.472   7.840  0.00  0.00     0.079 A 
HETATM   11  C   UNK N   1      32.098  17.023   6.547  0.00  0.00     0.027 A 
HETATM   12  C   UNK N   1      30.799  17.076   6.049  0.00  0.00     0.031 A 
BRANCH  10  13
HETATM   13  S   UNK N   1      34.063  17.648   8.359  0.00  0.00     0.256 S 
HETATM   14  O   UNK N   1      34.992  16.867   7.416  0.00  0.00    -0.201 OA
HETATM   15  O   UNK N   1      34.606  19.077   8.212  0.00  0.00    -0.201 OA
BRANCH  13  16
HETATM   16  N   UNK N   1      34.523  17.119   9.975  0.00  0.00    -0.324 N 
HETATM   17  H   UNK N   1      34.427  16.332  10.617  0.00  0.00     0.169 HD
HETATM   18  H   UNK N   1      35.075  17.850  10.423  0.00  0.00     0.169 HD
ENDBRANCH  13  16
ENDBRANCH  10  13
ENDBRANCH   1   7
BRANCH   4  19
HETATM   19  S   UNK N   1      26.032  18.986   4.887  0.00  0.00     0.266 S 
HETATM   20  O   UNK N   1      26.489  20.084   5.859  0.00  0.00    -0.200 OA
HETATM   21  O   UNK N   1      27.162  19.021   3.849  0.00  0.00    -0.200 OA
BRANCH  19  22
HETATM   22  C   UNK N   1      24.446  19.335   4.128  0.00  0.00     0.080 A 
HETATM   23  C   UNK N   1      24.324  20.399   3.228  0.00  0.00     0.026 A 
HETATM   24  C   UNK N   1      23.085  20.692   2.652  0.00  0.00     0.008 A 
HETATM   25  C   UNK N   1      21.963  19.925   2.976  0.00  0.00    -0.062 A 
HETATM   26  C   UNK N   1      20.645  20.242   2.366  0.00  0.00     0.048 C 
HETATM   27  C   UNK N   1      22.082  18.859   3.876  0.00  0.00     0.008 A 
HETATM   28  C   UNK N   1      23.323  18.565   4.453  0.00  0.00     0.026 A 
ENDBRANCH  19  22
ENDBRANCH   4  19
TORSDOF 5
ENDMDL
MODEL 3
REMARK VINA RESULT:      -7.6      1.234      1.742
REMARK  5 active torsions:
REMARK  status: ('A' for Active; 'I' for Inactive)
REMARK    1  A    between atoms: S_1  and  N_2 
REMARK    2  A    between atoms: S_1  and  C_5 
REMARK    3  A    between atoms: C_8  and  N_9 
REMARK       I    between atoms: N_9  and  C_10 
REMARK       I    between atoms: C_10  and  N_12 
REMARK    4  A    between atoms: N_12  and  S_13 
REMARK    5  A    between atoms: S_13  and  C_16 
ROOT
HETATM    1  N   UNK N   1      35.506  13.675  12.306  0.00  0.00    -0.308 N 
HETATM    2  C   UNK N   1      36.536  12.815  12.534  0.00  0.00     0.334 C 
HETATM    3  O   UNK N   1      37.508  12.794  11.797  0.00  0.00    -0.246 OA
HETATM    4  N   UNK N   1      36.520  12.013  13.626  0.00  0.00    -0.232 N 
HETATM    5  H   UNK N   1      34.734  13.619  12.914  0.00  0.00     0.170 HD
HETATM    6  H   UNK N   1      37.274  11.395  13.755  0.00  0.00     0.183 HD
ENDROOT
BRANCH   1   7
HETATM    7  C   UNK N   1      35.443  14.643  11.270  0.00  0.00     0.036 A 
HETATM    8  C   UNK N   1      35.780  15.990  11.479  0.00  0.00     0.031 A 
HETATM    9  C   UNK N   1      35.498  16.943  10.497  0.00  0.00     0.027 A 
HETATM   10  C   UNK N   1      34.876  16.551   9.308  0.00  0.00     0.079 A 
HETATM   11  C   UNK N   1      34.588  15.205   9.078  0.00  0.00     0.027 A 
HETATM   12  C   UNK N   1      34.881  14.255  10.052  0.00  0.00     0.031 A 
BRANCH  10  13
HETATM   13  S   UNK N   1      34.253  17.776   8.175  0.00  0.00     0.256 S 
HETATM   14  O   UNK N   1      34.957  19.122   8.406  0.00  0.00    -0.201 OA
HETATM   15  O   UNK N   1      34.607  17.492   6.707  0.00  0.00    -0.201 OA
BRANCH  13  16
HETATM   16  N   UNK N   1      32.534  18.164   8.192  0.00  0.00    -0.324 N 
HETATM   17  H   UNK N   1      31.672  18.000   7.672  0.00  0.00     0.169 HD
HETATM   18  H   UNK N   1      32.333  18.757   8.996  0.00  0.00     0.169 HD
ENDBRANCH  13  16
ENDBRANCH  10  13
ENDBRANCH   1   7
BRANCH   4  19
HETATM   19  S   UNK N   1      35.231  12.013  14.831  0.00  0.00     0.266 S 
HETATM   20  O   UNK N   1      34.591  13.409  14.828  0.00  0.00    -0.200 OA
HETATM   21  O   UNK N   1      34.123  11.178  14.172  0.00  0.00    -0.200 OA
BRANCH  19  22
HETATM   22  C   UNK N   1      35.599  11.411  16.479  0.00  0.00     0.080 A 
HETATM   23  C   UNK N   1      36.295  10.209  16.643  0.00  0.00     0.026 A 
HETATM   24  C   UNK N   1      36.562   9.722  17.925  0.00  0.00     0.008 A 
HETATM   25  C   UNK N   1      36.133  10.434  19.048  0.00  0.00    -0.062 A 
HETATM   26  C   UNK N   1      36.415   9.911  20.411  0.00  0.00     0.048 C 
HETATM   27  C   UNK N   1      35.437  11.638  18.888  0.00  0.00     0.008 A 
HETATM   28  C   UNK N   1      35.169  12.127  17.604  0.00  0.00     0.026 A 
ENDBRANCH  19  22
ENDBRANCH   4  19
TORSDOF 5
ENDMDL
MODEL 4
REMARK VINA RESULT:      -7.4      6.280     11.032
REMARK  5 active torsions:
REMARK  status: ('A' for Active; 'I' for Inactive)
REMARK    1  A    between atoms: S_1  and  N_2 
REMARK    2  A    between atoms: S_1  and  C_5 
REMARK    3  A    between atoms: C_8  and  N_9 
REMARK       I    between atoms: N_9  and  C_10 
REMARK       I    between atoms: C_10  and  N_12 
REMARK    4  A    between atoms: N_12  and  S_13 
REMARK    5  A    between atoms: S_13  and  C_16 
ROOT
HETATM    1  N   UNK N   1      31.342  16.691   5.348  0.00  0.00    -0.308 N 
HETATM    2  C   UNK N   1      31.465  16.797   3.998  0.00  0.00     0.334 C 
HETATM    3  O   UNK N   1      32.563  16.769   3.465  0.00  0.00    -0.246 OA
HETATM    4  N   UNK N   1      30.358  16.871   3.219  0.00  0.00    -0.232 N 
HETATM    5  H   UNK N   1      30.433  16.756   5.721  0.00  0.00     0.170 HD
HETATM    6  H   UNK N   1      30.482  16.960   2.247  0.00  0.00     0.183 HD
ENDROOT
BRANCH   1   7
HETATM    7  C   UNK N   1      32.404  16.496   6.269  0.00  0.00     0.036 A 
HETATM    8  C   UNK N   1      32.721  15.232   6.793  0.00  0.00     0.031 A 
HETATM    9  C   UNK N   1      33.626  15.121   7.852  0.00  0.00     0.027 A 
HETATM   10  C   UNK N   1      34.210  16.271   8.390  0.00  0.00     0.079 A 
HETATM   11  C   UNK N   1      33.935  17.521   7.835  0.00  0.00     0.027 A 
HETATM   12  C   UNK N   1      33.043  17.631   6.772  0.00  0.00     0.031 A 
BRANCH  10  13
HETATM   13  S   UNK N   1      35.135  16.182   9.909  0.00  0.00     0.256 S 
HETATM   14  O   UNK N   1      36.446  15.411   9.689  0.00  0.00    -0.201 OA
HETATM   15  O   UNK N   1      35.657  17.543  10.392  0.00  0.00    -0.201 OA
BRANCH  13  16
HETATM   16  N   UNK N   1      34.401  15.417  11.317  0.00  0.00    -0.324 N 
HETATM   17  H   UNK N   1      33.714  14.709  11.575  0.00  0.00     0.169 HD
HETATM   18  H   UNK N   1      34.799  15.822  12.164  0.00  0.00     0.169 HD
ENDBRANCH  13  16
ENDBRANCH  10  13
ENDBRANCH   1   7
BRANCH   4  19
HETATM   19  S   UNK N   1      28.708  16.817   3.844  0.00  0.00     0.266 S 
HETATM   20  O   UNK N   1      27.800  16.307   2.715  0.00  0.00    -0.200 OA
HETATM   21  O   UNK N   1      28.719  15.604   4.785  0.00  0.00    -0.200 OA
BRANCH  19  22
HETATM   22  C   UNK N   1      28.056  18.269   4.668  0.00  0.00     0.080 A 
HETATM   23  C   UNK N   1      27.381  19.246   3.929  0.00  0.00     0.026 A 
HETATM   24  C   UNK N   1      26.893  20.393   4.561  0.00  0.00     0.008 A 
HETATM   25  C   UNK N   1      27.080  20.567   5.935  0.00  0.00    -0.062 A 
HETATM   26  C   UNK N   1      26.564  21.790   6.604  0.00  0.00     0.048 C 
HETATM   27  C   UNK N   1      27.755  19.592   6.678  0.00  0.00     0.008 A 
HETATM   28  C   UNK N   1      28.244  18.443   6.045  0.00  0.00     0.026 A 
ENDBRANCH  19  22
ENDBRANCH   4  19
TORSDOF 5
ENDMDL
MODEL 5
REMARK VINA RESULT:      -7.3      9.830     13.209
REMARK  5 active torsions:
REMARK  status: ('A' for Active; 'I' for Inactive)
REMARK    1  A    between atoms: S_1  and  N_2 
REMARK    2  A    between atoms: S_1  and  C_5 
REMARK    3  A    between atoms: C_8  and  N_9 
REMARK       I    between atoms: N_9  and  C_10 
REMARK       I    between atoms: C_10  and  N_12 
REMARK    4  A    between atoms: N_12  and  S_13 
REMARK    5  A    between atoms: S_13  and  C_16 
ROOT
HETATM    1  N   UNK N   1      26.322  18.860   4.753  0.00  0.00    -0.308 N 
HETATM    2  C   UNK N   1      26.818  19.606   5.777  0.00  0.00     0.334 C 
HETATM    3  O   UNK N   1      26.238  20.609   6.160  0.00  0.00    -0.246 OA
HETATM    4  N   UNK N   1      27.936  19.204   6.429  0.00  0.00    -0.232 N 
HETATM    5  H   UNK N   1      26.854  18.083   4.466  0.00  0.00     0.170 HD
HETATM    6  H   UNK N   1      28.276  19.772   7.156  0.00  0.00     0.183 HD
ENDROOT
BRANCH   1   7
HETATM    7  C   UNK N   1      25.107  19.102   4.059  0.00  0.00     0.036 A 
HETATM    8  C   UNK N   1      24.925  20.222   3.232  0.00  0.00     0.031 A 
HETATM    9  C   UNK N   1      23.653  20.532   2.745  0.00  0.00     0.027 A 
HETATM   10  C   UNK N   1      22.563  19.728   3.088  0.00  0.00     0.079 A 
HETATM   11  C   UNK N   1      22.752  18.585   3.866  0.00  0.00     0.027 A 
HETATM   12  C   UNK N   1      24.022  18.269   4.341  0.00  0.00     0.031 A 
BRANCH  10  13
HETATM   13  S   UNK N   1      20.903  20.259   2.719  0.00  0.00     0.256 S 
HETATM   14  O   UNK N   1      20.269  20.917   3.955  0.00  0.00    -0.201 OA
HETATM   15  O   UNK N   1      20.836  21.400   1.694  0.00  0.00    -0.201 OA
BRANCH  13  16
HETATM   16  N   UNK N   1      19.718  19.065   2.194  0.00  0.00    -0.324 N 
HETATM   17  H   UNK N   1      19.542  18.384   1.455  0.00  0.00     0.169 HD
HETATM   18  H   UNK N   1      18.941  19.051   2.853  0.00  0.00     0.169 HD
ENDBRANCH  13  16
ENDBRANCH  10  13
ENDBRANCH   1   7
BRANCH   4  19
HETATM   19  S   UNK N   1      28.818  17.722   6.052  0.00  0.00     0.266 S 
HETATM   20  O   UNK N   1      27.885  16.538   6.345  0.00  0.00    -0.200 OA
HETATM   21  O   UNK N   1      28.849  17.702   4.517  0.00  0.00    -0.200 OA
BRANCH  19  22
HETATM   22  C   UNK N   1      30.461  17.507   6.734  0.00  0.00     0.080 A 
HETATM   23  C   UNK N   1      31.527  17.171   5.893  0.00  0.00     0.026 A 
HETATM   24  C   UNK N   1      32.806  16.976   6.422  0.00  0.00     0.008 A 
HETATM   25  C   UNK N   1      33.023  17.115   7.795  0.00  0.00    -0.062 A 
HETATM   26  C   UNK N   1      34.383  16.902   8.356  0.00  0.00     0.048 C 
HETATM   27  C   UNK N   1      31.959  17.452   8.641  0.00  0.00     0.008 A 
HETATM   28  C   UNK N   1      30.678  17.647   8.111  0.00  0.00     0.026 A 
ENDBRANCH  19  22
ENDBRANCH   4  19
TORSDOF 5
ENDMDL
MODEL 6
REMARK VINA RESULT:      -7.2      2.926      3.960
REMARK  5 active torsions:
REMARK  status: ('A' for Active; 'I' for Inactive)
REMARK    1  A    between atoms: S_1  and  N_2 
REMARK    2  A    between atoms: S_1  and  C_5 
REMARK    3  A    between atoms: C_8  and  N_9 
REMARK       I    between atoms: N_9  and  C_10 
REMARK       I    between atoms: C_10  and  N_12 
REMARK    4  A    between atoms: N_12  and  S_13 
REMARK    5  A    between atoms: S_13  and  C_16 
ROOT
HETATM    1  N   UNK N   1      34.747  15.735   9.552  0.00  0.00    -0.308 N 
HETATM    2  C   UNK N   1      35.527  16.455  10.402  0.00  0.00     0.334 C 
HETATM    3  O   UNK N   1      35.623  17.667  10.289  0.00  0.00    -0.246 OA
HETATM    4  N   UNK N   1      36.159  15.838  11.431  0.00  0.00    -0.232 N 
HETATM    5  H   UNK N   1      34.738  14.758   9.672  0.00  0.00     0.170 HD
HETATM    6  H   UNK N   1      36.725  16.386  12.020  0.00  0.00     0.183 HD
ENDROOT
BRANCH   1   7
HETATM    7  C   UNK N   1      33.946  16.263   8.506  0.00  0.00     0.036 A 
HETATM    8  C   UNK N   1      32.595  16.601   8.693  0.00  0.00     0.031 A 
HETATM    9  C   UNK N   1      31.794  16.911   7.591  0.00  0.00     0.027 A 
HETATM   10  C   UNK N   1      32.339  16.879   6.304  0.00  0.00     0.079 A 
HETATM   11  C   UNK N   1      33.693  16.594   6.124  0.00  0.00     0.027 A 
HETATM   12  C   UNK N   1      34.494  16.298   7.223  0.00  0.00     0.031 A 
BRANCH  10  13
HETATM   13  S   UNK N   1      31.279  16.988   4.877  0.00  0.00     0.256 S 
HETATM   14  O   UNK N   1      30.762  15.594   4.491  0.00  0.00    -0.201 OA
HETATM   15  O   UNK N   1      29.967  17.741   5.141  0.00  0.00    -0.201 OA
BRANCH  13  16
HETATM   16  N   UNK N   1      31.926  17.654   3.379  0.00  0.00    -0.324 N 
HETATM   17  H   UNK N   1      31.696  17.774   2.392  0.00  0.00     0.169 HD
HETATM   18  H   UNK N   1      32.846  18.055   3.560  0.00  0.00     0.169 HD
ENDBRANCH  13  16
ENDBRANCH  10  13
ENDBRANCH   1   7
BRANCH   4  19
HETATM   19  S   UNK N   1      36.025  14.114  11.777  0.00  0.00     0.266 S 
HETATM   20  O   UNK N   1      34.963  13.530  10.834  0.00  0.00    -0.200 OA
HETATM   21  O   UNK N   1      37.310  13.525  11.176  0.00  0.00    -0.200 OA
BRANCH  19  22
HETATM   22  C   UNK N   1      35.813  13.596  13.480  0.00  0.00     0.080 A 
HETATM   23  C   UNK N   1      34.878  12.604  13.796  0.00  0.00     0.026 A 
HETATM   24  C   UNK N   1      34.689  12.215  15.124  0.00  0.00     0.008 A 
HETATM   25  C   UNK N   1      35.433  12.817  16.142  0.00  0.00    -0.062 A 
HETATM   26  C   UNK N   1      35.227  12.404  17.556  0.00  0.00     0.048 C 
HETATM   27  C   UNK N   1      36.370  13.808  15.830  0.00  0.00     0.008 A 
HETATM   28  C   UNK N   1      36.559  14.200  14.500  0.00  0.00     0.026 A 
ENDBRANCH  19  22
ENDBRANCH   4  19
TORSDOF 5
ENDMDL
MODEL 7
REMARK VINA RESULT:      -7.2      3.559      9.291
REMARK  5 active torsions:
REMARK  status: ('A' for Active; 'I' for Inactive)
REMARK    1  A    between atoms: S_1  and  N_2 
REMARK    2  A    between atoms: S_1  and  C_5 
REMARK    3  A    between atoms: C_8  and  N_9 
REMARK       I    between atoms: N_9  and  C_10 
REMARK       I    between atoms: C_10  and  N_12 
REMARK    4  A    between atoms: N_12  and  S_13 
REMARK    5  A    between atoms: S_13  and  C_16 
ROOT
HETATM    1  N   UNK N   1      35.899  13.133  15.131  0.00  0.00    -0.308 N 
HETATM    2  C   UNK N   1      36.679  14.195  14.796  0.00  0.00     0.334 C 
HETATM    3  O   UNK N   1      37.425  14.707  15.616  0.00  0.00    -0.246 OA
HETATM    4  N   UNK N   1      36.683  14.659  13.523  0.00  0.00    -0.232 N 
HETATM    5  H   UNK N   1      35.292  12.786  14.438  0.00  0.00     0.170 HD
HETATM    6  H   UNK N   1      37.249  15.436  13.316  0.00  0.00     0.183 HD
ENDROOT
BRANCH   1   7
HETATM    7  C   UNK N   1      35.878  12.479  16.391  0.00  0.00     0.036 A 
HETATM    8  C   UNK N   1      36.252  11.133  16.545  0.00  0.00     0.031 A 
HETATM    9  C   UNK N   1      36.011  10.475  17.753  0.00  0.00     0.027 A 
HETATM   10  C   UNK N   1      35.394  11.156  18.805  0.00  0.00     0.079 A 
HETATM   11  C   UNK N   1      35.070  12.507  18.671  0.00  0.00     0.027 A 
HETATM   12  C   UNK N   1      35.321  13.167  17.471  0.00  0.00     0.031 A 
BRANCH  10  13
HETATM   13  S   UNK N   1      34.823  10.268  20.240  0.00  0.00     0.256 S 
HETATM   14  O   UNK N   1      33.841   9.162  19.824  0.00  0.00    -0.201 OA
HETATM   15  O   UNK N   1      35.924   9.455  20.938  0.00  0.00    -0.201 OA
BRANCH  13  16
HETATM   16  N   UNK N   1      33.988  11.149  21.517  0.00  0.00    -0.324 N 
HETATM   17  H   UNK N   1      34.119  11.913  22.180  0.00  0.00     0.169 HD
HETATM   18  H   UNK N   1      33.052  10.762  21.634  0.00  0.00     0.169 HD
ENDBRANCH  13  16
ENDBRANCH  10  13
ENDBRANCH   1   7
BRANCH   4  19
HETATM   19  S   UNK N   1      35.736  13.951  12.213  0.00  0.00     0.266 S 
HETATM   20  O   UNK N   1      36.401  12.621  11.824  0.00  0.00    -0.200 OA
HETATM   21  O   UNK N   1      34.465  13.451  12.915  0.00  0.00    -0.200 OA
BRANCH  19  22
HETATM   22  C   UNK N   1      35.332  14.974  10.798  0.00  0.00     0.080 A 
HETATM   23  C   UNK N   1      35.317  16.367  10.927  0.00  0.00     0.026 A 
HETATM   24  C   UNK N   1      34.977  17.169   9.834  0.00  0.00     0.008 A 
HETATM   25  C   UNK N   1      34.650  16.582   8.610  0.00  0.00    -0.062 A 
HETATM   26  C   UNK N   1      34.284  17.438   7.450  0.00  0.00     0.048 C 
HETATM   27  C   UNK N   1      34.665  15.189   8.476  0.00  0.00     0.008 A 
HETATM   28  C   UNK N   1      35.005  14.384   9.570  0.00  0.00     0.026 A 
ENDBRANCH  19  22
ENDBRANCH   4  19
TORSDOF 5
ENDMDL
MODEL 8
REMARK VINA RESULT:      -7.1     18.537     21.192
REMARK  5 active torsions:
REMARK  status: ('A' for Active; 'I' for Inactive)
REMARK    1  A    between atoms: S_1  and  N_2 
REMARK    2  A    between atoms: S_1  and  C_5 
REMARK    3  A    between atoms: C_8  and  N_9 
REMARK       I    between atoms: N_9  and  C_10 
REMARK       I    between atoms: C_10  and  N_12 
REMARK    4  A    between atoms: N_12  and  S_13 
REMARK    5  A    between atoms: S_13  and  C_16 
ROOT
HETATM    1  N   UNK N   1      30.589  23.687  -3.704  0.00  0.00    -0.308 N 
HETATM    2  C   UNK N   1      31.014  22.888  -2.689  0.00  0.00     0.334 C 
HETATM    3  O   UNK N   1      30.473  22.924  -1.595  0.00  0.00    -0.246 OA
HETATM    4  N   UNK N   1      32.008  21.992  -2.902  0.00  0.00    -0.232 N 
HETATM    5  H   UNK N   1      31.088  23.639  -4.551  0.00  0.00     0.170 HD
HETATM    6  H   UNK N   1      32.300  21.437  -2.144  0.00  0.00     0.183 HD
ENDROOT
BRANCH   1   7
HETATM    7  C   UNK N   1      29.492  24.587  -3.653  0.00  0.00     0.036 A 
HETATM    8  C   UNK N   1      28.161  24.145  -3.571  0.00  0.00     0.031 A 
HETATM    9  C   UNK N   1      27.112  25.052  -3.741  0.00  0.00     0.027 A 
HETATM   10  C   UNK N   1      27.390  26.397  -3.996  0.00  0.00     0.079 A 
HETATM   11  C   UNK N   1      28.711  26.846  -4.025  0.00  0.00     0.027 A 
HETATM   12  C   UNK N   1      29.757  25.945  -3.843  0.00  0.00     0.031 A 
BRANCH  10  13
HETATM   13  S   UNK N   1      26.089  27.505  -4.494  0.00  0.00     0.256 S 
HETATM   14  O   UNK N   1      25.360  28.059  -3.260  0.00  0.00    -0.201 OA
HETATM   15  O   UNK N   1      26.598  28.795  -5.155  0.00  0.00    -0.201 OA
BRANCH  13  16
HETATM   16  N   UNK N   1      24.802  26.903  -5.537  0.00  0.00    -0.324 N 
HETATM   17  H   UNK N   1      24.015  26.254  -5.543  0.00  0.00     0.169 HD
HETATM   18  H   UNK N   1      24.867  27.359  -6.447  0.00  0.00     0.169 HD
ENDBRANCH  13  16
ENDBRANCH  10  13
ENDBRANCH   1   7
BRANCH   4  19
HETATM   19  S   UNK N   1      32.807  21.757  -4.458  0.00  0.00     0.266 S 
HETATM   20  O   UNK N   1      33.320  23.127  -4.928  0.00  0.00    -0.200 OA
HETATM   21  O   UNK N   1      34.123  21.060  -4.085  0.00  0.00    -0.200 OA
BRANCH  19  22
HETATM   22  C   UNK N   1      31.939  20.854  -5.739  0.00  0.00     0.080 A 
HETATM   23  C   UNK N   1      32.662  20.181  -6.729  0.00  0.00     0.026 A 
HETATM   24  C   UNK N   1      31.990  19.497  -7.747  0.00  0.00     0.008 A 
HETATM   25  C   UNK N   1      30.593  19.485  -7.778  0.00  0.00    -0.062 A 
HETATM   26  C   UNK N   1      29.882  18.760  -8.864  0.00  0.00     0.048 C 
HETATM   27  C   UNK N   1      29.866  20.157  -6.788  0.00  0.00     0.008 A 
HETATM   28  C   UNK N   1      30.538  20.843  -5.770  0.00  0.00     0.026 A 
ENDBRANCH  19  22
ENDBRANCH   4  19
TORSDOF 5
ENDMDL
MODEL 9
REMARK VINA RESULT:      -7.0      6.611     11.498
REMARK  5 active torsions:
REMARK  status: ('A' for Active; 'I' for Inactive)
REMARK    1  A    between atoms: S_1  and  N_2 
REMARK    2  A    between atoms: S_1  and  C_5 
REMARK    3  A    between atoms: C_8  and  N_9 
REMARK       I    between atoms: N_9  and  C_10 
REMARK       I    between atoms: C_10  and  N_12 
REMARK    4  A    between atoms: N_12  and  S_13 
REMARK    5  A    between atoms: S_13  and  C_16 
ROOT
HETATM    1  N   UNK N   1      30.876  17.087   7.936  0.00  0.00    -0.308 N 
HETATM    2  C   UNK N   1      29.932  17.952   8.394  0.00  0.00     0.334 C 
HETATM    3  O   UNK N   1      30.027  18.455   9.502  0.00  0.00    -0.246 OA
HETATM    4  N   UNK N   1      28.901  18.317   7.593  0.00  0.00    -0.232 N 
HETATM    5  H   UNK N   1      30.725  16.687   7.049  0.00  0.00     0.170 HD
HETATM    6  H   UNK N   1      28.228  18.934   7.959  0.00  0.00     0.183 HD
ENDROOT
BRANCH   1   7
HETATM    7  C   UNK N   1      32.060  16.707   8.621  0.00  0.00     0.036 A 
HETATM    8  C   UNK N   1      33.226  17.490   8.598  0.00  0.00     0.031 A 
HETATM    9  C   UNK N   1      34.423  16.976   9.102  0.00  0.00     0.027 A 
HETATM   10  C   UNK N   1      34.458  15.680   9.624  0.00  0.00     0.079 A 
HETATM   11  C   UNK N   1      33.289  14.922   9.695  0.00  0.00     0.027 A 
HETATM   12  C   UNK N   1      32.093  15.439   9.205  0.00  0.00     0.031 A 
BRANCH  10  13
HETATM   13  S   UNK N   1      36.016  14.907  10.005  0.00  0.00     0.256 S 
HETATM   14  O   UNK N   1      36.992  15.937  10.594  0.00  0.00    -0.201 OA
HETATM   15  O   UNK N   1      35.931  13.879  11.143  0.00  0.00    -0.201 OA
BRANCH  13  16
HETATM   16  N   UNK N   1      36.923  14.123   8.713  0.00  0.00    -0.324 N 
HETATM   17  H   UNK N   1      37.877  13.911   8.420  0.00  0.00     0.169 HD
HETATM   18  H   UNK N   1      36.271  13.758   8.019  0.00  0.00     0.169 HD
ENDBRANCH  13  16
ENDBRANCH  10  13
ENDBRANCH   1   7
BRANCH   4  19
HETATM   19  S   UNK N   1      28.693  17.752   5.934  0.00  0.00     0.266 S 
HETATM   20  O   UNK N   1      30.083  17.703   5.282  0.00  0.00    -0.200 OA
HETATM   21  O   UNK N   1      28.391  16.255   6.098  0.00  0.00    -0.200 OA
BRANCH  19  22
HETATM   22  C   UNK N   1      27.462  18.550   4.905  0.00  0.00     0.080 A 
HETATM   23  C   UNK N   1      27.680  19.851   4.439  0.00  0.00     0.026 A 
HETATM   24  C   UNK N   1      26.713  20.489   3.658  0.00  0.00     0.008 A 
HETATM   25  C   UNK N   1      25.523  19.828   3.342  0.00  0.00    -0.062 A 
HETATM   26  C   UNK N   1      24.493  20.511   2.514  0.00  0.00     0.048 C 
HETATM   27  C   UNK N   1      25.301  18.526   3.805  0.00  0.00     0.008 A 
HETATM   28  C   UNK N   1      26.270  17.887   4.588  0.00  0.00     0.026 A 
ENDBRANCH  19  22
ENDBRANCH   4  19
TORSDOF 5
ENDMDL
