MODEL 1
REMARK VINA RESULT:      -6.8      0.000      0.000
REMARK  7 active torsions:
REMARK  status: ('A' for Active; 'I' for Inactive)
REMARK    1  A    between atoms: C_2  and  C_3 
REMARK    2  A    between atoms: C_3  and  C_4 
REMARK    3  A    between atoms: C_4  and  N_14 
REMARK    4  A    between atoms: C_5  and  C_6 
REMARK    5  A    between atoms: C_7  and  C_8 
REMARK    6  A    between atoms: C_12  and  C_13 
REMARK    7  A    between atoms: C_13  and  O_22 
ROOT
HETATM    1  C   UNK N   1      26.709  23.774  -6.365  0.00  0.00     0.078 A 
HETATM    2  C   UNK N   1      28.362  22.433  -6.292  0.00  0.00     0.086 A 
HETATM    3  O   UNK N   1      27.687  23.332  -5.619  0.00  0.00    -0.310 OA
HETATM    4  C   UNK N   1      26.755  23.158  -7.605  0.00  0.00     0.040 A 
HETATM    5  C   UNK N   1      27.821  22.279  -7.553  0.00  0.00     0.041 A 
ENDROOT
BRANCH   2   6
HETATM    6  C   UNK N   1      29.543  21.747  -5.758  0.00  0.00    -0.001 A 
HETATM    7  C   UNK N   1      30.009  22.091  -4.487  0.00  0.00     0.032 A 
HETATM    8  C   UNK N   1      31.152  21.487  -3.958  0.00  0.00     0.038 A 
HETATM    9  C   UNK N   1      31.837  20.526  -4.716  0.00  0.00     0.018 A 
HETATM   10  C   UNK N   1      31.372  20.171  -5.987  0.00  0.00     0.002 A 
HETATM   11  C   UNK N   1      30.228  20.782  -6.510  0.00  0.00     0.014 A 
BRANCH   8  12
HETATM   12  C   UNK N   1      31.636  21.875  -2.620  0.00  0.00     0.176 C 
HETATM   13  O   UNK N   1      31.094  22.786  -2.011  0.00  0.00    -0.646 OA
BRANCH  12  14
HETATM   14  O   UNK N   1      32.682  21.235  -2.063  0.00  0.00    -0.773 OA
HETATM   15  H   UNK N   1      33.154  20.593  -2.556  0.00  0.00     0.167 HD
ENDBRANCH  12  14
ENDBRANCH   8  12
ENDBRANCH   2   6
BRANCH   1  16
HETATM   16  C   UNK N   1      25.822  24.877  -5.931  0.00  0.00     0.068 C 
HETATM   17  C   UNK N   1      25.653  26.111  -6.452  0.00  0.00     0.083 C 
BRANCH  17  18
HETATM   18  C   UNK N   1      24.812  27.064  -5.653  0.00  0.00     0.063 C 
BRANCH  18  19
HETATM   19  C   UNK N   1      25.668  28.053  -4.884  0.00  0.00     0.002 C 
HETATM   20  C   UNK N   1      25.743  27.624  -3.432  0.00  0.00     0.005 C 
ENDBRANCH  18  19
ENDBRANCH  17  18
BRANCH  17  21
HETATM   21  N   UNK N   1      26.233  26.553  -7.687  0.00  0.00    -0.120 N 
HETATM   22  O   UNK N   1      27.322  27.040  -7.715  0.00  0.00    -0.532 OA
HETATM   23  O   UNK N   1      25.636  26.272  -8.823  0.00  0.00    -0.532 OA
ENDBRANCH  17  21
ENDBRANCH   1  16
TORSDOF 7
ENDMDL
MODEL 2
REMARK VINA RESULT:      -6.7     10.911     13.763
REMARK  7 active torsions:
REMARK  status: ('A' for Active; 'I' for Inactive)
REMARK    1  A    between atoms: C_2  and  C_3 
REMARK    2  A    between atoms: C_3  and  C_4 
REMARK    3  A    between atoms: C_4  and  N_14 
REMARK    4  A    between atoms: C_5  and  C_6 
REMARK    5  A    between atoms: C_7  and  C_8 
REMARK    6  A    between atoms: C_12  and  C_13 
REMARK    7  A    between atoms: C_13  and  O_22 
ROOT
HETATM    1  C   UNK N   1      26.541  19.914   5.189  0.00  0.00     0.078 A 
HETATM    2  C   UNK N   1      24.766  19.788   4.018  0.00  0.00     0.086 A 
HETATM    3  O   UNK N   1      25.270  19.612   5.214  0.00  0.00    -0.310 OA
HETATM    4  C   UNK N   1      26.906  20.282   3.903  0.00  0.00     0.040 A 
HETATM    5  C   UNK N   1      25.750  20.211   3.146  0.00  0.00     0.041 A 
ENDROOT
BRANCH   2   6
HETATM    6  C   UNK N   1      23.363  19.518   3.687  0.00  0.00    -0.001 A 
HETATM    7  C   UNK N   1      22.799  20.140   2.572  0.00  0.00     0.032 A 
HETATM    8  C   UNK N   1      21.456  19.939   2.244  0.00  0.00     0.038 A 
HETATM    9  C   UNK N   1      20.670  19.100   3.048  0.00  0.00     0.018 A 
HETATM   10  C   UNK N   1      21.229  18.468   4.163  0.00  0.00     0.002 A 
HETATM   11  C   UNK N   1      22.574  18.677   4.485  0.00  0.00     0.014 A 
BRANCH   8  12
HETATM   12  C   UNK N   1      20.876  20.617   1.071  0.00  0.00     0.176 C 
HETATM   13  O   UNK N   1      20.660  21.820   1.100  0.00  0.00    -0.646 OA
BRANCH  12  14
HETATM   14  O   UNK N   1      20.572  19.916  -0.039  0.00  0.00    -0.773 OA
HETATM   15  H   UNK N   1      20.058  19.135   0.027  0.00  0.00     0.167 HD
ENDBRANCH  12  14
ENDBRANCH   8  12
ENDBRANCH   2   6
BRANCH   1  16
HETATM   16  C   UNK N   1      27.422  19.721   6.362  0.00  0.00     0.068 C 
HETATM   17  C   UNK N   1      28.207  18.673   6.696  0.00  0.00     0.083 C 
BRANCH  17  18
HETATM   18  C   UNK N   1      28.830  18.713   8.060  0.00  0.00     0.063 C 
BRANCH  18  19
HETATM   19  C   UNK N   1      28.146  17.750   9.014  0.00  0.00     0.002 C 
HETATM   20  C   UNK N   1      29.113  17.371  10.118  0.00  0.00     0.005 C 
ENDBRANCH  18  19
ENDBRANCH  17  18
BRANCH  17  21
HETATM   21  N   UNK N   1      28.455  17.547   5.843  0.00  0.00    -0.120 N 
HETATM   22  O   UNK N   1      27.595  16.757   5.601  0.00  0.00    -0.532 OA
HETATM   23  O   UNK N   1      29.590  17.467   5.185  0.00  0.00    -0.532 OA
ENDBRANCH  17  21
ENDBRANCH   1  16
TORSDOF 7
ENDMDL
MODEL 3
REMARK VINA RESULT:      -6.6     17.711     22.216
REMARK  7 active torsions:
REMARK  status: ('A' for Active; 'I' for Inactive)
REMARK    1  A    between atoms: C_2  and  C_3 
REMARK    2  A    between atoms: C_3  and  C_4 
REMARK    3  A    between atoms: C_4  and  N_14 
REMARK    4  A    between atoms: C_5  and  C_6 
REMARK    5  A    between atoms: C_7  and  C_8 
REMARK    6  A    between atoms: C_12  and  C_13 
REMARK    7  A    between atoms: C_13  and  O_22 
ROOT
HETATM    1  C   UNK N   1      35.900  13.950  13.243  0.00  0.00     0.078 A 
HETATM    2  C   UNK N   1      35.203  14.556  11.323  0.00  0.00     0.086 A 
HETATM    3  O   UNK N   1      34.974  14.622  12.611  0.00  0.00    -0.310 OA
HETATM    4  C   UNK N   1      36.772  13.385  12.324  0.00  0.00     0.040 A 
HETATM    5  C   UNK N   1      36.325  13.789  11.079  0.00  0.00     0.041 A 
ENDROOT
BRANCH   2   6
HETATM    6  C   UNK N   1      34.339  15.184  10.319  0.00  0.00    -0.001 A 
HETATM    7  C   UNK N   1      34.824  16.276   9.596  0.00  0.00     0.032 A 
HETATM    8  C   UNK N   1      34.020  16.926   8.656  0.00  0.00     0.038 A 
HETATM    9  C   UNK N   1      32.710  16.472   8.440  0.00  0.00     0.018 A 
HETATM   10  C   UNK N   1      32.219  15.375   9.155  0.00  0.00     0.002 A 
HETATM   11  C   UNK N   1      33.031  14.732  10.096  0.00  0.00     0.014 A 
BRANCH   8  12
HETATM   12  C   UNK N   1      34.547  18.086   7.914  0.00  0.00     0.176 C 
HETATM   13  O   UNK N   1      34.407  18.156   6.702  0.00  0.00    -0.646 OA
BRANCH  12  14
HETATM   14  O   UNK N   1      35.194  19.072   8.565  0.00  0.00    -0.773 OA
HETATM   15  H   UNK N   1      35.100  19.961   8.281  0.00  0.00     0.167 HD
ENDBRANCH  12  14
ENDBRANCH   8  12
ENDBRANCH   2   6
BRANCH   1  16
HETATM   16  C   UNK N   1      35.867  13.744  14.708  0.00  0.00     0.068 C 
HETATM   17  C   UNK N   1      35.357  12.724  15.430  0.00  0.00     0.083 C 
BRANCH  17  18
HETATM   18  C   UNK N   1      35.312  12.914  16.917  0.00  0.00     0.063 C 
BRANCH  18  19
HETATM   19  C   UNK N   1      35.357  11.587  17.652  0.00  0.00     0.002 C 
HETATM   20  C   UNK N   1      35.415  11.845  19.144  0.00  0.00     0.005 C 
ENDBRANCH  18  19
ENDBRANCH  17  18
BRANCH  17  21
HETATM   21  N   UNK N   1      34.853  11.507  14.863  0.00  0.00    -0.120 N 
HETATM   22  O   UNK N   1      33.686  11.361  14.656  0.00  0.00    -0.532 OA
HETATM   23  O   UNK N   1      35.693  10.603  14.410  0.00  0.00    -0.532 OA
ENDBRANCH  17  21
ENDBRANCH   1  16
TORSDOF 7
ENDMDL
MODEL 4
REMARK VINA RESULT:      -6.6     16.398     17.511
REMARK  7 active torsions:
REMARK  status: ('A' for Active; 'I' for Inactive)
REMARK    1  A    between atoms: C_2  and  C_3 
REMARK    2  A    between atoms: C_3  and  C_4 
REMARK    3  A    between atoms: C_4  and  N_14 
REMARK    4  A    between atoms: C_5  and  C_6 
REMARK    5  A    between atoms: C_7  and  C_8 
REMARK    6  A    between atoms: C_12  and  C_13 
REMARK    7  A    between atoms: C_13  and  O_22 
ROOT
HETATM    1  C   UNK N   1      20.101  15.934   6.869  0.00  0.00     0.078 A 
HETATM    2  C   UNK N   1      20.456  14.925   8.712  0.00  0.00     0.086 A 
HETATM    3  O   UNK N   1      20.760  14.959   7.438  0.00  0.00    -0.310 OA
HETATM    4  C   UNK N   1      19.297  16.561   7.808  0.00  0.00     0.040 A 
HETATM    5  C   UNK N   1      19.537  15.913   9.006  0.00  0.00     0.041 A 
ENDROOT
BRANCH   2   6
HETATM    6  C   UNK N   1      21.002  13.935   9.644  0.00  0.00    -0.001 A 
HETATM    7  C   UNK N   1      22.378  13.695   9.649  0.00  0.00     0.032 A 
HETATM    8  C   UNK N   1      22.934  12.733  10.496  0.00  0.00     0.038 A 
HETATM    9  C   UNK N   1      22.095  12.002  11.350  0.00  0.00     0.018 A 
HETATM   10  C   UNK N   1      20.717  12.241  11.357  0.00  0.00     0.002 A 
HETATM   11  C   UNK N   1      20.169  13.204  10.504  0.00  0.00     0.014 A 
BRANCH   8  12
HETATM   12  C   UNK N   1      24.387  12.486  10.474  0.00  0.00     0.176 C 
HETATM   13  O   UNK N   1      24.990  12.460   9.412  0.00  0.00    -0.646 OA
BRANCH  12  14
HETATM   14  O   UNK N   1      25.058  12.279  11.623  0.00  0.00    -0.773 OA
HETATM   15  H   UNK N   1      25.525  11.476  11.755  0.00  0.00     0.167 HD
ENDBRANCH  12  14
ENDBRANCH   8  12
ENDBRANCH   2   6
BRANCH   1  16
HETATM   16  C   UNK N   1      20.147  16.171   5.409  0.00  0.00     0.068 C 
HETATM   17  C   UNK N   1      20.722  17.174   4.710  0.00  0.00     0.083 C 
BRANCH  17  18
HETATM   18  C   UNK N   1      20.419  17.224   3.242  0.00  0.00     0.063 C 
BRANCH  18  19
HETATM   19  C   UNK N   1      19.616  18.460   2.880  0.00  0.00     0.002 C 
HETATM   20  C   UNK N   1      20.491  19.406   2.081  0.00  0.00     0.005 C 
ENDBRANCH  18  19
ENDBRANCH  17  18
BRANCH  17  21
HETATM   21  N   UNK N   1      21.571  18.176   5.286  0.00  0.00    -0.120 N 
HETATM   22  O   UNK N   1      21.114  19.084   5.911  0.00  0.00    -0.532 OA
HETATM   23  O   UNK N   1      22.875  18.011   5.272  0.00  0.00    -0.532 OA
ENDBRANCH  17  21
ENDBRANCH   1  16
TORSDOF 7
ENDMDL
MODEL 5
REMARK VINA RESULT:      -6.6     14.591     16.194
REMARK  7 active torsions:
REMARK  status: ('A' for Active; 'I' for Inactive)
REMARK    1  A    between atoms: C_2  and  C_3 
REMARK    2  A    between atoms: C_3  and  C_4 
REMARK    3  A    between atoms: C_4  and  N_14 
REMARK    4  A    between atoms: C_5  and  C_6 
REMARK    5  A    between atoms: C_7  and  C_8 
REMARK    6  A    between atoms: C_12  and  C_13 
REMARK    7  A    between atoms: C_13  and  O_22 
ROOT
HETATM    1  C   UNK N   1      20.390  15.659   6.049  0.00  0.00     0.078 A 
HETATM    2  C   UNK N   1      20.864  17.167   4.622  0.00  0.00     0.086 A 
HETATM    3  O   UNK N   1      21.266  16.570   5.717  0.00  0.00    -0.310 OA
HETATM    4  C   UNK N   1      19.340  15.671   5.144  0.00  0.00     0.040 A 
HETATM    5  C   UNK N   1      19.654  16.642   4.211  0.00  0.00     0.041 A 
ENDROOT
BRANCH   2   6
HETATM    6  C   UNK N   1      21.603  18.261   3.984  0.00  0.00    -0.001 A 
HETATM    7  C   UNK N   1      20.997  18.974   2.948  0.00  0.00     0.032 A 
HETATM    8  C   UNK N   1      21.680  19.999   2.289  0.00  0.00     0.038 A 
HETATM    9  C   UNK N   1      22.992  20.312   2.678  0.00  0.00     0.018 A 
HETATM   10  C   UNK N   1      23.604  19.607   3.720  0.00  0.00     0.002 A 
HETATM   11  C   UNK N   1      22.912  18.581   4.371  0.00  0.00     0.014 A 
BRANCH   8  12
HETATM   12  C   UNK N   1      21.027  20.729   1.188  0.00  0.00     0.176 C 
HETATM   13  O   UNK N   1      20.896  20.203   0.093  0.00  0.00    -0.646 OA
BRANCH  12  14
HETATM   14  O   UNK N   1      20.577  21.985   1.377  0.00  0.00    -0.773 OA
HETATM   15  H   UNK N   1      20.705  22.409   2.203  0.00  0.00     0.167 HD
ENDBRANCH  12  14
ENDBRANCH   8  12
ENDBRANCH   2   6
BRANCH   1  16
HETATM   16  C   UNK N   1      20.501  14.877   7.301  0.00  0.00     0.068 C 
HETATM   17  C   UNK N   1      20.181  15.217   8.568  0.00  0.00     0.083 C 
BRANCH  17  18
HETATM   18  C   UNK N   1      20.600  14.258   9.643  0.00  0.00     0.063 C 
BRANCH  18  19
HETATM   19  C   UNK N   1      21.954  13.641   9.345  0.00  0.00     0.002 C 
HETATM   20  C   UNK N   1      22.063  12.308  10.058  0.00  0.00     0.005 C 
ENDBRANCH  18  19
ENDBRANCH  17  18
BRANCH  17  21
HETATM   21  N   UNK N   1      19.494  16.422   8.931  0.00  0.00    -0.120 N 
HETATM   22  O   UNK N   1      20.073  17.464   8.997  0.00  0.00    -0.532 OA
HETATM   23  O   UNK N   1      18.184  16.419   9.033  0.00  0.00    -0.532 OA
ENDBRANCH  17  21
ENDBRANCH   1  16
TORSDOF 7
ENDMDL
MODEL 6
REMARK VINA RESULT:      -6.5     11.487     13.845
REMARK  7 active torsions:
REMARK  status: ('A' for Active; 'I' for Inactive)
REMARK    1  A    between atoms: C_2  and  C_3 
REMARK    2  A    between atoms: C_3  and  C_4 
REMARK    3  A    between atoms: C_4  and  N_14 
REMARK    4  A    between atoms: C_5  and  C_6 
REMARK    5  A    between atoms: C_7  and  C_8 
REMARK    6  A    between atoms: C_12  and  C_13 
REMARK    7  A    between atoms: C_13  and  O_22 
ROOT
HETATM    1  C   UNK N   1      25.767  19.503   4.474  0.00  0.00     0.078 A 
HETATM    2  C   UNK N   1      23.885  19.698   3.495  0.00  0.00     0.086 A 
HETATM    3  O   UNK N   1      24.507  19.158   4.514  0.00  0.00    -0.310 OA
HETATM    4  C   UNK N   1      25.998  20.289   3.356  0.00  0.00     0.040 A 
HETATM    5  C   UNK N   1      24.774  20.425   2.727  0.00  0.00     0.041 A 
ENDROOT
BRANCH   2   6
HETATM    6  C   UNK N   1      22.459  19.495   3.222  0.00  0.00    -0.001 A 
HETATM    7  C   UNK N   1      21.872  18.273   3.560  0.00  0.00     0.032 A 
HETATM    8  C   UNK N   1      20.525  18.026   3.283  0.00  0.00     0.038 A 
HETATM    9  C   UNK N   1      19.757  19.021   2.660  0.00  0.00     0.018 A 
HETATM   10  C   UNK N   1      20.336  20.250   2.325  0.00  0.00     0.002 A 
HETATM   11  C   UNK N   1      21.686  20.487   2.604  0.00  0.00     0.014 A 
BRANCH   8  12
HETATM   12  C   UNK N   1      19.929  16.724   3.634  0.00  0.00     0.176 C 
HETATM   13  O   UNK N   1      20.491  15.686   3.317  0.00  0.00    -0.646 OA
BRANCH  12  14
HETATM   14  O   UNK N   1      18.759  16.669   4.297  0.00  0.00    -0.773 OA
HETATM   15  H   UNK N   1      17.953  16.806   3.838  0.00  0.00     0.167 HD
ENDBRANCH  12  14
ENDBRANCH   8  12
ENDBRANCH   2   6
BRANCH   1  16
HETATM   16  C   UNK N   1      26.762  18.970   5.431  0.00  0.00     0.068 C 
HETATM   17  C   UNK N   1      27.440  19.597   6.417  0.00  0.00     0.083 C 
BRANCH  17  18
HETATM   18  C   UNK N   1      28.527  18.808   7.086  0.00  0.00     0.063 C 
BRANCH  18  19
HETATM   19  C   UNK N   1      28.188  18.507   8.534  0.00  0.00     0.002 C 
HETATM   20  C   UNK N   1      29.458  18.543   9.361  0.00  0.00     0.005 C 
ENDBRANCH  18  19
ENDBRANCH  17  18
BRANCH  17  21
HETATM   21  N   UNK N   1      27.194  20.946   6.835  0.00  0.00    -0.120 N 
HETATM   22  O   UNK N   1      27.838  21.852   6.401  0.00  0.00    -0.532 OA
HETATM   23  O   UNK N   1      26.142  21.216   7.577  0.00  0.00    -0.532 OA
ENDBRANCH  17  21
ENDBRANCH   1  16
TORSDOF 7
ENDMDL
MODEL 7
REMARK VINA RESULT:      -6.5     16.550     20.244
REMARK  7 active torsions:
REMARK  status: ('A' for Active; 'I' for Inactive)
REMARK    1  A    between atoms: C_2  and  C_3 
REMARK    2  A    between atoms: C_3  and  C_4 
REMARK    3  A    between atoms: C_4  and  N_14 
REMARK    4  A    between atoms: C_5  and  C_6 
REMARK    5  A    between atoms: C_7  and  C_8 
REMARK    6  A    between atoms: C_12  and  C_13 
REMARK    7  A    between atoms: C_13  and  O_22 
ROOT
HETATM    1  C   UNK N   1      33.999  15.183   9.807  0.00  0.00     0.078 A 
HETATM    2  C   UNK N   1      35.088  14.254  11.385  0.00  0.00     0.086 A 
HETATM    3  O   UNK N   1      33.998  14.917  11.087  0.00  0.00    -0.310 OA
HETATM    4  C   UNK N   1      35.162  14.695   9.232  0.00  0.00     0.040 A 
HETATM    5  C   UNK N   1      35.863  14.082  10.255  0.00  0.00     0.041 A 
ENDROOT
BRANCH   2   6
HETATM    6  C   UNK N   1      35.417  13.816  12.745  0.00  0.00    -0.001 A 
HETATM    7  C   UNK N   1      34.767  12.698  13.272  0.00  0.00     0.032 A 
HETATM    8  C   UNK N   1      35.025  12.271  14.577  0.00  0.00     0.038 A 
HETATM    9  C   UNK N   1      35.949  12.976  15.363  0.00  0.00     0.018 A 
HETATM   10  C   UNK N   1      36.609  14.093  14.839  0.00  0.00     0.002 A 
HETATM   11  C   UNK N   1      36.342  14.515  13.533  0.00  0.00     0.014 A 
BRANCH   8  12
HETATM   12  C   UNK N   1      34.317  11.097  15.120  0.00  0.00     0.176 C 
HETATM   13  O   UNK N   1      34.806  10.452  16.035  0.00  0.00    -0.646 OA
BRANCH  12  14
HETATM   14  O   UNK N   1      33.130  10.721  14.605  0.00  0.00    -0.773 OA
HETATM   15  H   UNK N   1      32.376  11.266  14.721  0.00  0.00     0.167 HD
ENDBRANCH  12  14
ENDBRANCH   8  12
ENDBRANCH   2   6
BRANCH   1  16
HETATM   16  C   UNK N   1      32.952  16.014   9.172  0.00  0.00     0.068 C 
HETATM   17  C   UNK N   1      33.052  17.205   8.544  0.00  0.00     0.083 C 
BRANCH  17  18
HETATM   18  C   UNK N   1      31.761  17.879   8.180  0.00  0.00     0.063 C 
BRANCH  18  19
HETATM   19  C   UNK N   1      30.606  17.361   9.017  0.00  0.00     0.002 C 
HETATM   20  C   UNK N   1      29.828  18.537   9.573  0.00  0.00     0.005 C 
ENDBRANCH  18  19
ENDBRANCH  17  18
BRANCH  17  21
HETATM   21  N   UNK N   1      34.293  17.852   8.232  0.00  0.00    -0.120 N 
HETATM   22  O   UNK N   1      35.040  18.201   9.095  0.00  0.00    -0.532 OA
HETATM   23  O   UNK N   1      34.697  17.917   6.983  0.00  0.00    -0.532 OA
ENDBRANCH  17  21
ENDBRANCH   1  16
TORSDOF 7
ENDMDL
MODEL 8
REMARK VINA RESULT:      -6.4     15.975     19.648
REMARK  7 active torsions:
REMARK  status: ('A' for Active; 'I' for Inactive)
REMARK    1  A    between atoms: C_2  and  C_3 
REMARK    2  A    between atoms: C_3  and  C_4 
REMARK    3  A    between atoms: C_4  and  N_14 
REMARK    4  A    between atoms: C_5  and  C_6 
REMARK    5  A    between atoms: C_7  and  C_8 
REMARK    6  A    between atoms: C_12  and  C_13 
REMARK    7  A    between atoms: C_13  and  O_22 
ROOT
HETATM    1  C   UNK N   1      34.227  15.369   9.224  0.00  0.00     0.078 A 
HETATM    2  C   UNK N   1      35.525  14.112  10.352  0.00  0.00     0.086 A 
HETATM    3  O   UNK N   1      34.428  14.826  10.396  0.00  0.00    -0.310 OA
HETATM    4  C   UNK N   1      35.260  15.021   8.367  0.00  0.00     0.040 A 
HETATM    5  C   UNK N   1      36.096  14.195   9.097  0.00  0.00     0.041 A 
ENDROOT
BRANCH   2   6
HETATM    6  C   UNK N   1      36.057  13.382  11.507  0.00  0.00    -0.001 A 
HETATM    7  C   UNK N   1      35.478  13.585  12.762  0.00  0.00     0.032 A 
HETATM    8  C   UNK N   1      35.980  12.938  13.893  0.00  0.00     0.038 A 
HETATM    9  C   UNK N   1      37.077  12.074  13.763  0.00  0.00     0.018 A 
HETATM   10  C   UNK N   1      37.658  11.859  12.508  0.00  0.00     0.002 A 
HETATM   11  C   UNK N   1      37.151  12.514  11.381  0.00  0.00     0.014 A 
BRANCH   8  12
HETATM   12  C   UNK N   1      35.363  13.178  15.211  0.00  0.00     0.176 C 
HETATM   13  O   UNK N   1      36.046  13.566  16.148  0.00  0.00    -0.646 OA
BRANCH  12  14
HETATM   14  O   UNK N   1      34.046  12.964  15.395  0.00  0.00    -0.773 OA
HETATM   15  H   UNK N   1      33.420  13.392  14.844  0.00  0.00     0.167 HD
ENDBRANCH  12  14
ENDBRANCH   8  12
ENDBRANCH   2   6
BRANCH   1  16
HETATM   16  C   UNK N   1      33.123  16.322   8.974  0.00  0.00     0.068 C 
HETATM   17  C   UNK N   1      33.146  17.549   8.409  0.00  0.00     0.083 C 
BRANCH  17  18
HETATM   18  C   UNK N   1      31.873  18.341   8.481  0.00  0.00     0.063 C 
BRANCH  18  19
HETATM   19  C   UNK N   1      30.663  17.440   8.642  0.00  0.00     0.002 C 
HETATM   20  C   UNK N   1      29.639  18.132   9.519  0.00  0.00     0.005 C 
ENDBRANCH  18  19
ENDBRANCH  17  18
BRANCH  17  21
HETATM   21  N   UNK N   1      34.297  18.125   7.778  0.00  0.00    -0.120 N 
HETATM   22  O   UNK N   1      34.535  17.919   6.626  0.00  0.00    -0.532 OA
HETATM   23  O   UNK N   1      35.010  19.023   8.420  0.00  0.00    -0.532 OA
ENDBRANCH  17  21
ENDBRANCH   1  16
TORSDOF 7
ENDMDL
MODEL 9
REMARK VINA RESULT:      -6.4     19.709     23.561
REMARK  7 active torsions:
REMARK  status: ('A' for Active; 'I' for Inactive)
REMARK    1  A    between atoms: C_2  and  C_3 
REMARK    2  A    between atoms: C_3  and  C_4 
REMARK    3  A    between atoms: C_4  and  N_14 
REMARK    4  A    between atoms: C_5  and  C_6 
REMARK    5  A    between atoms: C_7  and  C_8 
REMARK    6  A    between atoms: C_12  and  C_13 
REMARK    7  A    between atoms: C_13  and  O_22 
ROOT
HETATM    1  C   UNK N   1      35.279  13.707  12.686  0.00  0.00     0.078 A 
HETATM    2  C   UNK N   1      35.508  12.874  14.633  0.00  0.00     0.086 A 
HETATM    3  O   UNK N   1      34.890  12.748  13.484  0.00  0.00    -0.310 OA
HETATM    4  C   UNK N   1      36.178  14.528  13.348  0.00  0.00     0.040 A 
HETATM    5  C   UNK N   1      36.335  13.979  14.608  0.00  0.00     0.041 A 
ENDROOT
BRANCH   2   6
HETATM    6  C   UNK N   1      35.287  11.973  15.768  0.00  0.00    -0.001 A 
HETATM    7  C   UNK N   1      35.331  12.493  17.064  0.00  0.00     0.032 A 
HETATM    8  C   UNK N   1      35.163  11.662  18.174  0.00  0.00     0.038 A 
HETATM    9  C   UNK N   1      34.946  10.289  17.980  0.00  0.00     0.018 A 
HETATM   10  C   UNK N   1      34.894   9.762  16.685  0.00  0.00     0.002 A 
HETATM   11  C   UNK N   1      35.066  10.601  15.579  0.00  0.00     0.014 A 
BRANCH   8  12
HETATM   12  C   UNK N   1      35.228  12.228  19.533  0.00  0.00     0.176 C 
HETATM   13  O   UNK N   1      35.557  13.394  19.698  0.00  0.00    -0.646 OA
BRANCH  12  14
HETATM   14  O   UNK N   1      34.935  11.465  20.603  0.00  0.00    -0.773 OA
HETATM   15  H   UNK N   1      34.627  10.588  20.483  0.00  0.00     0.167 HD
ENDBRANCH  12  14
ENDBRANCH   8  12
ENDBRANCH   2   6
BRANCH   1  16
HETATM   16  C   UNK N   1      34.686  13.906  11.344  0.00  0.00     0.068 C 
HETATM   17  C   UNK N   1      35.048  14.747  10.352  0.00  0.00     0.083 C 
BRANCH  17  18
HETATM   18  C   UNK N   1      34.114  14.840   9.181  0.00  0.00     0.063 C 
BRANCH  18  19
HETATM   19  C   UNK N   1      32.680  15.062   9.627  0.00  0.00     0.002 C 
HETATM   20  C   UNK N   1      32.000  16.013   8.662  0.00  0.00     0.005 C 
ENDBRANCH  18  19
ENDBRANCH  17  18
BRANCH  17  21
HETATM   21  N   UNK N   1      36.237  15.548  10.366  0.00  0.00    -0.120 N 
HETATM   22  O   UNK N   1      37.294  15.086  10.057  0.00  0.00    -0.532 OA
HETATM   23  O   UNK N   1      36.147  16.845  10.558  0.00  0.00    -0.532 OA
ENDBRANCH  17  21
ENDBRANCH   1  16
TORSDOF 7
ENDMDL
