REMARK  7 active torsions:
REMARK  status: ('A' for Active; 'I' for Inactive)
REMARK    1  A    between atoms: C_2  and  C_3 
REMARK    2  A    between atoms: C_3  and  C_4 
REMARK    3  A    between atoms: C_4  and  N_14 
REMARK    4  A    between atoms: C_5  and  C_6 
REMARK    5  A    between atoms: C_7  and  C_8 
REMARK    6  A    between atoms: C_12  and  C_13 
REMARK    7  A    between atoms: C_13  and  O_22 
ROOT
HETATM    1  C   UNK N   1      -0.566   0.658  -0.367  0.00  0.00     0.078 A 
HETATM    2  C   UNK N   1       0.196  -1.328  -0.251  0.00  0.00     0.086 A 
HETATM    3  O   UNK N   1       0.521  -0.059  -0.251  0.00  0.00    -0.310 OA
HETATM    4  C   UNK N   1      -1.665  -0.179  -0.478  0.00  0.00     0.040 A 
HETATM    5  C   UNK N   1      -1.171  -1.468  -0.391  0.00  0.00     0.041 A 
ENDROOT
BRANCH   2   6
HETATM    6  C   UNK N   1       1.180  -2.411  -0.159  0.00  0.00    -0.001 A 
HETATM    7  C   UNK N   1       2.534  -2.088  -0.046  0.00  0.00     0.032 A 
HETATM    8  C   UNK N   1       3.506  -3.090   0.007  0.00  0.00     0.038 A 
HETATM    9  C   UNK N   1       3.112  -4.435  -0.054  0.00  0.00     0.018 A 
HETATM   10  C   UNK N   1       1.757  -4.767  -0.160  0.00  0.00     0.002 A 
HETATM   11  C   UNK N   1       0.791  -3.757  -0.215  0.00  0.00     0.014 A 
BRANCH   8  12
HETATM   12  C   UNK N   1       4.931  -2.727   0.111  0.00  0.00     0.176 C 
HETATM   13  O   UNK N   1       5.263  -1.553   0.184  0.00  0.00    -0.646 OA
BRANCH  12  14
HETATM   14  O   UNK N   1       5.878  -3.685   0.118  0.00  0.00    -0.773 OA
HETATM   15  H   UNK N   1       5.630  -4.589   0.124  0.00  0.00     0.167 HD
ENDBRANCH  12  14
ENDBRANCH   8  12
ENDBRANCH   2   6
BRANCH   1  16
HETATM   16  C   UNK N   1      -0.529   2.131  -0.503  0.00  0.00     0.068 C 
HETATM   17  C   UNK N   1      -1.514   3.042  -0.349  0.00  0.00     0.083 C 
BRANCH  17  18
HETATM   18  C   UNK N   1      -1.190   4.451  -0.751  0.00  0.00     0.063 C 
BRANCH  18  19
HETATM   19  C   UNK N   1      -1.326   5.410   0.417  0.00  0.00     0.002 C 
HETATM   20  C   UNK N   1      -2.409   6.424   0.106  0.00  0.00     0.005 C 
ENDBRANCH  18  19
ENDBRANCH  17  18
BRANCH  17  21
HETATM   21  N   UNK N   1      -2.824   2.738   0.149  0.00  0.00    -0.120 N 
HETATM   22  O   UNK N   1      -3.039   1.720   0.734  0.00  0.00    -0.532 OA
HETATM   23  O   UNK N   1      -3.764   3.656   0.111  0.00  0.00    -0.532 OA
ENDBRANCH  17  21
ENDBRANCH   1  16
TORSDOF 7
