MODEL 1
REMARK VINA RESULT:      -8.4      0.000      0.000
REMARK  3 active torsions:
REMARK  status: ('A' for Active; 'I' for Inactive)
REMARK    1  A    between atoms: C_6  and  C_5 
REMARK    2  A    between atoms: S_19  and  C_18 
REMARK    3  A    between atoms: N_22  and  S_19 
ROOT
HETATM    1  C   UNK N   1      27.357  18.761   4.823  0.00  0.00     0.196 C 
HETATM    2  N   UNK N   1      28.471  18.055   4.194  0.00  0.00    -0.367 N 
HETATM    3  N   UNK N   1      26.835  18.013   5.972  0.00  0.00    -0.293 N 
HETATM    4  S   UNK N   1      28.140  17.917   7.155  0.00  0.00     0.262 S 
HETATM    5  O   UNK N   1      27.697  16.819   8.134  0.00  0.00    -0.200 OA
HETATM    6  O   UNK N   1      28.069  19.224   7.957  0.00  0.00    -0.200 OA
HETATM    7  C   UNK N   1      29.655  17.601   6.293  0.00  0.00     0.107 A 
HETATM    8  C   UNK N   1      30.828  17.301   6.978  0.00  0.00     0.053 A 
HETATM    9  C   UNK N   1      29.638  17.653   4.895  0.00  0.00     0.053 A 
HETATM   10  C   UNK N   1      30.794  17.319   4.182  0.00  0.00     0.039 A 
HETATM   11  C   UNK N   1      31.975  16.998   4.859  0.00  0.00    -0.037 A 
HETATM   12  C   UNK N   1      33.196  16.695   4.058  0.00  0.00     0.050 C 
HETATM   13  C   UNK N   1      32.003  17.023   6.271  0.00  0.00     0.082 A 
HETATM   14  H   UNK N   1      28.409  17.848   3.234  0.00  0.00     0.161 HD
HETATM   15  H   UNK N   1      25.897  17.623   6.069  0.00  0.00     0.174 HD
ENDROOT
BRANCH  13  16
HETATM   16  S   UNK N   1      33.529  16.864   7.209  0.00  0.00     0.244 S 
HETATM   17  O   UNK N   1      34.321  18.156   6.939  0.00  0.00    -0.206 OA
HETATM   18  O   UNK N   1      34.511  15.842   6.615  0.00  0.00    -0.206 OA
BRANCH  16  19
HETATM   19  N   UNK N   1      33.588  16.699   8.980  0.00  0.00    -0.203 NA
HETATM   20  C   UNK N   1      34.967  16.934   9.448  0.00  0.00     0.138 C 
HETATM   21  C   UNK N   1      35.512  15.808  10.327  0.00  0.00     0.287 C 
HETATM   22  N   UNK N   1      35.396  14.530   9.630  0.00  0.00     0.086 N 
HETATM   23  C   UNK N   1      34.022  14.241   9.188  0.00  0.00     0.287 C 
HETATM   24  C   UNK N   1      35.763  13.496  10.581  0.00  0.00     0.310 C 
HETATM   25  C   UNK N   1      33.033  15.402   9.393  0.00  0.00     0.138 C 
ENDBRANCH  16  19
ENDBRANCH  13  16
BRANCH   1  26
HETATM   26  C   UNK N   1      26.259  18.986   3.782  0.00  0.00     0.029 C 
HETATM   27  C   UNK N   1      24.867  18.802   4.344  0.00  0.00     0.008 C 
HETATM   28  C   UNK N   1      23.993  19.582   3.399  0.00  0.00     0.001 C 
HETATM   29  C   UNK N   1      24.827  20.787   3.005  0.00  0.00     0.001 C 
HETATM   30  C   UNK N   1      26.283  20.388   3.195  0.00  0.00     0.008 C 
ENDBRANCH   1  26
TORSDOF 3
ENDMDL
MODEL 2
REMARK VINA RESULT:      -8.2      2.254      2.969
REMARK  3 active torsions:
REMARK  status: ('A' for Active; 'I' for Inactive)
REMARK    1  A    between atoms: C_6  and  C_5 
REMARK    2  A    between atoms: S_19  and  C_18 
REMARK    3  A    between atoms: N_22  and  S_19 
ROOT
HETATM    1  C   UNK N   1      28.492  18.628   7.138  0.00  0.00     0.196 C 
HETATM    2  N   UNK N   1      29.323  17.642   6.450  0.00  0.00    -0.367 N 
HETATM    3  N   UNK N   1      27.879  18.058   8.343  0.00  0.00    -0.293 N 
HETATM    4  S   UNK N   1      29.198  17.621   9.430  0.00  0.00     0.262 S 
HETATM    5  O   UNK N   1      28.554  16.692  10.469  0.00  0.00    -0.200 OA
HETATM    6  O   UNK N   1      29.544  18.905  10.197  0.00  0.00    -0.200 OA
HETATM    7  C   UNK N   1      30.500  16.900   8.470  0.00  0.00     0.107 A 
HETATM    8  C   UNK N   1      31.599  16.300   9.076  0.00  0.00     0.053 A 
HETATM    9  C   UNK N   1      30.390  16.945   7.075  0.00  0.00     0.053 A 
HETATM   10  C   UNK N   1      31.354  16.305   6.290  0.00  0.00     0.039 A 
HETATM   11  C   UNK N   1      32.454  15.681   6.888  0.00  0.00    -0.037 A 
HETATM   12  C   UNK N   1      33.482  15.053   6.011  0.00  0.00     0.050 C 
HETATM   13  C   UNK N   1      32.597  15.709   8.294  0.00  0.00     0.082 A 
HETATM   14  H   UNK N   1      29.133  17.452   5.503  0.00  0.00     0.161 HD
HETATM   15  H   UNK N   1      26.881  17.937   8.518  0.00  0.00     0.174 HD
ENDROOT
BRANCH  13  16
HETATM   16  S   UNK N   1      34.092  15.151   9.122  0.00  0.00     0.244 S 
HETATM   17  O   UNK N   1      33.727  15.042  10.613  0.00  0.00    -0.206 OA
HETATM   18  O   UNK N   1      35.183  16.229   9.211  0.00  0.00    -0.206 OA
BRANCH  16  19
HETATM   19  N   UNK N   1      34.896  13.601   8.773  0.00  0.00    -0.203 NA
HETATM   20  C   UNK N   1      34.479  12.597   9.769  0.00  0.00     0.138 C 
HETATM   21  C   UNK N   1      35.651  11.904  10.463  0.00  0.00     0.287 C 
HETATM   22  N   UNK N   1      36.544  12.898  11.050  0.00  0.00     0.086 N 
HETATM   23  C   UNK N   1      37.017  13.891  10.073  0.00  0.00     0.287 C 
HETATM   24  C   UNK N   1      37.713  12.185  11.532  0.00  0.00     0.310 C 
HETATM   25  C   UNK N   1      36.352  13.785   8.689  0.00  0.00     0.138 C 
ENDBRANCH  16  19
ENDBRANCH  13  16
BRANCH   1  26
HETATM   26  C   UNK N   1      27.418  19.133   6.173  0.00  0.00     0.029 C 
HETATM   27  C   UNK N   1      27.296  20.641   6.164  0.00  0.00     0.008 C 
HETATM   28  C   UNK N   1      26.659  20.940   4.833  0.00  0.00     0.001 C 
HETATM   29  C   UNK N   1      27.252  19.919   3.881  0.00  0.00     0.001 C 
HETATM   30  C   UNK N   1      27.687  18.734   4.731  0.00  0.00     0.008 C 
ENDBRANCH   1  26
TORSDOF 3
ENDMDL
MODEL 3
REMARK VINA RESULT:      -8.1      4.065      5.886
REMARK  3 active torsions:
REMARK  status: ('A' for Active; 'I' for Inactive)
REMARK    1  A    between atoms: C_6  and  C_5 
REMARK    2  A    between atoms: S_19  and  C_18 
REMARK    3  A    between atoms: N_22  and  S_19 
ROOT
HETATM    1  C   UNK N   1      31.628  17.335   7.875  0.00  0.00     0.196 C 
HETATM    2  N   UNK N   1      31.702  16.044   8.555  0.00  0.00    -0.367 N 
HETATM    3  N   UNK N   1      32.618  18.275   8.412  0.00  0.00    -0.293 N 
HETATM    4  S   UNK N   1      34.209  17.589   8.080  0.00  0.00     0.262 S 
HETATM    5  O   UNK N   1      35.169  18.378   8.982  0.00  0.00    -0.200 OA
HETATM    6  O   UNK N   1      34.555  18.021   6.647  0.00  0.00    -0.200 OA
HETATM    7  C   UNK N   1      34.141  15.845   8.383  0.00  0.00     0.107 A 
HETATM    8  C   UNK N   1      35.291  15.064   8.373  0.00  0.00     0.053 A 
HETATM    9  C   UNK N   1      32.890  15.272   8.642  0.00  0.00     0.053 A 
HETATM   10  C   UNK N   1      32.813  13.916   8.975  0.00  0.00     0.039 A 
HETATM   11  C   UNK N   1      33.965  13.123   8.987  0.00  0.00    -0.037 A 
HETATM   12  C   UNK N   1      33.829  11.672   9.301  0.00  0.00     0.050 C 
HETATM   13  C   UNK N   1      35.213  13.694   8.649  0.00  0.00     0.082 A 
HETATM   14  H   UNK N   1      30.885  15.690   8.975  0.00  0.00     0.161 HD
HETATM   15  H   UNK N   1      32.424  19.157   8.887  0.00  0.00     0.174 HD
ENDROOT
BRANCH  13  16
HETATM   16  S   UNK N   1      36.692  12.702   8.402  0.00  0.00     0.244 S 
HETATM   17  O   UNK N   1      37.633  13.563   7.543  0.00  0.00    -0.206 OA
HETATM   18  O   UNK N   1      36.486  11.522   7.439  0.00  0.00    -0.206 OA
BRANCH  16  19
HETATM   19  N   UNK N   1      37.735  12.136   9.729  0.00  0.00    -0.203 NA
HETATM   20  C   UNK N   1      37.128  10.947  10.357  0.00  0.00     0.138 C 
HETATM   21  C   UNK N   1      36.970  11.073  11.872  0.00  0.00     0.287 C 
HETATM   22  N   UNK N   1      36.226  12.286  12.198  0.00  0.00     0.086 N 
HETATM   23  C   UNK N   1      36.830  13.499  11.626  0.00  0.00     0.287 C 
HETATM   24  C   UNK N   1      36.267  12.431  13.642  0.00  0.00     0.310 C 
HETATM   25  C   UNK N   1      38.007  13.232  10.671  0.00  0.00     0.138 C 
ENDBRANCH  16  19
ENDBRANCH  13  16
BRANCH   1  26
HETATM   26  C   UNK N   1      30.214  17.897   8.026  0.00  0.00     0.029 C 
HETATM   27  C   UNK N   1      29.181  17.110   7.251  0.00  0.00     0.008 C 
HETATM   28  C   UNK N   1      27.886  17.435   7.947  0.00  0.00     0.001 C 
HETATM   29  C   UNK N   1      28.253  17.545   9.415  0.00  0.00     0.001 C 
HETATM   30  C   UNK N   1      29.732  17.898   9.468  0.00  0.00     0.008 C 
ENDBRANCH   1  26
TORSDOF 3
ENDMDL
MODEL 4
REMARK VINA RESULT:      -8.0     11.667     15.673
REMARK  3 active torsions:
REMARK  status: ('A' for Active; 'I' for Inactive)
REMARK    1  A    between atoms: C_6  and  C_5 
REMARK    2  A    between atoms: S_19  and  C_18 
REMARK    3  A    between atoms: N_22  and  S_19 
ROOT
HETATM    1  C   UNK N   1      31.960  21.137  -3.798  0.00  0.00     0.196 C 
HETATM    2  N   UNK N   1      31.324  21.174  -5.113  0.00  0.00    -0.367 N 
HETATM    3  N   UNK N   1      32.256  22.489  -3.314  0.00  0.00    -0.293 N 
HETATM    4  S   UNK N   1      30.709  23.318  -3.133  0.00  0.00     0.262 S 
HETATM    5  O   UNK N   1      31.076  24.805  -3.015  0.00  0.00    -0.200 OA
HETATM    6  O   UNK N   1      30.186  22.920  -1.746  0.00  0.00    -0.200 OA
HETATM    7  C   UNK N   1      29.683  22.896  -4.514  0.00  0.00     0.107 A 
HETATM    8  C   UNK N   1      28.469  23.536  -4.735  0.00  0.00     0.053 A 
HETATM    9  C   UNK N   1      30.135  21.899  -5.387  0.00  0.00     0.053 A 
HETATM   10  C   UNK N   1      29.393  21.607  -6.536  0.00  0.00     0.039 A 
HETATM   11  C   UNK N   1      28.178  22.257  -6.779  0.00  0.00    -0.037 A 
HETATM   12  C   UNK N   1      27.398  21.879  -7.992  0.00  0.00     0.050 C 
HETATM   13  C   UNK N   1      27.693  23.206  -5.852  0.00  0.00     0.082 A 
HETATM   14  H   UNK N   1      31.741  20.668  -5.848  0.00  0.00     0.161 HD
HETATM   15  H   UNK N   1      33.180  22.876  -3.118  0.00  0.00     0.174 HD
ENDROOT
BRANCH  13  16
HETATM   16  S   UNK N   1      26.039  23.903  -5.961  0.00  0.00     0.244 S 
HETATM   17  O   UNK N   1      25.701  24.398  -4.545  0.00  0.00    -0.206 OA
HETATM   18  O   UNK N   1      24.937  22.845  -6.125  0.00  0.00    -0.206 OA
BRANCH  16  19
HETATM   19  N   UNK N   1      25.615  25.284  -7.002  0.00  0.00    -0.203 NA
HETATM   20  C   UNK N   1      26.622  25.419  -8.071  0.00  0.00     0.138 C 
HETATM   21  C   UNK N   1      27.227  26.819  -8.165  0.00  0.00     0.287 C 
HETATM   22  N   UNK N   1      27.771  27.216  -6.869  0.00  0.00     0.086 N 
HETATM   23  C   UNK N   1      26.779  27.138  -5.785  0.00  0.00     0.287 C 
HETATM   24  C   UNK N   1      28.165  28.608  -6.986  0.00  0.00     0.310 C 
HETATM   25  C   UNK N   1      25.440  26.500  -6.194  0.00  0.00     0.138 C 
ENDBRANCH  16  19
ENDBRANCH  13  16
BRANCH   1  26
HETATM   26  C   UNK N   1      33.240  20.304  -3.889  0.00  0.00     0.029 C 
HETATM   27  C   UNK N   1      33.490  19.755  -5.275  0.00  0.00     0.008 C 
HETATM   28  C   UNK N   1      34.971  19.490  -5.293  0.00  0.00     0.001 C 
HETATM   29  C   UNK N   1      35.577  20.613  -4.472  0.00  0.00     0.001 C 
HETATM   30  C   UNK N   1      34.485  21.098  -3.530  0.00  0.00     0.008 C 
ENDBRANCH   1  26
TORSDOF 3
ENDMDL
MODEL 5
REMARK VINA RESULT:      -8.0      3.473      9.559
REMARK  3 active torsions:
REMARK  status: ('A' for Active; 'I' for Inactive)
REMARK    1  A    between atoms: C_6  and  C_5 
REMARK    2  A    between atoms: S_19  and  C_18 
REMARK    3  A    between atoms: N_22  and  S_19 
ROOT
HETATM    1  C   UNK N   1      34.893  11.808  11.687  0.00  0.00     0.196 C 
HETATM    2  N   UNK N   1      34.638  13.244  11.592  0.00  0.00    -0.367 N 
HETATM    3  N   UNK N   1      33.828  11.036  11.037  0.00  0.00    -0.293 N 
HETATM    4  S   UNK N   1      33.853  11.469   9.327  0.00  0.00     0.262 S 
HETATM    5  O   UNK N   1      32.511  10.962   8.778  0.00  0.00    -0.200 OA
HETATM    6  O   UNK N   1      34.918  10.566   8.688  0.00  0.00    -0.200 OA
HETATM    7  C   UNK N   1      34.117  13.216   9.195  0.00  0.00     0.107 A 
HETATM    8  C   UNK N   1      34.010  13.873   7.975  0.00  0.00     0.053 A 
HETATM    9  C   UNK N   1      34.430  13.922  10.362  0.00  0.00     0.053 A 
HETATM   10  C   UNK N   1      34.554  15.314  10.309  0.00  0.00     0.039 A 
HETATM   11  C   UNK N   1      34.431  15.990   9.090  0.00  0.00    -0.037 A 
HETATM   12  C   UNK N   1      34.618  17.468   9.072  0.00  0.00     0.050 C 
HETATM   13  C   UNK N   1      34.191  15.259   7.905  0.00  0.00     0.082 A 
HETATM   14  H   UNK N   1      34.610  13.769  12.425  0.00  0.00     0.161 HD
HETATM   15  H   UNK N   1      33.195  10.375  11.488  0.00  0.00     0.174 HD
ENDROOT
BRANCH  13  16
HETATM   16  S   UNK N   1      34.262  16.015   6.275  0.00  0.00     0.244 S 
HETATM   17  O   UNK N   1      35.611  15.583   5.673  0.00  0.00    -0.206 OA
HETATM   18  O   UNK N   1      34.483  17.535   6.313  0.00  0.00    -0.206 OA
BRANCH  16  19
HETATM   19  N   UNK N   1      33.094  15.674   4.975  0.00  0.00    -0.203 NA
HETATM   20  C   UNK N   1      32.912  16.883   4.151  0.00  0.00     0.138 C 
HETATM   21  C   UNK N   1      31.449  17.297   3.992  0.00  0.00     0.287 C 
HETATM   22  N   UNK N   1      30.827  17.447   5.304  0.00  0.00     0.086 N 
HETATM   23  C   UNK N   1      30.950  16.241   6.138  0.00  0.00     0.287 C 
HETATM   24  C   UNK N   1      29.409  17.665   5.076  0.00  0.00     0.310 C 
HETATM   25  C   UNK N   1      31.843  15.142   5.536  0.00  0.00     0.138 C 
ENDBRANCH  16  19
ENDBRANCH  13  16
BRANCH   1  26
HETATM   26  C   UNK N   1      35.016  11.422  13.162  0.00  0.00     0.029 C 
HETATM   27  C   UNK N   1      34.916  12.609  14.093  0.00  0.00     0.008 C 
HETATM   28  C   UNK N   1      34.499  12.000  15.405  0.00  0.00     0.001 C 
HETATM   29  C   UNK N   1      33.563  10.868  15.028  0.00  0.00     0.001 C 
HETATM   30  C   UNK N   1      33.931  10.456  13.610  0.00  0.00     0.008 C 
ENDBRANCH   1  26
TORSDOF 3
ENDMDL
MODEL 6
REMARK VINA RESULT:      -7.9      4.126      6.377
REMARK  3 active torsions:
REMARK  status: ('A' for Active; 'I' for Inactive)
REMARK    1  A    between atoms: C_6  and  C_5 
REMARK    2  A    between atoms: S_19  and  C_18 
REMARK    3  A    between atoms: N_22  and  S_19 
ROOT
HETATM    1  C   UNK N   1      31.787  17.419   8.144  0.00  0.00     0.196 C 
HETATM    2  N   UNK N   1      32.028  16.446   9.207  0.00  0.00    -0.367 N 
HETATM    3  N   UNK N   1      32.714  18.553   8.243  0.00  0.00    -0.293 N 
HETATM    4  S   UNK N   1      34.339  17.907   8.015  0.00  0.00     0.262 S 
HETATM    5  O   UNK N   1      35.273  19.021   8.510  0.00  0.00    -0.200 OA
HETATM    6  O   UNK N   1      34.551  17.847   6.496  0.00  0.00    -0.200 OA
HETATM    7  C   UNK N   1      34.458  16.371   8.889  0.00  0.00     0.107 A 
HETATM    8  C   UNK N   1      35.676  15.715   9.036  0.00  0.00     0.053 A 
HETATM    9  C   UNK N   1      33.288  15.835   9.438  0.00  0.00     0.053 A 
HETATM   10  C   UNK N   1      33.363  14.672  10.211  0.00  0.00     0.039 A 
HETATM   11  C   UNK N   1      34.585  14.013  10.382  0.00  0.00    -0.037 A 
HETATM   12  C   UNK N   1      34.610  12.751  11.175  0.00  0.00     0.050 C 
HETATM   13  C   UNK N   1      35.748  14.519   9.760  0.00  0.00     0.082 A 
HETATM   14  H   UNK N   1      31.276  16.201   9.793  0.00  0.00     0.161 HD
HETATM   15  H   UNK N   1      32.465  19.528   8.411  0.00  0.00     0.174 HD
ENDROOT
BRANCH  13  16
HETATM   16  S   UNK N   1      37.298  13.609   9.725  0.00  0.00     0.244 S 
HETATM   17  O   UNK N   1      37.673  13.368  11.198  0.00  0.00    -0.206 OA
HETATM   18  O   UNK N   1      38.502  14.463   9.298  0.00  0.00    -0.206 OA
BRANCH  16  19
HETATM   19  N   UNK N   1      37.485  12.005   8.977  0.00  0.00    -0.203 NA
HETATM   20  C   UNK N   1      38.902  11.790   8.628  0.00  0.00     0.138 C 
HETATM   21  C   UNK N   1      39.117  11.390   7.169  0.00  0.00     0.287 C 
HETATM   22  N   UNK N   1      38.494  12.371   6.285  0.00  0.00     0.086 N 
HETATM   23  C   UNK N   1      37.066  12.577   6.575  0.00  0.00     0.287 C 
HETATM   24  C   UNK N   1      38.581  11.841   4.936  0.00  0.00     0.310 C 
HETATM   25  C   UNK N   1      36.565  11.858   7.840  0.00  0.00     0.138 C 
ENDBRANCH  16  19
ENDBRANCH  13  16
BRANCH   1  26
HETATM   26  C   UNK N   1      30.337  17.899   8.227  0.00  0.00     0.029 C 
HETATM   27  C   UNK N   1      29.408  17.129   7.315  0.00  0.00     0.008 C 
HETATM   28  C   UNK N   1      28.050  17.334   7.931  0.00  0.00     0.001 C 
HETATM   29  C   UNK N   1      28.301  17.342   9.428  0.00  0.00     0.001 C 
HETATM   30  C   UNK N   1      29.751  17.760   9.623  0.00  0.00     0.008 C 
ENDBRANCH   1  26
TORSDOF 3
ENDMDL
MODEL 7
REMARK VINA RESULT:      -7.9      4.749     10.443
REMARK  3 active torsions:
REMARK  status: ('A' for Active; 'I' for Inactive)
REMARK    1  A    between atoms: C_6  and  C_5 
REMARK    2  A    between atoms: S_19  and  C_18 
REMARK    3  A    between atoms: N_22  and  S_19 
ROOT
HETATM    1  C   UNK N   1      36.586  13.372  13.949  0.00  0.00     0.196 C 
HETATM    2  N   UNK N   1      36.025  14.570  13.327  0.00  0.00    -0.367 N 
HETATM    3  N   UNK N   1      35.666  12.235  13.835  0.00  0.00    -0.293 N 
HETATM    4  S   UNK N   1      35.474  11.901  12.114  0.00  0.00     0.262 S 
HETATM    5  O   UNK N   1      34.235  10.998  12.029  0.00  0.00    -0.200 OA
HETATM    6  O   UNK N   1      36.657  11.000  11.733  0.00  0.00    -0.200 OA
HETATM    7  C   UNK N   1      35.350  13.445  11.255  0.00  0.00     0.107 A 
HETATM    8  C   UNK N   1      35.018  13.497   9.905  0.00  0.00     0.053 A 
HETATM    9  C   UNK N   1      35.589  14.619  11.977  0.00  0.00     0.053 A 
HETATM   10  C   UNK N   1      35.410  15.857  11.352  0.00  0.00     0.039 A 
HETATM   11  C   UNK N   1      35.058  15.924  10.000  0.00  0.00    -0.037 A 
HETATM   12  C   UNK N   1      34.925  17.264   9.362  0.00  0.00     0.050 C 
HETATM   13  C   UNK N   1      34.894  14.732   9.259  0.00  0.00     0.082 A 
HETATM   14  H   UNK N   1      35.946  15.385  13.873  0.00  0.00     0.161 HD
HETATM   15  H   UNK N   1      35.222  11.733  14.605  0.00  0.00     0.174 HD
ENDROOT
BRANCH  13  16
HETATM   16  S   UNK N   1      34.685  14.727   7.473  0.00  0.00     0.244 S 
HETATM   17  O   UNK N   1      35.052  13.306   7.013  0.00  0.00    -0.206 OA
HETATM   18  O   UNK N   1      35.770  15.519   6.726  0.00  0.00    -0.206 OA
BRANCH  16  19
HETATM   19  N   UNK N   1      33.133  15.044   6.659  0.00  0.00    -0.203 NA
HETATM   20  C   UNK N   1      33.103  16.441   6.189  0.00  0.00     0.138 C 
HETATM   21  C   UNK N   1      31.871  17.215   6.657  0.00  0.00     0.287 C 
HETATM   22  N   UNK N   1      31.756  17.139   8.111  0.00  0.00     0.086 N 
HETATM   23  C   UNK N   1      31.737  15.756   8.613  0.00  0.00     0.287 C 
HETATM   24  C   UNK N   1      30.482  17.738   8.466  0.00  0.00     0.310 C 
HETATM   25  C   UNK N   1      32.010  14.688   7.538  0.00  0.00     0.138 C 
ENDBRANCH  16  19
ENDBRANCH  13  16
BRANCH   1  26
HETATM   26  C   UNK N   1      36.895  13.672  15.416  0.00  0.00     0.029 C 
HETATM   27  C   UNK N   1      37.184  15.134  15.672  0.00  0.00     0.008 C 
HETATM   28  C   UNK N   1      36.901  15.304  17.140  0.00  0.00     0.001 C 
HETATM   29  C   UNK N   1      35.719  14.393  17.415  0.00  0.00     0.001 C 
HETATM   30  C   UNK N   1      35.747  13.311  16.345  0.00  0.00     0.008 C 
ENDBRANCH   1  26
TORSDOF 3
ENDMDL
MODEL 8
REMARK VINA RESULT:      -7.7      2.241      8.535
REMARK  3 active torsions:
REMARK  status: ('A' for Active; 'I' for Inactive)
REMARK    1  A    between atoms: C_6  and  C_5 
REMARK    2  A    between atoms: S_19  and  C_18 
REMARK    3  A    between atoms: N_22  and  S_19 
ROOT
HETATM    1  C   UNK N   1      34.299  16.466   8.923  0.00  0.00     0.196 C 
HETATM    2  N   UNK N   1      32.924  16.359   9.403  0.00  0.00    -0.367 N 
HETATM    3  N   UNK N   1      34.500  15.673   7.705  0.00  0.00    -0.293 N 
HETATM    4  S   UNK N   1      33.449  16.363   6.467  0.00  0.00     0.262 S 
HETATM    5  O   UNK N   1      33.392  15.293   5.366  0.00  0.00    -0.200 OA
HETATM    6  O   UNK N   1      34.240  17.528   5.856  0.00  0.00    -0.200 OA
HETATM    7  C   UNK N   1      31.896  16.770   7.214  0.00  0.00     0.107 A 
HETATM    8  C   UNK N   1      30.807  17.169   6.447  0.00  0.00     0.053 A 
HETATM    9  C   UNK N   1      31.791  16.669   8.606  0.00  0.00     0.053 A 
HETATM   10  C   UNK N   1      30.553  16.895   9.218  0.00  0.00     0.039 A 
HETATM   11  C   UNK N   1      29.445  17.279   8.456  0.00  0.00    -0.037 A 
HETATM   12  C   UNK N   1      28.159  17.555   9.156  0.00  0.00     0.050 C 
HETATM   13  C   UNK N   1      29.581  17.453   7.060  0.00  0.00     0.082 A 
HETATM   14  H   UNK N   1      32.774  16.056  10.328  0.00  0.00     0.161 HD
HETATM   15  H   UNK N   1      35.127  14.876   7.595  0.00  0.00     0.174 HD
ENDROOT
BRANCH  13  16
HETATM   16  S   UNK N   1      28.284  18.176   6.047  0.00  0.00     0.244 S 
HETATM   17  O   UNK N   1      28.989  18.729   4.797  0.00  0.00    -0.206 OA
HETATM   18  O   UNK N   1      27.721  19.488   6.616  0.00  0.00    -0.206 OA
BRANCH  16  19
HETATM   19  N   UNK N   1      26.917  17.249   5.382  0.00  0.00    -0.203 NA
HETATM   20  C   UNK N   1      26.597  16.130   6.288  0.00  0.00     0.138 C 
HETATM   21  C   UNK N   1      26.560  14.772   5.587  0.00  0.00     0.287 C 
HETATM   22  N   UNK N   1      27.815  14.541   4.878  0.00  0.00     0.086 N 
HETATM   23  C   UNK N   1      28.143  15.618   3.930  0.00  0.00     0.287 C 
HETATM   24  C   UNK N   1      27.643  13.327   4.100  0.00  0.00     0.310 C 
HETATM   25  C   UNK N   1      27.202  16.833   4.001  0.00  0.00     0.138 C 
ENDBRANCH  16  19
ENDBRANCH  13  16
BRANCH   1  26
HETATM   26  C   UNK N   1      35.249  16.005  10.030  0.00  0.00     0.029 C 
HETATM   27  C   UNK N   1      34.527  15.400  11.213  0.00  0.00     0.008 C 
HETATM   28  C   UNK N   1      35.574  14.542  11.871  0.00  0.00     0.001 C 
HETATM   29  C   UNK N   1      36.389  13.975  10.723  0.00  0.00     0.001 C 
HETATM   30  C   UNK N   1      36.229  14.942   9.559  0.00  0.00     0.008 C 
ENDBRANCH   1  26
TORSDOF 3
ENDMDL
MODEL 9
REMARK VINA RESULT:      -7.4      1.914      2.426
REMARK  3 active torsions:
REMARK  status: ('A' for Active; 'I' for Inactive)
REMARK    1  A    between atoms: C_6  and  C_5 
REMARK    2  A    between atoms: S_19  and  C_18 
REMARK    3  A    between atoms: N_22  and  S_19 
ROOT
HETATM    1  C   UNK N   1      27.126  17.165   5.018  0.00  0.00     0.196 C 
HETATM    2  N   UNK N   1      28.258  16.279   4.756  0.00  0.00    -0.367 N 
HETATM    3  N   UNK N   1      26.746  17.135   6.435  0.00  0.00    -0.293 N 
HETATM    4  S   UNK N   1      28.126  17.750   7.347  0.00  0.00     0.262 S 
HETATM    5  O   UNK N   1      27.846  17.340   8.800  0.00  0.00    -0.200 OA
HETATM    6  O   UNK N   1      27.986  19.279   7.326  0.00  0.00    -0.200 OA
HETATM    7  C   UNK N   1      29.607  17.084   6.640  0.00  0.00     0.107 A 
HETATM    8  C   UNK N   1      30.842  17.253   7.256  0.00  0.00     0.053 A 
HETATM    9  C   UNK N   1      29.498  16.371   5.441  0.00  0.00     0.053 A 
HETATM   10  C   UNK N   1      30.633  15.754   4.905  0.00  0.00     0.039 A 
HETATM   11  C   UNK N   1      31.879  15.901   5.525  0.00  0.00    -0.037 A 
HETATM   12  C   UNK N   1      33.069  15.266   4.892  0.00  0.00     0.050 C 
HETATM   13  C   UNK N   1      31.991  16.687   6.693  0.00  0.00     0.082 A 
HETATM   14  H   UNK N   1      28.156  15.583   4.067  0.00  0.00     0.161 HD
HETATM   15  H   UNK N   1      25.855  16.820   6.819  0.00  0.00     0.174 HD
ENDROOT
BRANCH  13  16
HETATM   16  S   UNK N   1      33.581  17.127   7.410  0.00  0.00     0.244 S 
HETATM   17  O   UNK N   1      33.314  18.360   8.290  0.00  0.00    -0.206 OA
HETATM   18  O   UNK N   1      34.558  17.748   6.401  0.00  0.00    -0.206 OA
BRANCH  16  19
HETATM   19  N   UNK N   1      34.518  16.048   8.472  0.00  0.00    -0.203 NA
HETATM   20  C   UNK N   1      35.253  15.069   7.649  0.00  0.00     0.138 C 
HETATM   21  C   UNK N   1      35.008  13.619   8.064  0.00  0.00     0.287 C 
HETATM   22  N   UNK N   1      33.575  13.337   8.074  0.00  0.00     0.086 N 
HETATM   23  C   UNK N   1      32.815  14.268   8.923  0.00  0.00     0.287 C 
HETATM   24  C   UNK N   1      33.409  12.012   8.642  0.00  0.00     0.310 C 
HETATM   25  C   UNK N   1      33.644  15.437   9.484  0.00  0.00     0.138 C 
ENDBRANCH  16  19
ENDBRANCH  13  16
BRANCH   1  26
HETATM   26  C   UNK N   1      25.950  16.743   4.136  0.00  0.00     0.029 C 
HETATM   27  C   UNK N   1      26.387  16.125   2.827  0.00  0.00     0.008 C 
HETATM   28  C   UNK N   1      25.197  15.306   2.403  0.00  0.00     0.001 C 
HETATM   29  C   UNK N   1      24.624  14.757   3.695  0.00  0.00     0.001 C 
HETATM   30  C   UNK N   1      25.057  15.708   4.801  0.00  0.00     0.008 C 
ENDBRANCH   1  26
TORSDOF 3
ENDMDL
