REMARK  3 active torsions:
REMARK  status: ('A' for Active; 'I' for Inactive)
REMARK    1  A    between atoms: C_6  and  C_5 
REMARK    2  A    between atoms: C_17  and  S_18 
REMARK    3  A    between atoms: S_18  and  N_21 
ROOT
HETATM    1  C   UNK N   1      -3.812  -1.191   0.333  0.00  0.00     0.101 C 
HETATM    2  C   UNK N   1      -2.541  -1.959   0.765  0.00  0.00     0.066 C 
HETATM    3  N   UNK N   1      -3.851   0.164   0.897  0.00  0.00    -0.310 N 
HETATM    4  S   UNK N   1      -2.447   1.071   0.331  0.00  0.00     0.259 S 
HETATM    5  O   UNK N   1      -2.292   2.218   1.340  0.00  0.00    -0.201 OA
HETATM    6  O   UNK N   1      -2.893   1.757  -0.969  0.00  0.00    -0.201 OA
HETATM    7  C   UNK N   1      -1.029   0.012   0.204  0.00  0.00     0.087 A 
HETATM    8  C   UNK N   1       0.243   0.540  -0.032  0.00  0.00     0.050 A 
HETATM    9  C   UNK N   1      -1.205  -1.366   0.401  0.00  0.00    -0.033 A 
HETATM   10  C   UNK N   1      -0.092  -2.212   0.336  0.00  0.00     0.010 A 
HETATM   11  C   UNK N   1       1.180  -1.689   0.095  0.00  0.00     0.025 A 
HETATM   12  C   UNK N   1       1.353  -0.313  -0.083  0.00  0.00     0.076 A 
HETATM   13  H   UNK N   1      -4.575   0.525   1.518  0.00  0.00     0.172 HD
ENDROOT
BRANCH  12  14
HETATM   14  S   UNK N   1       3.000   0.366  -0.247  0.00  0.00     0.243 S 
HETATM   15  O   UNK N   1       3.466   0.584  -1.695  0.00  0.00    -0.206 OA
HETATM   16  O   UNK N   1       4.049  -0.625   0.288  0.00  0.00    -0.206 OA
BRANCH  14  17
HETATM   17  N   UNK N   1       3.290   1.883   0.648  0.00  0.00    -0.203 NA
HETATM   18  C   UNK N   1       3.089   3.074  -0.189  0.00  0.00     0.138 C 
HETATM   19  C   UNK N   1       4.331   3.405  -1.021  0.00  0.00     0.287 C 
HETATM   20  N   UNK N   1       5.484   3.551  -0.141  0.00  0.00     0.086 N 
HETATM   21  C   UNK N   1       6.630   3.872  -0.970  0.00  0.00     0.310 C 
HETATM   22  C   UNK N   1       5.738   2.256   0.476  0.00  0.00     0.287 C 
HETATM   23  C   UNK N   1       4.563   1.892   1.383  0.00  0.00     0.138 C 
ENDBRANCH  14  17
ENDBRANCH  12  14
BRANCH   1  24
HETATM   24  C   UNK N   1      -5.031  -1.965   0.871  0.00  0.00     0.009 C 
HETATM   25  C   UNK N   1      -6.344  -1.351   0.421  0.00  0.00     0.007 C 
HETATM   26  C   UNK N   1      -6.734  -2.075  -0.856  0.00  0.00     0.000 C 
HETATM   27  C   UNK N   1      -5.899  -3.344  -0.919  0.00  0.00     0.000 C 
HETATM   28  C   UNK N   1      -5.098  -3.395   0.365  0.00  0.00     0.007 C 
ENDBRANCH   1  24
TORSDOF 3
