MODEL 1
REMARK VINA RESULT:      -7.7      0.000      0.000
REMARK  3 active torsions:
REMARK  status: ('A' for Active; 'I' for Inactive)
REMARK    1  A    between atoms: C_6  and  C_5 
REMARK    2  A    between atoms: C_17  and  S_18 
REMARK    3  A    between atoms: S_18  and  N_21 
ROOT
HETATM    1  C   UNK N   1      28.210  18.761   7.151  0.00  0.00     0.101 C 
HETATM    2  C   UNK N   1      29.002  17.755   6.283  0.00  0.00     0.066 C 
HETATM    3  N   UNK N   1      27.825  18.184   8.445  0.00  0.00    -0.310 N 
HETATM    4  S   UNK N   1      29.279  17.724   9.333  0.00  0.00     0.259 S 
HETATM    5  O   UNK N   1      28.795  16.697  10.367  0.00  0.00    -0.201 OA
HETATM    6  O   UNK N   1      29.665  18.957  10.163  0.00  0.00    -0.201 OA
HETATM    7  C   UNK N   1      30.522  17.114   8.224  0.00  0.00     0.087 A 
HETATM    8  C   UNK N   1      31.683  16.506   8.710  0.00  0.00     0.050 A 
HETATM    9  C   UNK N   1      30.289  17.206   6.843  0.00  0.00    -0.033 A 
HETATM   10  C   UNK N   1      31.244  16.701   5.954  0.00  0.00     0.010 A 
HETATM   11  C   UNK N   1      32.408  16.097   6.436  0.00  0.00     0.025 A 
HETATM   12  C   UNK N   1      32.628  15.992   7.813  0.00  0.00     0.076 A 
HETATM   13  H   UNK N   1      26.869  18.066   8.778  0.00  0.00     0.172 HD
ENDROOT
BRANCH  12  14
HETATM   14  S   UNK N   1      34.048  15.091   8.423  0.00  0.00     0.243 S 
HETATM   15  O   UNK N   1      35.331  15.274   7.598  0.00  0.00    -0.206 OA
HETATM   16  O   UNK N   1      33.809  13.574   8.324  0.00  0.00    -0.206 OA
BRANCH  14  17
HETATM   17  N   UNK N   1      34.459  15.389  10.134  0.00  0.00    -0.203 NA
HETATM   18  C   UNK N   1      35.798  15.973  10.295  0.00  0.00     0.138 C 
HETATM   19  C   UNK N   1      36.894  14.904  10.286  0.00  0.00     0.287 C 
HETATM   20  N   UNK N   1      36.612  13.908  11.313  0.00  0.00     0.086 N 
HETATM   21  C   UNK N   1      37.678  12.924  11.273  0.00  0.00     0.310 C 
HETATM   22  C   UNK N   1      35.376  13.230  10.946  0.00  0.00     0.287 C 
HETATM   23  C   UNK N   1      34.220  14.228  11.003  0.00  0.00     0.138 C 
ENDBRANCH  14  17
ENDBRANCH  12  14
BRANCH   1  24
HETATM   24  C   UNK N   1      26.921  19.121   6.388  0.00  0.00     0.009 C 
HETATM   25  C   UNK N   1      26.538  20.579   6.566  0.00  0.00     0.007 C 
HETATM   26  C   UNK N   1      27.164  21.326   5.402  0.00  0.00     0.000 C 
HETATM   27  C   UNK N   1      27.544  20.286   4.360  0.00  0.00     0.000 C 
HETATM   28  C   UNK N   1      27.052  18.954   4.885  0.00  0.00     0.007 C 
ENDBRANCH   1  24
TORSDOF 3
ENDMDL
MODEL 2
REMARK VINA RESULT:      -7.4      3.892      9.038
REMARK  3 active torsions:
REMARK  status: ('A' for Active; 'I' for Inactive)
REMARK    1  A    between atoms: C_6  and  C_5 
REMARK    2  A    between atoms: C_17  and  S_18 
REMARK    3  A    between atoms: S_18  and  N_21 
ROOT
HETATM    1  C   UNK N   1      35.348  12.349  12.293  0.00  0.00     0.101 C 
HETATM    2  C   UNK N   1      34.924  13.836  12.319  0.00  0.00     0.066 C 
HETATM    3  N   UNK N   1      34.436  11.533  11.482  0.00  0.00    -0.310 N 
HETATM    4  S   UNK N   1      34.442  12.131   9.821  0.00  0.00     0.259 S 
HETATM    5  O   UNK N   1      33.135  11.602   9.213  0.00  0.00    -0.201 OA
HETATM    6  O   UNK N   1      35.549  11.347   9.102  0.00  0.00    -0.201 OA
HETATM    7  C   UNK N   1      34.598  13.899   9.794  0.00  0.00     0.087 A 
HETATM    8  C   UNK N   1      34.428  14.617   8.608  0.00  0.00     0.050 A 
HETATM    9  C   UNK N   1      34.843  14.566  11.004  0.00  0.00    -0.033 A 
HETATM   10  C   UNK N   1      34.938  15.962  11.006  0.00  0.00     0.010 A 
HETATM   11  C   UNK N   1      34.774  16.683   9.822  0.00  0.00     0.025 A 
HETATM   12  C   UNK N   1      34.512  16.015   8.622  0.00  0.00     0.076 A 
HETATM   13  H   UNK N   1      33.886  10.746  11.823  0.00  0.00     0.172 HD
ENDROOT
BRANCH  12  14
HETATM   14  S   UNK N   1      34.160  16.950   7.137  0.00  0.00     0.243 S 
HETATM   15  O   UNK N   1      34.841  16.420   5.865  0.00  0.00    -0.206 OA
HETATM   16  O   UNK N   1      34.735  18.374   7.247  0.00  0.00    -0.206 OA
BRANCH  14  17
HETATM   17  N   UNK N   1      32.428  17.172   6.771  0.00  0.00    -0.203 NA
HETATM   18  C   UNK N   1      31.582  16.174   7.442  0.00  0.00     0.138 C 
HETATM   19  C   UNK N   1      31.512  14.862   6.656  0.00  0.00     0.287 C 
HETATM   20  N   UNK N   1      31.058  15.129   5.297  0.00  0.00     0.086 N 
HETATM   21  C   UNK N   1      30.999  13.861   4.597  0.00  0.00     0.310 C 
HETATM   22  C   UNK N   1      32.073  15.944   4.643  0.00  0.00     0.287 C 
HETATM   23  C   UNK N   1      32.148  17.305   5.334  0.00  0.00     0.138 C 
ENDBRANCH  14  17
ENDBRANCH  12  14
BRANCH   1  24
HETATM   24  C   UNK N   1      35.296  11.822  13.741  0.00  0.00     0.009 C 
HETATM   25  C   UNK N   1      36.406  10.829  14.030  0.00  0.00     0.007 C 
HETATM   26  C   UNK N   1      37.556  11.635  14.606  0.00  0.00     0.000 C 
HETATM   27  C   UNK N   1      36.988  12.981  15.026  0.00  0.00     0.000 C 
HETATM   28  C   UNK N   1      35.496  12.913  14.778  0.00  0.00     0.007 C 
ENDBRANCH   1  24
TORSDOF 3
ENDMDL
MODEL 3
REMARK VINA RESULT:      -7.3      3.671      8.798
REMARK  3 active torsions:
REMARK  status: ('A' for Active; 'I' for Inactive)
REMARK    1  A    between atoms: C_6  and  C_5 
REMARK    2  A    between atoms: C_17  and  S_18 
REMARK    3  A    between atoms: S_18  and  N_21 
ROOT
HETATM    1  C   UNK N   1      35.683  13.201  12.223  0.00  0.00     0.101 C 
HETATM    2  C   UNK N   1      34.815  12.549  11.121  0.00  0.00     0.066 C 
HETATM    3  N   UNK N   1      36.998  13.610  11.713  0.00  0.00    -0.310 N 
HETATM    4  S   UNK N   1      36.779  14.792  10.421  0.00  0.00     0.259 S 
HETATM    5  O   UNK N   1      38.096  14.754   9.632  0.00  0.00    -0.201 OA
HETATM    6  O   UNK N   1      36.781  16.165  11.110  0.00  0.00    -0.201 OA
HETATM    7  C   UNK N   1      35.338  14.407   9.460  0.00  0.00     0.087 A 
HETATM    8  C   UNK N   1      35.071  15.081   8.265  0.00  0.00     0.050 A 
HETATM    9  C   UNK N   1      34.501  13.370   9.898  0.00  0.00    -0.033 A 
HETATM   10  C   UNK N   1      33.378  13.032   9.135  0.00  0.00     0.010 A 
HETATM   11  C   UNK N   1      33.104  13.707   7.943  0.00  0.00     0.025 A 
HETATM   12  C   UNK N   1      33.951  14.727   7.501  0.00  0.00     0.076 A 
HETATM   13  H   UNK N   1      37.896  13.267  12.052  0.00  0.00     0.172 HD
ENDROOT
BRANCH  12  14
HETATM   14  S   UNK N   1      33.676  15.488   5.906  0.00  0.00     0.243 S 
HETATM   15  O   UNK N   1      32.893  14.623   4.906  0.00  0.00    -0.206 OA
HETATM   16  O   UNK N   1      35.012  15.705   5.173  0.00  0.00    -0.206 OA
BRANCH  14  17
HETATM   17  N   UNK N   1      32.902  17.095   5.952  0.00  0.00    -0.203 NA
HETATM   18  C   UNK N   1      33.212  17.830   7.187  0.00  0.00     0.138 C 
HETATM   19  C   UNK N   1      32.290  17.426   8.340  0.00  0.00     0.287 C 
HETATM   20  N   UNK N   1      30.900  17.603   7.940  0.00  0.00     0.086 N 
HETATM   21  C   UNK N   1      30.068  17.218   9.064  0.00  0.00     0.310 C 
HETATM   22  C   UNK N   1      30.628  16.672   6.854  0.00  0.00     0.287 C 
HETATM   23  C   UNK N   1      31.467  17.061   5.637  0.00  0.00     0.138 C 
ENDBRANCH  14  17
ENDBRANCH  12  14
BRANCH   1  24
HETATM   24  C   UNK N   1      35.907  12.147  13.325  0.00  0.00     0.009 C 
HETATM   25  C   UNK N   1      37.070  12.506  14.233  0.00  0.00     0.007 C 
HETATM   26  C   UNK N   1      36.473  13.271  15.401  0.00  0.00     0.000 C 
HETATM   27  C   UNK N   1      34.976  13.004  15.388  0.00  0.00     0.000 C 
HETATM   28  C   UNK N   1      34.726  12.014  14.270  0.00  0.00     0.007 C 
ENDBRANCH   1  24
TORSDOF 3
ENDMDL
MODEL 4
REMARK VINA RESULT:      -7.2     14.251     17.442
REMARK  3 active torsions:
REMARK  status: ('A' for Active; 'I' for Inactive)
REMARK    1  A    between atoms: C_6  and  C_5 
REMARK    2  A    between atoms: C_17  and  S_18 
REMARK    3  A    between atoms: S_18  and  N_21 
ROOT
HETATM    1  C   UNK N   1      32.171  20.584  -5.497  0.00  0.00     0.101 C 
HETATM    2  C   UNK N   1      31.336  21.131  -4.316  0.00  0.00     0.066 C 
HETATM    3  N   UNK N   1      31.348  19.816  -6.440  0.00  0.00    -0.310 N 
HETATM    4  S   UNK N   1      30.089  20.862  -7.099  0.00  0.00     0.259 S 
HETATM    5  O   UNK N   1      29.015  19.897  -7.621  0.00  0.00    -0.201 OA
HETATM    6  O   UNK N   1      30.692  21.490  -8.365  0.00  0.00    -0.201 OA
HETATM    7  C   UNK N   1      29.513  22.000  -5.866  0.00  0.00     0.087 A 
HETATM    8  C   UNK N   1      28.384  22.793  -6.091  0.00  0.00     0.050 A 
HETATM    9  C   UNK N   1      30.184  22.047  -4.635  0.00  0.00    -0.033 A 
HETATM   10  C   UNK N   1      29.724  22.916  -3.639  0.00  0.00     0.010 A 
HETATM   11  C   UNK N   1      28.599  23.714  -3.863  0.00  0.00     0.025 A 
HETATM   12  C   UNK N   1      27.923  23.650  -5.084  0.00  0.00     0.076 A 
HETATM   13  H   UNK N   1      31.482  18.833  -6.677  0.00  0.00     0.172 HD
ENDROOT
BRANCH  12  14
HETATM   14  S   UNK N   1      26.402  24.565  -5.312  0.00  0.00     0.243 S 
HETATM   15  O   UNK N   1      25.623  24.851  -4.019  0.00  0.00    -0.206 OA
HETATM   16  O   UNK N   1      25.391  23.739  -6.127  0.00  0.00    -0.206 OA
BRANCH  14  17
HETATM   17  N   UNK N   1      26.567  26.107  -6.195  0.00  0.00    -0.203 NA
HETATM   18  C   UNK N   1      27.807  26.819  -5.853  0.00  0.00     0.138 C 
HETATM   19  C   UNK N   1      27.658  27.645  -4.572  0.00  0.00     0.287 C 
HETATM   20  N   UNK N   1      26.530  28.558  -4.709  0.00  0.00     0.086 N 
HETATM   21  C   UNK N   1      26.435  29.323  -3.480  0.00  0.00     0.310 C 
HETATM   22  C   UNK N   1      25.320  27.756  -4.821  0.00  0.00     0.287 C 
HETATM   23  C   UNK N   1      25.367  26.953  -6.121  0.00  0.00     0.138 C 
ENDBRANCH  14  17
ENDBRANCH  12  14
BRANCH   1  24
HETATM   24  C   UNK N   1      33.238  19.636  -4.916  0.00  0.00     0.009 C 
HETATM   25  C   UNK N   1      34.409  19.442  -5.862  0.00  0.00     0.007 C 
HETATM   26  C   UNK N   1      35.445  20.481  -5.470  0.00  0.00     0.000 C 
HETATM   27  C   UNK N   1      35.070  20.981  -4.084  0.00  0.00     0.000 C 
HETATM   28  C   UNK N   1      33.874  20.165  -3.643  0.00  0.00     0.007 C 
ENDBRANCH   1  24
TORSDOF 3
ENDMDL
MODEL 5
REMARK VINA RESULT:      -7.2      2.772      3.723
REMARK  3 active torsions:
REMARK  status: ('A' for Active; 'I' for Inactive)
REMARK    1  A    between atoms: C_6  and  C_5 
REMARK    2  A    between atoms: C_17  and  S_18 
REMARK    3  A    between atoms: S_18  and  N_21 
ROOT
HETATM    1  C   UNK N   1      28.562  16.778   4.192  0.00  0.00     0.101 C 
HETATM    2  C   UNK N   1      28.820  17.543   5.511  0.00  0.00     0.066 C 
HETATM    3  N   UNK N   1      29.602  17.047   3.190  0.00  0.00    -0.310 N 
HETATM    4  S   UNK N   1      31.167  16.533   3.822  0.00  0.00     0.259 S 
HETATM    5  O   UNK N   1      32.197  17.304   2.985  0.00  0.00    -0.201 OA
HETATM    6  O   UNK N   1      31.330  15.069   3.385  0.00  0.00    -0.201 OA
HETATM    7  C   UNK N   1      31.266  16.838   5.568  0.00  0.00     0.087 A 
HETATM    8  C   UNK N   1      32.476  16.698   6.253  0.00  0.00     0.050 A 
HETATM    9  C   UNK N   1      30.113  17.276   6.236  0.00  0.00    -0.033 A 
HETATM   10  C   UNK N   1      30.182  17.552   7.606  0.00  0.00     0.010 A 
HETATM   11  C   UNK N   1      31.387  17.409   8.296  0.00  0.00     0.025 A 
HETATM   12  C   UNK N   1      32.538  16.988   7.622  0.00  0.00     0.076 A 
HETATM   13  H   UNK N   1      29.445  17.466   2.274  0.00  0.00     0.172 HD
ENDROOT
BRANCH  12  14
HETATM   14  S   UNK N   1      34.108  16.946   8.478  0.00  0.00     0.243 S 
HETATM   15  O   UNK N   1      34.805  18.308   8.616  0.00  0.00    -0.206 OA
HETATM   16  O   UNK N   1      35.139  16.131   7.677  0.00  0.00    -0.206 OA
BRANCH  14  17
HETATM   17  N   UNK N   1      34.073  16.192  10.096  0.00  0.00    -0.203 NA
HETATM   18  C   UNK N   1      35.278  16.492  10.881  0.00  0.00     0.138 C 
HETATM   19  C   UNK N   1      36.434  15.548  10.539  0.00  0.00     0.287 C 
HETATM   20  N   UNK N   1      36.004  14.166  10.716  0.00  0.00     0.086 N 
HETATM   21  C   UNK N   1      37.130  13.312  10.391  0.00  0.00     0.310 C 
HETATM   22  C   UNK N   1      34.955  13.899   9.741  0.00  0.00     0.287 C 
HETATM   23  C   UNK N   1      33.736  14.761  10.065  0.00  0.00     0.138 C 
ENDBRANCH  14  17
ENDBRANCH  12  14
BRANCH   1  24
HETATM   24  C   UNK N   1      27.216  17.267   3.623  0.00  0.00     0.009 C 
HETATM   25  C   UNK N   1      26.502  16.187   2.832  0.00  0.00     0.007 C 
HETATM   26  C   UNK N   1      25.575  15.488   3.811  0.00  0.00     0.000 C 
HETATM   27  C   UNK N   1      25.445  16.396   5.023  0.00  0.00     0.000 C 
HETATM   28  C   UNK N   1      26.221  17.655   4.702  0.00  0.00     0.007 C 
ENDBRANCH   1  24
TORSDOF 3
ENDMDL
MODEL 6
REMARK VINA RESULT:      -7.1      3.510      9.286
REMARK  3 active torsions:
REMARK  status: ('A' for Active; 'I' for Inactive)
REMARK    1  A    between atoms: C_6  and  C_5 
REMARK    2  A    between atoms: C_17  and  S_18 
REMARK    3  A    between atoms: S_18  and  N_21 
ROOT
HETATM    1  C   UNK N   1      36.857  12.954  13.357  0.00  0.00     0.101 C 
HETATM    2  C   UNK N   1      36.037  14.234  13.067  0.00  0.00     0.066 C 
HETATM    3  N   UNK N   1      36.245  11.764  12.753  0.00  0.00    -0.310 N 
HETATM    4  S   UNK N   1      36.166  11.975  11.002  0.00  0.00     0.259 S 
HETATM    5  O   UNK N   1      35.087  10.985  10.540  0.00  0.00    -0.201 OA
HETATM    6  O   UNK N   1      37.480  11.398  10.455  0.00  0.00    -0.201 OA
HETATM    7  C   UNK N   1      35.830  13.668  10.592  0.00  0.00     0.087 A 
HETATM    8  C   UNK N   1      35.525  14.043   9.281  0.00  0.00     0.050 A 
HETATM    9  C   UNK N   1      35.822  14.617  11.626  0.00  0.00    -0.033 A 
HETATM   10  C   UNK N   1      35.527  15.951  11.325  0.00  0.00     0.010 A 
HETATM   11  C   UNK N   1      35.227  16.331  10.015  0.00  0.00     0.025 A 
HETATM   12  C   UNK N   1      35.219  15.379   8.991  0.00  0.00     0.076 A 
HETATM   13  H   UNK N   1      35.918  10.944  13.263  0.00  0.00     0.172 HD
ENDROOT
BRANCH  12  14
HETATM   14  S   UNK N   1      34.695  15.842   7.345  0.00  0.00     0.243 S 
HETATM   15  O   UNK N   1      35.647  15.410   6.219  0.00  0.00    -0.206 OA
HETATM   16  O   UNK N   1      34.683  17.374   7.192  0.00  0.00    -0.206 OA
BRANCH  14  17
HETATM   17  N   UNK N   1      33.050  15.315   6.893  0.00  0.00    -0.203 NA
HETATM   18  C   UNK N   1      32.337  16.324   6.098  0.00  0.00     0.138 C 
HETATM   19  C   UNK N   1      31.681  17.390   6.981  0.00  0.00     0.287 C 
HETATM   20  N   UNK N   1      30.804  16.748   7.952  0.00  0.00     0.086 N 
HETATM   21  C   UNK N   1      30.201  17.793   8.756  0.00  0.00     0.310 C 
HETATM   22  C   UNK N   1      31.635  15.940   8.834  0.00  0.00     0.287 C 
HETATM   23  C   UNK N   1      32.269  14.806   8.029  0.00  0.00     0.138 C 
ENDBRANCH  14  17
ENDBRANCH  12  14
BRANCH   1  24
HETATM   24  C   UNK N   1      36.882  12.752  14.884  0.00  0.00     0.009 C 
HETATM   25  C   UNK N   1      35.862  13.624  15.595  0.00  0.00     0.007 C 
HETATM   26  C   UNK N   1      34.607  12.781  15.732  0.00  0.00     0.000 C 
HETATM   27  C   UNK N   1      35.014  11.337  15.489  0.00  0.00     0.000 C 
HETATM   28  C   UNK N   1      36.516  11.339  15.303  0.00  0.00     0.007 C 
ENDBRANCH   1  24
TORSDOF 3
ENDMDL
MODEL 7
REMARK VINA RESULT:      -7.0      4.621      9.209
REMARK  3 active torsions:
REMARK  status: ('A' for Active; 'I' for Inactive)
REMARK    1  A    between atoms: C_6  and  C_5 
REMARK    2  A    between atoms: C_17  and  S_18 
REMARK    3  A    between atoms: S_18  and  N_21 
ROOT
HETATM    1  C   UNK N   1      35.943  13.494  13.247  0.00  0.00     0.101 C 
HETATM    2  C   UNK N   1      35.653  12.343  12.256  0.00  0.00     0.066 C 
HETATM    3  N   UNK N   1      36.765  14.547  12.638  0.00  0.00    -0.310 N 
HETATM    4  S   UNK N   1      35.910  15.224  11.251  0.00  0.00     0.259 S 
HETATM    5  O   UNK N   1      37.005  15.891  10.406  0.00  0.00    -0.201 OA
HETATM    6  O   UNK N   1      35.082  16.394  11.804  0.00  0.00    -0.201 OA
HETATM    7  C   UNK N   1      34.998  13.961  10.401  0.00  0.00     0.087 A 
HETATM    8  C   UNK N   1      34.404  14.214   9.162  0.00  0.00     0.050 A 
HETATM    9  C   UNK N   1      34.934  12.683  10.977  0.00  0.00    -0.033 A 
HETATM   10  C   UNK N   1      34.246  11.666  10.304  0.00  0.00     0.010 A 
HETATM   11  C   UNK N   1      33.646  11.916   9.069  0.00  0.00     0.025 A 
HETATM   12  C   UNK N   1      33.729  13.187   8.491  0.00  0.00     0.076 A 
HETATM   13  H   UNK N   1      37.685  14.841  12.964  0.00  0.00     0.172 HD
ENDROOT
BRANCH  12  14
HETATM   14  S   UNK N   1      33.084  13.462   6.845  0.00  0.00     0.243 S 
HETATM   15  O   UNK N   1      31.856  14.383   6.779  0.00  0.00    -0.206 OA
HETATM   16  O   UNK N   1      32.542  12.150   6.250  0.00  0.00    -0.206 OA
BRANCH  14  17
HETATM   17  N   UNK N   1      34.272  14.060   5.653  0.00  0.00    -0.203 NA
HETATM   18  C   UNK N   1      34.544  15.496   5.806  0.00  0.00     0.138 C 
HETATM   19  C   UNK N   1      33.496  16.356   5.095  0.00  0.00     0.287 C 
HETATM   20  N   UNK N   1      33.415  15.968   3.692  0.00  0.00     0.086 N 
HETATM   21  C   UNK N   1      32.421  16.813   3.060  0.00  0.00     0.310 C 
HETATM   22  C   UNK N   1      32.925  14.597   3.639  0.00  0.00     0.287 C 
HETATM   23  C   UNK N   1      33.959  13.668   4.271  0.00  0.00     0.138 C 
ENDBRANCH  14  17
ENDBRANCH  12  14
BRANCH   1  24
HETATM   24  C   UNK N   1      36.730  12.903  14.433  0.00  0.00     0.009 C 
HETATM   25  C   UNK N   1      36.756  13.839  15.627  0.00  0.00     0.007 C 
HETATM   26  C   UNK N   1      35.581  13.442  16.503  0.00  0.00     0.000 C 
HETATM   27  C   UNK N   1      35.137  12.060  16.049  0.00  0.00     0.000 C 
HETATM   28  C   UNK N   1      36.114  11.626  14.977  0.00  0.00     0.007 C 
ENDBRANCH   1  24
TORSDOF 3
ENDMDL
MODEL 8
REMARK VINA RESULT:      -7.0     13.557     15.270
REMARK  3 active torsions:
REMARK  status: ('A' for Active; 'I' for Inactive)
REMARK    1  A    between atoms: C_6  and  C_5 
REMARK    2  A    between atoms: C_17  and  S_18 
REMARK    3  A    between atoms: S_18  and  N_21 
ROOT
HETATM    1  C   UNK N   1      27.271  27.051  -4.447  0.00  0.00     0.101 C 
HETATM    2  C   UNK N   1      28.753  26.938  -4.875  0.00  0.00     0.066 C 
HETATM    3  N   UNK N   1      26.465  25.940  -4.969  0.00  0.00    -0.310 N 
HETATM    4  S   UNK N   1      27.099  24.416  -4.343  0.00  0.00     0.259 S 
HETATM    5  O   UNK N   1      26.571  23.348  -5.312  0.00  0.00    -0.201 OA
HETATM    6  O   UNK N   1      26.341  24.158  -3.033  0.00  0.00    -0.201 OA
HETATM    7  C   UNK N   1      28.868  24.480  -4.218  0.00  0.00     0.087 A 
HETATM    8  C   UNK N   1      29.610  23.330  -3.938  0.00  0.00     0.050 A 
HETATM    9  C   UNK N   1      29.511  25.703  -4.463  0.00  0.00    -0.033 A 
HETATM   10  C   UNK N   1      30.907  25.764  -4.400  0.00  0.00     0.010 A 
HETATM   11  C   UNK N   1      31.653  24.618  -4.114  0.00  0.00     0.025 A 
HETATM   12  C   UNK N   1      31.008  23.398  -3.889  0.00  0.00     0.076 A 
HETATM   13  H   UNK N   1      25.665  26.033  -5.594  0.00  0.00     0.172 HD
ENDROOT
BRANCH  12  14
HETATM   14  S   UNK N   1      31.972  21.907  -3.667  0.00  0.00     0.243 S 
HETATM   15  O   UNK N   1      31.286  20.619  -4.146  0.00  0.00    -0.206 OA
HETATM   16  O   UNK N   1      32.192  21.623  -2.171  0.00  0.00    -0.206 OA
BRANCH  14  17
HETATM   17  N   UNK N   1      33.608  21.945  -4.381  0.00  0.00    -0.203 NA
HETATM   18  C   UNK N   1      33.584  22.252  -5.818  0.00  0.00     0.138 C 
HETATM   19  C   UNK N   1      33.315  21.004  -6.665  0.00  0.00     0.287 C 
HETATM   20  N   UNK N   1      34.300  19.977  -6.347  0.00  0.00     0.086 N 
HETATM   21  C   UNK N   1      34.011  18.823  -7.177  0.00  0.00     0.310 C 
HETATM   22  C   UNK N   1      34.096  19.581  -4.960  0.00  0.00     0.287 C 
HETATM   23  C   UNK N   1      34.417  20.765  -4.048  0.00  0.00     0.138 C 
ENDBRANCH  14  17
ENDBRANCH  12  14
BRANCH   1  24
HETATM   24  C   UNK N   1      26.713  28.360  -5.036  0.00  0.00     0.009 C 
HETATM   25  C   UNK N   1      25.924  29.158  -4.014  0.00  0.00     0.007 C 
HETATM   26  C   UNK N   1      26.908  30.128  -3.383  0.00  0.00     0.000 C 
HETATM   27  C   UNK N   1      28.123  30.182  -4.295  0.00  0.00     0.000 C 
HETATM   28  C   UNK N   1      27.799  29.317  -5.494  0.00  0.00     0.007 C 
ENDBRANCH   1  24
TORSDOF 3
ENDMDL
MODEL 9
REMARK VINA RESULT:      -6.8      6.545     10.902
REMARK  3 active torsions:
REMARK  status: ('A' for Active; 'I' for Inactive)
REMARK    1  A    between atoms: C_6  and  C_5 
REMARK    2  A    between atoms: C_17  and  S_18 
REMARK    3  A    between atoms: S_18  and  N_21 
ROOT
HETATM    1  C   UNK N   1      36.159  10.661  16.106  0.00  0.00     0.101 C 
HETATM    2  C   UNK N   1      37.162  10.604  14.930  0.00  0.00     0.066 C 
HETATM    3  N   UNK N   1      36.149  11.978  16.754  0.00  0.00    -0.310 N 
HETATM    4  S   UNK N   1      35.678  13.204  15.575  0.00  0.00     0.259 S 
HETATM    5  O   UNK N   1      36.193  14.526  16.162  0.00  0.00    -0.201 OA
HETATM    6  O   UNK N   1      34.149  13.307  15.673  0.00  0.00    -0.201 OA
HETATM    7  C   UNK N   1      36.330  12.812  13.972  0.00  0.00     0.087 A 
HETATM    8  C   UNK N   1      36.258  13.733  12.923  0.00  0.00     0.050 A 
HETATM    9  C   UNK N   1      36.969  11.576  13.795  0.00  0.00    -0.033 A 
HETATM   10  C   UNK N   1      37.517  11.264  12.546  0.00  0.00     0.010 A 
HETATM   11  C   UNK N   1      37.443  12.179  11.493  0.00  0.00     0.025 A 
HETATM   12  C   UNK N   1      36.820  13.417  11.680  0.00  0.00     0.076 A 
HETATM   13  H   UNK N   1      36.379  12.157  17.731  0.00  0.00     0.172 HD
ENDROOT
BRANCH  12  14
HETATM   14  S   UNK N   1      36.856  14.639  10.374  0.00  0.00     0.243 S 
HETATM   15  O   UNK N   1      38.183  14.722   9.605  0.00  0.00    -0.206 OA
HETATM   16  O   UNK N   1      36.727  16.057  10.958  0.00  0.00    -0.206 OA
BRANCH  14  17
HETATM   17  N   UNK N   1      35.542  14.507   9.172  0.00  0.00    -0.203 NA
HETATM   18  C   UNK N   1      34.348  13.847   9.718  0.00  0.00     0.138 C 
HETATM   19  C   UNK N   1      34.463  12.321   9.663  0.00  0.00     0.287 C 
HETATM   20  N   UNK N   1      34.735  11.900   8.294  0.00  0.00     0.086 N 
HETATM   21  C   UNK N   1      34.825  10.453   8.291  0.00  0.00     0.310 C 
HETATM   22  C   UNK N   1      36.043  12.422   7.921  0.00  0.00     0.287 C 
HETATM   23  C   UNK N   1      35.983  13.949   7.886  0.00  0.00     0.138 C 
ENDBRANCH  14  17
ENDBRANCH  12  14
BRANCH   1  24
HETATM   24  C   UNK N   1      36.604   9.620  17.151  0.00  0.00     0.009 C 
HETATM   25  C   UNK N   1      36.452  10.132  18.571  0.00  0.00     0.007 C 
HETATM   26  C   UNK N   1      35.080   9.680  19.039  0.00  0.00     0.000 C 
HETATM   27  C   UNK N   1      34.621   8.591  18.083  0.00  0.00     0.000 C 
HETATM   28  C   UNK N   1      35.767   8.353  17.122  0.00  0.00     0.007 C 
ENDBRANCH   1  24
TORSDOF 3
ENDMDL
