MODEL 1
REMARK VINA RESULT:      -8.3      0.000      0.000
REMARK  3 active torsions:
REMARK  status: ('A' for Active; 'I' for Inactive)
REMARK    1  A    between atoms: C_6  and  C_5 
REMARK    2  A    between atoms: S_19  and  C_18 
REMARK    3  A    between atoms: S_19  and  N_22 
ROOT
HETATM    1  C   UNK N   1      27.689  18.017   6.645  0.00  0.00     0.101 C 
HETATM    2  C   UNK N   1      28.999  17.770   5.834  0.00  0.00     0.066 C 
HETATM    3  N   UNK N   1      27.916  18.850   7.828  0.00  0.00    -0.310 N 
HETATM    4  S   UNK N   1      28.996  17.975   8.903  0.00  0.00     0.259 S 
HETATM    5  O   UNK N   1      28.141  16.883   9.562  0.00  0.00    -0.201 OA
HETATM    6  O   UNK N   1      29.318  18.969  10.028  0.00  0.00    -0.201 OA
HETATM    7  C   UNK N   1      30.382  17.429   7.961  0.00  0.00     0.087 A 
HETATM    8  C   UNK N   1      31.578  17.132   8.596  0.00  0.00     0.051 A 
HETATM    9  C   UNK N   1      30.271  17.375   6.565  0.00  0.00    -0.032 A 
HETATM   10  C   UNK N   1      31.405  17.001   5.817  0.00  0.00     0.017 A 
HETATM   11  C   UNK N   1      32.617  16.693   6.455  0.00  0.00    -0.039 A 
HETATM   12  C   UNK N   1      33.793  16.311   5.621  0.00  0.00     0.050 C 
HETATM   13  C   UNK N   1      32.708  16.763   7.862  0.00  0.00     0.082 A 
HETATM   14  H   UNK N   1      27.518  19.775   7.998  0.00  0.00     0.172 HD
ENDROOT
BRANCH  13  15
HETATM   15  S   UNK N   1      34.208  16.427   8.801  0.00  0.00     0.244 S 
HETATM   16  O   UNK N   1      35.218  15.609   7.979  0.00  0.00    -0.206 OA
HETATM   17  O   UNK N   1      34.979  17.751   8.934  0.00  0.00    -0.206 OA
BRANCH  15  18
HETATM   18  N   UNK N   1      34.225  15.725  10.444  0.00  0.00    -0.203 NA
HETATM   19  C   UNK N   1      34.302  14.256  10.326  0.00  0.00     0.138 C 
HETATM   20  C   UNK N   1      35.064  13.611  11.496  0.00  0.00     0.287 C 
HETATM   21  N   UNK N   1      36.435  14.129  11.642  0.00  0.00     0.086 N 
HETATM   22  C   UNK N   1      36.621  15.460  11.054  0.00  0.00     0.287 C 
HETATM   23  C   UNK N   1      37.343  13.219  10.965  0.00  0.00     0.310 C 
HETATM   24  C   UNK N   1      35.351  16.299  11.206  0.00  0.00     0.138 C 
ENDBRANCH  15  18
ENDBRANCH  13  15
BRANCH   1  25
HETATM   25  C   UNK N   1      26.690  18.750   5.730  0.00  0.00     0.009 C 
HETATM   26  C   UNK N   1      27.205  18.927   4.310  0.00  0.00     0.007 C 
HETATM   27  C   UNK N   1      27.866  20.289   4.257  0.00  0.00     0.000 C 
HETATM   28  C   UNK N   1      27.388  21.056   5.477  0.00  0.00     0.000 C 
HETATM   29  C   UNK N   1      26.397  20.162   6.200  0.00  0.00     0.007 C 
ENDBRANCH   1  25
TORSDOF 3
ENDMDL
MODEL 2
REMARK VINA RESULT:      -8.3     12.966     16.599
REMARK  3 active torsions:
REMARK  status: ('A' for Active; 'I' for Inactive)
REMARK    1  A    between atoms: C_6  and  C_5 
REMARK    2  A    between atoms: S_19  and  C_18 
REMARK    3  A    between atoms: S_19  and  N_22 
ROOT
HETATM    1  C   UNK N   1      32.073  21.029  -4.797  0.00  0.00     0.101 C 
HETATM    2  C   UNK N   1      30.815  21.011  -5.721  0.00  0.00     0.066 C 
HETATM    3  N   UNK N   1      31.723  21.210  -3.386  0.00  0.00    -0.310 N 
HETATM    4  S   UNK N   1      30.973  22.789  -3.216  0.00  0.00     0.259 S 
HETATM    5  O   UNK N   1      32.118  23.811  -3.293  0.00  0.00    -0.201 OA
HETATM    6  O   UNK N   1      30.487  22.839  -1.760  0.00  0.00    -0.201 OA
HETATM    7  C   UNK N   1      29.709  22.930  -4.437  0.00  0.00     0.087 A 
HETATM    8  C   UNK N   1      28.671  23.832  -4.259  0.00  0.00     0.051 A 
HETATM    9  C   UNK N   1      29.735  22.065  -5.539  0.00  0.00    -0.032 A 
HETATM   10  C   UNK N   1      28.685  22.139  -6.474  0.00  0.00     0.017 A 
HETATM   11  C   UNK N   1      27.635  23.056  -6.304  0.00  0.00    -0.039 A 
HETATM   12  C   UNK N   1      26.539  23.092  -7.315  0.00  0.00     0.050 C 
HETATM   13  C   UNK N   1      27.623  23.911  -5.181  0.00  0.00     0.082 A 
HETATM   14  H   UNK N   1      31.886  20.538  -2.635  0.00  0.00     0.172 HD
ENDROOT
BRANCH  13  15
HETATM   15  S   UNK N   1      26.323  25.106  -4.826  0.00  0.00     0.244 S 
HETATM   16  O   UNK N   1      24.940  24.572  -5.233  0.00  0.00    -0.206 OA
HETATM   17  O   UNK N   1      26.150  25.163  -3.299  0.00  0.00    -0.206 OA
BRANCH  15  18
HETATM   18  N   UNK N   1      26.366  26.816  -5.342  0.00  0.00    -0.203 NA
HETATM   19  C   UNK N   1      25.637  27.624  -4.346  0.00  0.00     0.138 C 
HETATM   20  C   UNK N   1      26.207  29.048  -4.214  0.00  0.00     0.287 C 
HETATM   21  N   UNK N   1      27.635  29.061  -3.856  0.00  0.00     0.086 N 
HETATM   22  C   UNK N   1      28.340  27.825  -4.216  0.00  0.00     0.287 C 
HETATM   23  C   UNK N   1      27.745  29.225  -2.417  0.00  0.00     0.310 C 
HETATM   24  C   UNK N   1      27.770  27.238  -5.509  0.00  0.00     0.138 C 
ENDBRANCH  15  18
ENDBRANCH  13  15
BRANCH   1  25
HETATM   25  C   UNK N   1      32.791  19.674  -4.939  0.00  0.00     0.009 C 
HETATM   26  C   UNK N   1      33.906  19.484  -3.923  0.00  0.00     0.007 C 
HETATM   27  C   UNK N   1      35.184  19.946  -4.593  0.00  0.00     0.000 C 
HETATM   28  C   UNK N   1      34.899  20.007  -6.084  0.00  0.00     0.000 C 
HETATM   29  C   UNK N   1      33.477  19.515  -6.282  0.00  0.00     0.007 C 
ENDBRANCH   1  25
TORSDOF 3
ENDMDL
MODEL 3
REMARK VINA RESULT:      -8.2      4.414      9.370
REMARK  3 active torsions:
REMARK  status: ('A' for Active; 'I' for Inactive)
REMARK    1  A    between atoms: C_6  and  C_5 
REMARK    2  A    between atoms: S_19  and  C_18 
REMARK    3  A    between atoms: S_19  and  N_22 
ROOT
HETATM    1  C   UNK N   1      36.337  12.912  12.444  0.00  0.00     0.101 C 
HETATM    2  C   UNK N   1      35.067  13.767  12.144  0.00  0.00     0.066 C 
HETATM    3  N   UNK N   1      37.553  13.505  11.882  0.00  0.00    -0.310 N 
HETATM    4  S   UNK N   1      37.382  13.525  10.133  0.00  0.00     0.259 S 
HETATM    5  O   UNK N   1      37.607  12.078   9.670  0.00  0.00    -0.201 OA
HETATM    6  O   UNK N   1      38.605  14.304   9.629  0.00  0.00    -0.201 OA
HETATM    7  C   UNK N   1      35.819  14.242   9.744  0.00  0.00     0.087 A 
HETATM    8  C   UNK N   1      35.606  14.802   8.493  0.00  0.00     0.051 A 
HETATM    9  C   UNK N   1      34.836  14.301  10.740  0.00  0.00    -0.032 A 
HETATM   10  C   UNK N   1      33.615  14.936  10.440  0.00  0.00     0.017 A 
HETATM   11  C   UNK N   1      33.390  15.498   9.173  0.00  0.00    -0.039 A 
HETATM   12  C   UNK N   1      32.086  16.168   8.903  0.00  0.00     0.050 C 
HETATM   13  C   UNK N   1      34.399  15.436   8.187  0.00  0.00     0.082 A 
HETATM   14  H   UNK N   1      38.356  13.845  12.411  0.00  0.00     0.172 HD
ENDROOT
BRANCH  13  15
HETATM   15  S   UNK N   1      34.254  16.145   6.538  0.00  0.00     0.244 S 
HETATM   16  O   UNK N   1      34.493  17.664   6.553  0.00  0.00    -0.206 OA
HETATM   17  O   UNK N   1      35.478  15.688   5.727  0.00  0.00    -0.206 OA
BRANCH  15  18
HETATM   18  N   UNK N   1      32.862  15.875   5.450  0.00  0.00    -0.203 NA
HETATM   19  C   UNK N   1      33.263  16.239   4.078  0.00  0.00     0.138 C 
HETATM   20  C   UNK N   1      32.543  15.395   3.011  0.00  0.00     0.287 C 
HETATM   21  N   UNK N   1      32.763  13.948   3.183  0.00  0.00     0.086 N 
HETATM   22  C   UNK N   1      33.128  13.571   4.553  0.00  0.00     0.287 C 
HETATM   23  C   UNK N   1      33.852  13.544   2.311  0.00  0.00     0.310 C 
HETATM   24  C   UNK N   1      32.420  14.472   5.567  0.00  0.00     0.138 C 
ENDBRANCH  15  18
ENDBRANCH  13  15
BRANCH   1  25
HETATM   25  C   UNK N   1      36.510  12.830  13.972  0.00  0.00     0.009 C 
HETATM   26  C   UNK N   1      37.069  11.494  14.436  0.00  0.00     0.007 C 
HETATM   27  C   UNK N   1      35.878  10.624  14.778  0.00  0.00     0.000 C 
HETATM   28  C   UNK N   1      34.682  11.550  14.913  0.00  0.00     0.000 C 
HETATM   29  C   UNK N   1      35.195  12.965  14.717  0.00  0.00     0.007 C 
ENDBRANCH   1  25
TORSDOF 3
ENDMDL
MODEL 4
REMARK VINA RESULT:      -8.1      1.973      2.726
REMARK  3 active torsions:
REMARK  status: ('A' for Active; 'I' for Inactive)
REMARK    1  A    between atoms: C_6  and  C_5 
REMARK    2  A    between atoms: S_19  and  C_18 
REMARK    3  A    between atoms: S_19  and  N_22 
ROOT
HETATM    1  C   UNK N   1      26.936  17.660   5.034  0.00  0.00     0.101 C 
HETATM    2  C   UNK N   1      28.286  17.568   4.256  0.00  0.00     0.066 C 
HETATM    3  N   UNK N   1      27.022  18.550   6.194  0.00  0.00    -0.310 N 
HETATM    4  S   UNK N   1      28.184  17.860   7.316  0.00  0.00     0.259 S 
HETATM    5  O   UNK N   1      27.467  16.682   7.994  0.00  0.00    -0.201 OA
HETATM    6  O   UNK N   1      28.344  18.920   8.416  0.00  0.00    -0.201 OA
HETATM    7  C   UNK N   1      29.652  17.478   6.419  0.00  0.00     0.087 A 
HETATM    8  C   UNK N   1      30.863  17.363   7.086  0.00  0.00     0.051 A 
HETATM    9  C   UNK N   1      29.582  17.369   5.024  0.00  0.00    -0.032 A 
HETATM   10  C   UNK N   1      30.772  17.130   4.310  0.00  0.00     0.017 A 
HETATM   11  C   UNK N   1      32.000  17.006   4.980  0.00  0.00    -0.039 A 
HETATM   12  C   UNK N   1      33.236  16.762   4.182  0.00  0.00     0.050 C 
HETATM   13  C   UNK N   1      32.048  17.129   6.386  0.00  0.00     0.082 A 
HETATM   14  H   UNK N   1      26.500  19.417   6.326  0.00  0.00     0.172 HD
ENDROOT
BRANCH  13  15
HETATM   15  S   UNK N   1      33.557  17.025   7.364  0.00  0.00     0.244 S 
HETATM   16  O   UNK N   1      34.550  18.137   6.990  0.00  0.00    -0.206 OA
HETATM   17  O   UNK N   1      33.209  17.447   8.801  0.00  0.00    -0.206 OA
BRANCH  15  18
HETATM   18  N   UNK N   1      34.529  15.537   7.551  0.00  0.00    -0.203 NA
HETATM   19  C   UNK N   1      35.506  15.749   8.636  0.00  0.00     0.138 C 
HETATM   20  C   UNK N   1      35.832  14.452   9.397  0.00  0.00     0.287 C 
HETATM   21  N   UNK N   1      34.638  13.813   9.976  0.00  0.00     0.086 N 
HETATM   22  C   UNK N   1      33.390  14.187   9.302  0.00  0.00     0.287 C 
HETATM   23  C   UNK N   1      34.528  14.224  11.365  0.00  0.00     0.310 C 
HETATM   24  C   UNK N   1      33.627  14.397   7.805  0.00  0.00     0.138 C 
ENDBRANCH  15  18
ENDBRANCH  13  15
BRANCH   1  25
HETATM   25  C   UNK N   1      25.870  18.226   4.077  0.00  0.00     0.009 C 
HETATM   26  C   UNK N   1      24.722  18.909   4.805  0.00  0.00     0.007 C 
HETATM   27  C   UNK N   1      23.642  17.862   4.985  0.00  0.00     0.000 C 
HETATM   28  C   UNK N   1      23.967  16.727   4.030  0.00  0.00     0.000 C 
HETATM   29  C   UNK N   1      25.198  17.148   3.248  0.00  0.00     0.007 C 
ENDBRANCH   1  25
TORSDOF 3
ENDMDL
MODEL 5
REMARK VINA RESULT:      -7.9      3.943      9.668
REMARK  3 active torsions:
REMARK  status: ('A' for Active; 'I' for Inactive)
REMARK    1  A    between atoms: C_6  and  C_5 
REMARK    2  A    between atoms: S_19  and  C_18 
REMARK    3  A    between atoms: S_19  and  N_22 
ROOT
HETATM    1  C   UNK N   1      35.828  12.569  13.697  0.00  0.00     0.101 C 
HETATM    2  C   UNK N   1      35.800  14.018  13.119  0.00  0.00     0.066 C 
HETATM    3  N   UNK N   1      36.413  11.607  12.760  0.00  0.00    -0.310 N 
HETATM    4  S   UNK N   1      35.379  11.544  11.340  0.00  0.00     0.259 S 
HETATM    5  O   UNK N   1      34.144  10.729  11.753  0.00  0.00    -0.201 OA
HETATM    6  O   UNK N   1      36.135  10.654  10.344  0.00  0.00    -0.201 OA
HETATM    7  C   UNK N   1      35.087  13.197  10.802  0.00  0.00     0.087 A 
HETATM    8  C   UNK N   1      34.712  13.442   9.489  0.00  0.00     0.051 A 
HETATM    9  C   UNK N   1      35.313  14.250  11.698  0.00  0.00    -0.032 A 
HETATM   10  C   UNK N   1      35.142  15.570  11.238  0.00  0.00     0.017 A 
HETATM   11  C   UNK N   1      34.756  15.825   9.912  0.00  0.00    -0.039 A 
HETATM   12  C   UNK N   1      34.595  17.239   9.467  0.00  0.00     0.050 C 
HETATM   13  C   UNK N   1      34.543  14.749   9.023  0.00  0.00     0.082 A 
HETATM   14  H   UNK N   1      37.268  11.070  12.905  0.00  0.00     0.172 HD
ENDROOT
BRANCH  13  15
HETATM   15  S   UNK N   1      34.080  14.936   7.293  0.00  0.00     0.244 S 
HETATM   16  O   UNK N   1      35.139  15.726   6.507  0.00  0.00    -0.206 OA
HETATM   17  O   UNK N   1      34.219  13.559   6.624  0.00  0.00    -0.206 OA
BRANCH  15  18
HETATM   18  N   UNK N   1      32.495  15.551   6.741  0.00  0.00    -0.203 NA
HETATM   19  C   UNK N   1      32.683  16.911   6.200  0.00  0.00     0.138 C 
HETATM   20  C   UNK N   1      31.696  17.234   5.065  0.00  0.00     0.287 C 
HETATM   21  N   UNK N   1      31.781  16.281   3.944  0.00  0.00     0.086 N 
HETATM   22  C   UNK N   1      32.341  14.980   4.325  0.00  0.00     0.287 C 
HETATM   23  C   UNK N   1      32.646  16.851   2.925  0.00  0.00     0.310 C 
HETATM   24  C   UNK N   1      31.929  14.613   5.752  0.00  0.00     0.138 C 
ENDBRANCH  15  18
ENDBRANCH  13  15
BRANCH   1  25
HETATM   25  C   UNK N   1      36.694  12.579  14.971  0.00  0.00     0.009 C 
HETATM   26  C   UNK N   1      36.415  11.397  15.887  0.00  0.00     0.007 C 
HETATM   27  C   UNK N   1      35.381  11.865  16.891  0.00  0.00     0.000 C 
HETATM   28  C   UNK N   1      35.366  13.382  16.830  0.00  0.00     0.000 C 
HETATM   29  C   UNK N   1      36.440  13.795  15.841  0.00  0.00     0.007 C 
ENDBRANCH   1  25
TORSDOF 3
ENDMDL
MODEL 6
REMARK VINA RESULT:      -7.7      3.516      4.782
REMARK  3 active torsions:
REMARK  status: ('A' for Active; 'I' for Inactive)
REMARK    1  A    between atoms: C_6  and  C_5 
REMARK    2  A    between atoms: S_19  and  C_18 
REMARK    3  A    between atoms: S_19  and  N_22 
ROOT
HETATM    1  C   UNK N   1      31.795  16.628   5.864  0.00  0.00     0.101 C 
HETATM    2  C   UNK N   1      32.098  15.147   6.253  0.00  0.00     0.066 C 
HETATM    3  N   UNK N   1      32.974  17.488   5.988  0.00  0.00    -0.310 N 
HETATM    4  S   UNK N   1      33.442  17.517   7.681  0.00  0.00     0.259 S 
HETATM    5  O   UNK N   1      32.426  18.430   8.384  0.00  0.00    -0.201 OA
HETATM    6  O   UNK N   1      34.767  18.293   7.709  0.00  0.00    -0.201 OA
HETATM    7  C   UNK N   1      33.532  15.852   8.253  0.00  0.00     0.087 A 
HETATM    8  C   UNK N   1      34.299  15.542   9.366  0.00  0.00     0.051 A 
HETATM    9  C   UNK N   1      32.881  14.850   7.522  0.00  0.00    -0.032 A 
HETATM   10  C   UNK N   1      33.014  13.515   7.948  0.00  0.00     0.017 A 
HETATM   11  C   UNK N   1      33.784  13.195   9.079  0.00  0.00    -0.039 A 
HETATM   12  C   UNK N   1      33.904  11.766   9.488  0.00  0.00     0.050 C 
HETATM   13  C   UNK N   1      34.439  14.220   9.795  0.00  0.00     0.082 A 
HETATM   14  H   UNK N   1      33.440  17.983   5.227  0.00  0.00     0.172 HD
ENDROOT
BRANCH  13  15
HETATM   15  S   UNK N   1      35.481  13.945  11.238  0.00  0.00     0.244 S 
HETATM   16  O   UNK N   1      36.705  13.079  10.894  0.00  0.00    -0.206 OA
HETATM   17  O   UNK N   1      36.178  15.276  11.568  0.00  0.00    -0.206 OA
BRANCH  15  18
HETATM   18  N   UNK N   1      34.879  13.346  12.810  0.00  0.00    -0.203 NA
HETATM   19  C   UNK N   1      34.932  11.872  12.802  0.00  0.00     0.138 C 
HETATM   20  C   UNK N   1      35.196  11.284  14.199  0.00  0.00     0.287 C 
HETATM   21  N   UNK N   1      36.444  11.783  14.802  0.00  0.00     0.086 N 
HETATM   22  C   UNK N   1      36.884  13.070  14.255  0.00  0.00     0.287 C 
HETATM   23  C   UNK N   1      37.495  10.813  14.545  0.00  0.00     0.310 C 
HETATM   24  C   UNK N   1      35.680  13.943  13.896  0.00  0.00     0.138 C 
ENDBRANCH  15  18
ENDBRANCH  13  15
BRANCH   1  25
HETATM   25  C   UNK N   1      31.341  16.652   4.392  0.00  0.00     0.009 C 
HETATM   26  C   UNK N   1      31.177  15.262   3.798  0.00  0.00     0.007 C 
HETATM   27  C   UNK N   1      32.491  14.924   3.124  0.00  0.00     0.000 C 
HETATM   28  C   UNK N   1      33.250  16.230   2.963  0.00  0.00     0.000 C 
HETATM   29  C   UNK N   1      32.346  17.333   3.482  0.00  0.00     0.007 C 
ENDBRANCH   1  25
TORSDOF 3
ENDMDL
MODEL 7
REMARK VINA RESULT:      -7.7      2.811      8.627
REMARK  3 active torsions:
REMARK  status: ('A' for Active; 'I' for Inactive)
REMARK    1  A    between atoms: C_6  and  C_5 
REMARK    2  A    between atoms: S_19  and  C_18 
REMARK    3  A    between atoms: S_19  and  N_22 
ROOT
HETATM    1  C   UNK N   1      34.021  15.674   8.101  0.00  0.00     0.101 C 
HETATM    2  C   UNK N   1      32.771  16.132   8.915  0.00  0.00     0.066 C 
HETATM    3  N   UNK N   1      34.399  16.644   7.070  0.00  0.00    -0.310 N 
HETATM    4  S   UNK N   1      33.078  16.745   5.916  0.00  0.00     0.259 S 
HETATM    5  O   UNK N   1      33.164  15.470   5.064  0.00  0.00    -0.201 OA
HETATM    6  O   UNK N   1      33.469  17.889   4.971  0.00  0.00    -0.201 OA
HETATM    7  C   UNK N   1      31.582  16.990   6.817  0.00  0.00     0.087 A 
HETATM    8  C   UNK N   1      30.481  17.554   6.190  0.00  0.00     0.051 A 
HETATM    9  C   UNK N   1      31.556  16.677   8.182  0.00  0.00    -0.032 A 
HETATM   10  C   UNK N   1      30.378  16.940   8.907  0.00  0.00     0.017 A 
HETATM   11  C   UNK N   1      29.257  17.504   8.277  0.00  0.00    -0.039 A 
HETATM   12  C   UNK N   1      28.034  17.772   9.087  0.00  0.00     0.050 C 
HETATM   13  C   UNK N   1      29.308  17.821   6.903  0.00  0.00     0.082 A 
HETATM   14  H   UNK N   1      35.274  17.168   7.029  0.00  0.00     0.172 HD
ENDROOT
BRANCH  13  15
HETATM   15  S   UNK N   1      27.958  18.577   5.982  0.00  0.00     0.244 S 
HETATM   16  O   UNK N   1      27.443  19.848   6.677  0.00  0.00    -0.206 OA
HETATM   17  O   UNK N   1      28.554  19.191   4.704  0.00  0.00    -0.206 OA
BRANCH  15  18
HETATM   18  N   UNK N   1      26.506  17.694   5.426  0.00  0.00    -0.203 NA
HETATM   19  C   UNK N   1      26.354  17.910   3.975  0.00  0.00     0.138 C 
HETATM   20  C   UNK N   1      25.711  16.706   3.265  0.00  0.00     0.287 C 
HETATM   21  N   UNK N   1      26.464  15.456   3.464  0.00  0.00     0.086 N 
HETATM   22  C   UNK N   1      27.306  15.466   4.666  0.00  0.00     0.287 C 
HETATM   23  C   UNK N   1      27.337  15.261   2.319  0.00  0.00     0.310 C 
HETATM   24  C   UNK N   1      26.638  16.269   5.784  0.00  0.00     0.138 C 
ENDBRANCH  15  18
ENDBRANCH  13  15
BRANCH   1  25
HETATM   25  C   UNK N   1      35.203  15.533   9.078  0.00  0.00     0.009 C 
HETATM   26  C   UNK N   1      36.111  14.359   8.745  0.00  0.00     0.007 C 
HETATM   27  C   UNK N   1      35.618  13.186   9.568  0.00  0.00     0.000 C 
HETATM   28  C   UNK N   1      34.725  13.758  10.655  0.00  0.00     0.000 C 
HETATM   29  C   UNK N   1      34.755  15.268  10.503  0.00  0.00     0.007 C 
ENDBRANCH   1  25
TORSDOF 3
ENDMDL
MODEL 8
REMARK VINA RESULT:      -7.4     15.824     17.207
REMARK  3 active torsions:
REMARK  status: ('A' for Active; 'I' for Inactive)
REMARK    1  A    between atoms: C_6  and  C_5 
REMARK    2  A    between atoms: S_19  and  C_18 
REMARK    3  A    between atoms: S_19  and  N_22 
ROOT
HETATM    1  C   UNK N   1      26.241  24.895  -6.235  0.00  0.00     0.101 C 
HETATM    2  C   UNK N   1      27.349  24.024  -5.565  0.00  0.00     0.066 C 
HETATM    3  N   UNK N   1      25.299  24.091  -7.017  0.00  0.00    -0.310 N 
HETATM    4  S   UNK N   1      26.193  23.345  -8.333  0.00  0.00     0.259 S 
HETATM    5  O   UNK N   1      26.440  24.460  -9.361  0.00  0.00    -0.201 OA
HETATM    6  O   UNK N   1      25.188  22.396  -9.002  0.00  0.00    -0.201 OA
HETATM    7  C   UNK N   1      27.623  22.570  -7.654  0.00  0.00     0.087 A 
HETATM    8  C   UNK N   1      28.249  21.543  -8.345  0.00  0.00     0.051 A 
HETATM    9  C   UNK N   1      28.061  22.958  -6.381  0.00  0.00    -0.032 A 
HETATM   10  C   UNK N   1      29.164  22.287  -5.819  0.00  0.00     0.017 A 
HETATM   11  C   UNK N   1      29.807  21.251  -6.516  0.00  0.00    -0.039 A 
HETATM   12  C   UNK N   1      30.965  20.563  -5.876  0.00  0.00     0.050 C 
HETATM   13  C   UNK N   1      29.342  20.870  -7.793  0.00  0.00     0.082 A 
HETATM   14  H   UNK N   1      24.301  23.984  -6.832  0.00  0.00     0.172 HD
ENDROOT
BRANCH  13  15
HETATM   15  S   UNK N   1      30.052  19.539  -8.777  0.00  0.00     0.244 S 
HETATM   16  O   UNK N   1      29.733  18.160  -8.177  0.00  0.00    -0.206 OA
HETATM   17  O   UNK N   1      29.251  19.454 -10.088  0.00  0.00    -0.206 OA
BRANCH  15  18
HETATM   18  N   UNK N   1      31.763  19.473  -9.287  0.00  0.00    -0.203 NA
HETATM   19  C   UNK N   1      32.524  18.714  -8.277  0.00  0.00     0.138 C 
HETATM   20  C   UNK N   1      33.709  17.945  -8.887  0.00  0.00     0.287 C 
HETATM   21  N   UNK N   1      33.298  17.009  -9.947  0.00  0.00     0.086 N 
HETATM   22  C   UNK N   1      32.017  17.358 -10.571  0.00  0.00     0.287 C 
HETATM   23  C   UNK N   1      33.154  15.688  -9.360  0.00  0.00     0.310 C 
HETATM   24  C   UNK N   1      31.846  18.877 -10.634  0.00  0.00     0.138 C 
ENDBRANCH  15  18
ENDBRANCH  13  15
BRANCH   1  25
HETATM   25  C   UNK N   1      25.450  25.605  -5.121  0.00  0.00     0.009 C 
HETATM   26  C   UNK N   1      24.866  26.937  -5.562  0.00  0.00     0.007 C 
HETATM   27  C   UNK N   1      25.875  28.000  -5.175  0.00  0.00     0.000 C 
HETATM   28  C   UNK N   1      26.817  27.362  -4.168  0.00  0.00     0.000 C 
HETATM   29  C   UNK N   1      26.312  25.952  -3.922  0.00  0.00     0.007 C 
ENDBRANCH   1  25
TORSDOF 3
ENDMDL
MODEL 9
REMARK VINA RESULT:      -7.3      4.176      7.235
REMARK  3 active torsions:
REMARK  status: ('A' for Active; 'I' for Inactive)
REMARK    1  A    between atoms: C_6  and  C_5 
REMARK    2  A    between atoms: S_19  and  C_18 
REMARK    3  A    between atoms: S_19  and  N_22 
ROOT
HETATM    1  C   UNK N   1      33.846  14.884   8.192  0.00  0.00     0.101 C 
HETATM    2  C   UNK N   1      33.673  13.358   8.471  0.00  0.00     0.066 C 
HETATM    3  N   UNK N   1      35.227  15.332   8.388  0.00  0.00    -0.310 N 
HETATM    4  S   UNK N   1      35.633  15.098  10.081  0.00  0.00     0.259 S 
HETATM    5  O   UNK N   1      34.923  16.227  10.844  0.00  0.00    -0.201 OA
HETATM    6  O   UNK N   1      37.130  15.427  10.175  0.00  0.00    -0.201 OA
HETATM    7  C   UNK N   1      35.194  13.450  10.527  0.00  0.00     0.087 A 
HETATM    8  C   UNK N   1      35.798  12.843  11.619  0.00  0.00     0.051 A 
HETATM    9  C   UNK N   1      34.291  12.749   9.718  0.00  0.00    -0.032 A 
HETATM   10  C   UNK N   1      33.998  11.410  10.045  0.00  0.00     0.017 A 
HETATM   11  C   UNK N   1      34.601  10.792  11.152  0.00  0.00    -0.039 A 
HETATM   12  C   UNK N   1      34.268   9.370  11.454  0.00  0.00     0.050 C 
HETATM   13  C   UNK N   1      35.516  11.515  11.948  0.00  0.00     0.082 A 
HETATM   14  H   UNK N   1      35.844  15.712   7.669  0.00  0.00     0.172 HD
ENDROOT
BRANCH  13  15
HETATM   15  S   UNK N   1      36.383  10.834  13.372  0.00  0.00     0.244 S 
HETATM   16  O   UNK N   1      37.223   9.605  12.988  0.00  0.00    -0.206 OA
HETATM   17  O   UNK N   1      37.503  11.819  13.748  0.00  0.00    -0.206 OA
BRANCH  15  18
HETATM   18  N   UNK N   1      35.596  10.430  14.925  0.00  0.00    -0.203 NA
HETATM   19  C   UNK N   1      36.495  10.828  16.024  0.00  0.00     0.138 C 
HETATM   20  C   UNK N   1      35.727  11.259  17.286  0.00  0.00     0.287 C 
HETATM   21  N   UNK N   1      34.792  12.369  17.036  0.00  0.00     0.086 N 
HETATM   22  C   UNK N   1      34.378  12.479  15.633  0.00  0.00     0.287 C 
HETATM   23  C   UNK N   1      35.451  13.612  17.399  0.00  0.00     0.310 C 
HETATM   24  C   UNK N   1      34.280  11.095  14.990  0.00  0.00     0.138 C 
ENDBRANCH  15  18
ENDBRANCH  13  15
BRANCH   1  25
HETATM   25  C   UNK N   1      33.464  15.149   6.724  0.00  0.00     0.009 C 
HETATM   26  C   UNK N   1      34.250  16.292   6.103  0.00  0.00     0.007 C 
HETATM   27  C   UNK N   1      33.411  17.541   6.282  0.00  0.00     0.000 C 
HETATM   28  C   UNK N   1      32.004  17.078   6.617  0.00  0.00     0.000 C 
HETATM   29  C   UNK N   1      32.013  15.561   6.563  0.00  0.00     0.007 C 
ENDBRANCH   1  25
TORSDOF 3
ENDMDL
