MODEL 1
REMARK VINA RESULT:      -6.7      0.000      0.000
REMARK  6 active torsions:
REMARK  status: ('A' for Active; 'I' for Inactive)
REMARK    1  A    between atoms: N_1  and  C_2 
REMARK    2  A    between atoms: N_1  and  S_9 
REMARK    3  A    between atoms: C_6  and  N_8 
REMARK    4  A    between atoms: S_9  and  C_10 
REMARK    5  A    between atoms: C_13  and  C_16 
REMARK    6  A    between atoms: C_16  and  O_18 
ROOT
HETATM    1  S   UNK N   1      28.751  17.892   8.151  0.00  0.00     0.264 S 
HETATM    2  O   UNK N   1      27.864  17.561   9.359  0.00  0.00    -0.200 OA
HETATM    3  O   UNK N   1      29.471  19.174   8.600  0.00  0.00    -0.200 OA
ENDROOT
BRANCH   1   4
HETATM    4  N   UNK N   1      29.994  16.658   8.184  0.00  0.00    -0.281 N 
HETATM    5  H   UNK N   1      29.816  15.782   8.596  0.00  0.00     0.179 HD
BRANCH   4   6
HETATM    6  C   UNK N   1      31.249  16.933   7.614  0.00  0.00     0.045 A 
HETATM    7  C   UNK N   1      31.394  16.954   6.225  0.00  0.00     0.030 A 
HETATM    8  C   UNK N   1      32.613  17.329   5.657  0.00  0.00     0.005 A 
HETATM    9  C   UNK N   1      33.681  17.701   6.479  0.00  0.00     0.036 A 
HETATM   10  C   UNK N   1      33.540  17.689   7.876  0.00  0.00     0.105 A 
HETATM   11  C   UNK N   1      32.314  17.305   8.437  0.00  0.00     0.066 A 
BRANCH  10  12
HETATM   12  N   UNK N   1      34.619  18.087   8.711  0.00  0.00    -0.116 N 
HETATM   13  O   UNK N   1      35.275  19.201   8.459  0.00  0.00    -0.532 OA
HETATM   14  O   UNK N   1      34.924  17.428   9.659  0.00  0.00    -0.532 OA
ENDBRANCH  10  12
ENDBRANCH   4   6
ENDBRANCH   1   4
BRANCH   1  15
HETATM   15  C   UNK N   1      27.935  18.102   6.566  0.00  0.00     0.104 A 
HETATM   16  C   UNK N   1      27.272  19.256   6.114  0.00  0.00     0.101 A 
HETATM   17  S   UNK N   1      26.725  18.909   4.590  0.00  0.00    -0.094 SA
HETATM   18  C   UNK N   1      27.276  17.353   4.418  0.00  0.00     0.052 A 
HETATM   19  C   UNK N   1      27.936  17.044   5.613  0.00  0.00     0.034 A 
BRANCH  16  20
HETATM   20  C   UNK N   1      27.067  20.558   6.784  0.00  0.00     0.184 C 
HETATM   21  O   UNK N   1      27.569  21.577   6.345  0.00  0.00    -0.646 OA
BRANCH  20  22
HETATM   22  O   UNK N   1      26.305  20.625   7.891  0.00  0.00    -0.772 OA
HETATM   23  H   UNK N   1      25.403  20.368   7.876  0.00  0.00     0.167 HD
ENDBRANCH  20  22
ENDBRANCH  16  20
ENDBRANCH   1  15
TORSDOF 6
ENDMDL
MODEL 2
REMARK VINA RESULT:      -6.7      3.237      7.173
REMARK  6 active torsions:
REMARK  status: ('A' for Active; 'I' for Inactive)
REMARK    1  A    between atoms: N_1  and  C_2 
REMARK    2  A    between atoms: N_1  and  S_9 
REMARK    3  A    between atoms: C_6  and  N_8 
REMARK    4  A    between atoms: S_9  and  C_10 
REMARK    5  A    between atoms: C_13  and  C_16 
REMARK    6  A    between atoms: C_16  and  O_18 
ROOT
HETATM    1  S   UNK N   1      34.564  17.303   8.626  0.00  0.00     0.264 S 
HETATM    2  O   UNK N   1      34.681  18.194   7.382  0.00  0.00    -0.200 OA
HETATM    3  O   UNK N   1      35.530  17.974   9.616  0.00  0.00    -0.200 OA
ENDROOT
BRANCH   1   4
HETATM    4  N   UNK N   1      32.969  17.663   9.259  0.00  0.00    -0.281 N 
HETATM    5  H   UNK N   1      32.858  17.954  10.192  0.00  0.00     0.179 HD
BRANCH   4   6
HETATM    6  C   UNK N   1      31.852  17.534   8.417  0.00  0.00     0.045 A 
HETATM    7  C   UNK N   1      31.934  16.746   7.267  0.00  0.00     0.030 A 
HETATM    8  C   UNK N   1      30.795  16.532   6.486  0.00  0.00     0.005 A 
HETATM    9  C   UNK N   1      29.572  17.091   6.867  0.00  0.00     0.036 A 
HETATM   10  C   UNK N   1      29.481  17.878   8.026  0.00  0.00     0.105 A 
HETATM   11  C   UNK N   1      30.631  18.093   8.799  0.00  0.00     0.066 A 
BRANCH  10  12
HETATM   12  N   UNK N   1      28.233  18.430   8.425  0.00  0.00    -0.116 N 
HETATM   13  O   UNK N   1      27.712  19.438   7.757  0.00  0.00    -0.532 OA
HETATM   14  O   UNK N   1      27.639  17.970   9.353  0.00  0.00    -0.532 OA
ENDBRANCH  10  12
ENDBRANCH   4   6
ENDBRANCH   1   4
BRANCH   1  15
HETATM   15  C   UNK N   1      34.919  15.555   8.423  0.00  0.00     0.104 A 
HETATM   16  C   UNK N   1      34.764  14.553   9.396  0.00  0.00     0.101 A 
HETATM   17  S   UNK N   1      35.218  13.134   8.674  0.00  0.00    -0.094 SA
HETATM   18  C   UNK N   1      35.611  13.678   7.157  0.00  0.00     0.052 A 
HETATM   19  C   UNK N   1      35.391  15.060   7.174  0.00  0.00     0.034 A 
BRANCH  16  20
HETATM   20  C   UNK N   1      34.289  14.650  10.792  0.00  0.00     0.184 C 
HETATM   21  O   UNK N   1      35.015  14.357  11.725  0.00  0.00    -0.646 OA
BRANCH  20  22
HETATM   22  O   UNK N   1      33.038  15.078  11.042  0.00  0.00    -0.772 OA
HETATM   23  H   UNK N   1      32.296  14.679  10.631  0.00  0.00     0.167 HD
ENDBRANCH  20  22
ENDBRANCH  16  20
ENDBRANCH   1  15
TORSDOF 6
ENDMDL
MODEL 3
REMARK VINA RESULT:      -6.5      9.378     11.153
REMARK  6 active torsions:
REMARK  status: ('A' for Active; 'I' for Inactive)
REMARK    1  A    between atoms: N_1  and  C_2 
REMARK    2  A    between atoms: N_1  and  S_9 
REMARK    3  A    between atoms: C_6  and  N_8 
REMARK    4  A    between atoms: S_9  and  C_10 
REMARK    5  A    between atoms: C_13  and  C_16 
REMARK    6  A    between atoms: C_16  and  O_18 
ROOT
HETATM    1  S   UNK N   1      21.450  17.166   6.122  0.00  0.00     0.264 S 
HETATM    2  O   UNK N   1      22.662  17.170   5.181  0.00  0.00    -0.200 OA
HETATM    3  O   UNK N   1      21.487  18.578   6.730  0.00  0.00    -0.200 OA
ENDROOT
BRANCH   1   4
HETATM    4  N   UNK N   1      20.071  17.192   5.042  0.00  0.00    -0.281 N 
HETATM    5  H   UNK N   1      19.162  17.047   5.390  0.00  0.00     0.179 HD
BRANCH   4   6
HETATM    6  C   UNK N   1      20.277  17.423   3.671  0.00  0.00     0.045 A 
HETATM    7  C   UNK N   1      20.051  16.398   2.750  0.00  0.00     0.030 A 
HETATM    8  C   UNK N   1      20.155  16.656   1.381  0.00  0.00     0.005 A 
HETATM    9  C   UNK N   1      20.466  17.944   0.935  0.00  0.00     0.036 A 
HETATM   10  C   UNK N   1      20.687  18.980   1.855  0.00  0.00     0.105 A 
HETATM   11  C   UNK N   1      20.587  18.710   3.227  0.00  0.00     0.066 A 
BRANCH  10  12
HETATM   12  N   UNK N   1      20.983  20.294   1.401  0.00  0.00    -0.116 N 
HETATM   13  O   UNK N   1      21.037  20.552   0.110  0.00  0.00    -0.532 OA
HETATM   14  O   UNK N   1      21.161  21.178   2.184  0.00  0.00    -0.532 OA
ENDBRANCH  10  12
ENDBRANCH   4   6
ENDBRANCH   1   4
BRANCH   1  15
HETATM   15  C   UNK N   1      21.396  15.894   7.387  0.00  0.00     0.104 A 
HETATM   16  C   UNK N   1      20.519  15.845   8.485  0.00  0.00     0.101 A 
HETATM   17  S   UNK N   1      20.892  14.459   9.312  0.00  0.00    -0.094 SA
HETATM   18  C   UNK N   1      22.122  13.865   8.370  0.00  0.00     0.052 A 
HETATM   19  C   UNK N   1      22.287  14.785   7.327  0.00  0.00     0.034 A 
BRANCH  16  20
HETATM   20  C   UNK N   1      19.449  16.780   8.889  0.00  0.00     0.184 C 
HETATM   21  O   UNK N   1      18.300  16.399   9.025  0.00  0.00    -0.646 OA
BRANCH  20  22
HETATM   22  O   UNK N   1      19.745  18.072   9.121  0.00  0.00    -0.772 OA
HETATM   23  H   UNK N   1      20.366  18.530   8.590  0.00  0.00     0.167 HD
ENDBRANCH  20  22
ENDBRANCH  16  20
ENDBRANCH   1  15
TORSDOF 6
ENDMDL
MODEL 4
REMARK VINA RESULT:      -6.5      3.718      7.378
REMARK  6 active torsions:
REMARK  status: ('A' for Active; 'I' for Inactive)
REMARK    1  A    between atoms: N_1  and  C_2 
REMARK    2  A    between atoms: N_1  and  S_9 
REMARK    3  A    between atoms: C_6  and  N_8 
REMARK    4  A    between atoms: S_9  and  C_10 
REMARK    5  A    between atoms: C_13  and  C_16 
REMARK    6  A    between atoms: C_16  and  O_18 
ROOT
HETATM    1  S   UNK N   1      27.724  17.364   6.189  0.00  0.00     0.264 S 
HETATM    2  O   UNK N   1      26.628  16.425   6.709  0.00  0.00    -0.200 OA
HETATM    3  O   UNK N   1      27.744  17.061   4.682  0.00  0.00    -0.200 OA
ENDROOT
BRANCH   1   4
HETATM    4  N   UNK N   1      27.007  18.960   6.305  0.00  0.00    -0.281 N 
HETATM    5  H   UNK N   1      27.080  19.479   7.138  0.00  0.00     0.179 HD
BRANCH   4   6
HETATM    6  C   UNK N   1      26.328  19.489   5.194  0.00  0.00     0.045 A 
HETATM    7  C   UNK N   1      27.030  20.220   4.233  0.00  0.00     0.030 A 
HETATM    8  C   UNK N   1      26.378  20.657   3.078  0.00  0.00     0.005 A 
HETATM    9  C   UNK N   1      25.030  20.346   2.876  0.00  0.00     0.036 A 
HETATM   10  C   UNK N   1      24.321  19.605   3.835  0.00  0.00     0.105 A 
HETATM   11  C   UNK N   1      24.982  19.176   4.995  0.00  0.00     0.066 A 
BRANCH  10  12
HETATM   12  N   UNK N   1      22.956  19.270   3.621  0.00  0.00    -0.116 N 
HETATM   13  O   UNK N   1      22.085  20.210   3.316  0.00  0.00    -0.532 OA
HETATM   14  O   UNK N   1      22.594  18.135   3.692  0.00  0.00    -0.532 OA
ENDBRANCH  10  12
ENDBRANCH   4   6
ENDBRANCH   1   4
BRANCH   1  15
HETATM   15  C   UNK N   1      29.354  17.213   6.925  0.00  0.00     0.104 A 
HETATM   16  C   UNK N   1      29.719  17.583   8.231  0.00  0.00     0.101 A 
HETATM   17  S   UNK N   1      31.325  17.213   8.385  0.00  0.00    -0.094 SA
HETATM   18  C   UNK N   1      31.637  16.586   6.881  0.00  0.00     0.052 A 
HETATM   19  C   UNK N   1      30.429  16.655   6.177  0.00  0.00     0.034 A 
BRANCH  16  20
HETATM   20  C   UNK N   1      28.904  18.173   9.314  0.00  0.00     0.184 C 
HETATM   21  O   UNK N   1      29.421  18.801  10.220  0.00  0.00    -0.646 OA
BRANCH  20  22
HETATM   22  O   UNK N   1      27.566  18.025   9.297  0.00  0.00    -0.772 OA
HETATM   23  H   UNK N   1      27.018  18.617   8.820  0.00  0.00     0.167 HD
ENDBRANCH  20  22
ENDBRANCH  16  20
ENDBRANCH   1  15
TORSDOF 6
ENDMDL
MODEL 5
REMARK VINA RESULT:      -6.4      1.403      2.287
REMARK  6 active torsions:
REMARK  status: ('A' for Active; 'I' for Inactive)
REMARK    1  A    between atoms: N_1  and  C_2 
REMARK    2  A    between atoms: N_1  and  S_9 
REMARK    3  A    between atoms: C_6  and  N_8 
REMARK    4  A    between atoms: S_9  and  C_10 
REMARK    5  A    between atoms: C_13  and  C_16 
REMARK    6  A    between atoms: C_16  and  O_18 
ROOT
HETATM    1  S   UNK N   1      28.766  18.013   8.386  0.00  0.00     0.264 S 
HETATM    2  O   UNK N   1      27.851  17.508   9.509  0.00  0.00    -0.200 OA
HETATM    3  O   UNK N   1      29.595  19.101   9.087  0.00  0.00    -0.200 OA
ENDROOT
BRANCH   1   4
HETATM    4  N   UNK N   1      29.896  16.698   8.132  0.00  0.00    -0.281 N 
HETATM    5  H   UNK N   1      29.653  15.777   8.382  0.00  0.00     0.179 HD
BRANCH   4   6
HETATM    6  C   UNK N   1      31.153  16.972   7.568  0.00  0.00     0.045 A 
HETATM    7  C   UNK N   1      31.299  17.017   6.179  0.00  0.00     0.030 A 
HETATM    8  C   UNK N   1      32.522  17.392   5.619  0.00  0.00     0.005 A 
HETATM    9  C   UNK N   1      33.593  17.740   6.448  0.00  0.00     0.036 A 
HETATM   10  C   UNK N   1      33.451  17.704   7.844  0.00  0.00     0.105 A 
HETATM   11  C   UNK N   1      32.222  17.320   8.397  0.00  0.00     0.066 A 
BRANCH  10  12
HETATM   12  N   UNK N   1      34.533  18.077   8.686  0.00  0.00    -0.116 N 
HETATM   13  O   UNK N   1      35.239  19.156   8.418  0.00  0.00    -0.532 OA
HETATM   14  O   UNK N   1      34.796  17.430   9.655  0.00  0.00    -0.532 OA
ENDBRANCH  10  12
ENDBRANCH   4   6
ENDBRANCH   1   4
BRANCH   1  15
HETATM   15  C   UNK N   1      27.977  18.629   6.896  0.00  0.00     0.104 A 
HETATM   16  C   UNK N   1      27.329  17.858   5.914  0.00  0.00     0.101 A 
HETATM   17  S   UNK N   1      26.773  18.928   4.780  0.00  0.00    -0.094 SA
HETATM   18  C   UNK N   1      27.288  20.362   5.437  0.00  0.00     0.052 A 
HETATM   19  C   UNK N   1      27.949  20.026   6.624  0.00  0.00     0.034 A 
BRANCH  16  20
HETATM   20  C   UNK N   1      27.126  16.397   5.835  0.00  0.00     0.184 C 
HETATM   21  O   UNK N   1      26.013  15.910   5.935  0.00  0.00    -0.646 OA
BRANCH  20  22
HETATM   22  O   UNK N   1      28.182  15.587   5.639  0.00  0.00    -0.772 OA
HETATM   23  H   UNK N   1      28.996  15.920   5.315  0.00  0.00     0.167 HD
ENDBRANCH  20  22
ENDBRANCH  16  20
ENDBRANCH   1  15
TORSDOF 6
ENDMDL
MODEL 6
REMARK VINA RESULT:      -6.4     12.224     14.771
REMARK  6 active torsions:
REMARK  status: ('A' for Active; 'I' for Inactive)
REMARK    1  A    between atoms: N_1  and  C_2 
REMARK    2  A    between atoms: N_1  and  S_9 
REMARK    3  A    between atoms: C_6  and  N_8 
REMARK    4  A    between atoms: S_9  and  C_10 
REMARK    5  A    between atoms: C_13  and  C_16 
REMARK    6  A    between atoms: C_16  and  O_18 
ROOT
HETATM    1  S   UNK N   1      28.660  23.734  -5.579  0.00  0.00     0.264 S 
HETATM    2  O   UNK N   1      27.850  23.438  -6.848  0.00  0.00    -0.200 OA
HETATM    3  O   UNK N   1      29.406  25.027  -5.947  0.00  0.00    -0.200 OA
ENDROOT
BRANCH   1   4
HETATM    4  N   UNK N   1      27.454  24.242  -4.413  0.00  0.00    -0.281 N 
HETATM    5  H   UNK N   1      27.278  23.699  -3.611  0.00  0.00     0.179 HD
BRANCH   4   6
HETATM    6  C   UNK N   1      26.742  25.433  -4.636  0.00  0.00     0.045 A 
HETATM    7  C   UNK N   1      25.649  25.439  -5.504  0.00  0.00     0.030 A 
HETATM    8  C   UNK N   1      24.879  26.595  -5.647  0.00  0.00     0.005 A 
HETATM    9  C   UNK N   1      25.191  27.738  -4.905  0.00  0.00     0.036 A 
HETATM   10  C   UNK N   1      26.285  27.736  -4.025  0.00  0.00     0.105 A 
HETATM   11  C   UNK N   1      27.056  26.573  -3.894  0.00  0.00     0.066 A 
BRANCH  10  12
HETATM   12  N   UNK N   1      26.591  28.892  -3.256  0.00  0.00    -0.116 N 
HETATM   13  O   UNK N   1      27.237  28.776  -2.115  0.00  0.00    -0.532 OA
HETATM   14  O   UNK N   1      26.284  29.977  -3.649  0.00  0.00    -0.532 OA
ENDBRANCH  10  12
ENDBRANCH   4   6
ENDBRANCH   1   4
BRANCH   1  15
HETATM   15  C   UNK N   1      29.779  22.455  -5.001  0.00  0.00     0.104 A 
HETATM   16  C   UNK N   1      30.458  22.434  -3.771  0.00  0.00     0.101 A 
HETATM   17  S   UNK N   1      31.334  21.028  -3.751  0.00  0.00    -0.094 SA
HETATM   18  C   UNK N   1      30.917  20.391  -5.225  0.00  0.00     0.052 A 
HETATM   19  C   UNK N   1      30.038  21.311  -5.808  0.00  0.00     0.034 A 
BRANCH  16  20
HETATM   20  C   UNK N   1      30.445  23.409  -2.661  0.00  0.00     0.184 C 
HETATM   21  O   UNK N   1      30.458  23.041  -1.500  0.00  0.00    -0.646 OA
BRANCH  20  22
HETATM   22  O   UNK N   1      30.429  24.727  -2.932  0.00  0.00    -0.772 OA
HETATM   23  H   UNK N   1      29.995  25.061  -3.693  0.00  0.00     0.167 HD
ENDBRANCH  20  22
ENDBRANCH  16  20
ENDBRANCH   1  15
TORSDOF 6
ENDMDL
MODEL 7
REMARK VINA RESULT:      -6.4      4.152      7.132
REMARK  6 active torsions:
REMARK  status: ('A' for Active; 'I' for Inactive)
REMARK    1  A    between atoms: N_1  and  C_2 
REMARK    2  A    between atoms: N_1  and  S_9 
REMARK    3  A    between atoms: C_6  and  N_8 
REMARK    4  A    between atoms: S_9  and  C_10 
REMARK    5  A    between atoms: C_13  and  C_16 
REMARK    6  A    between atoms: C_16  and  O_18 
ROOT
HETATM    1  S   UNK N   1      34.347  17.292   8.385  0.00  0.00     0.264 S 
HETATM    2  O   UNK N   1      34.356  18.051   7.052  0.00  0.00    -0.200 OA
HETATM    3  O   UNK N   1      35.251  18.159   9.276  0.00  0.00    -0.200 OA
ENDROOT
BRANCH   1   4
HETATM    4  N   UNK N   1      32.732  17.555   9.013  0.00  0.00    -0.281 N 
HETATM    5  H   UNK N   1      32.603  17.952   9.905  0.00  0.00     0.179 HD
BRANCH   4   6
HETATM    6  C   UNK N   1      31.623  17.192   8.230  0.00  0.00     0.045 A 
HETATM    7  C   UNK N   1      30.473  17.984   8.241  0.00  0.00     0.030 A 
HETATM    8  C   UNK N   1      29.411  17.683   7.385  0.00  0.00     0.005 A 
HETATM    9  C   UNK N   1      29.510  16.601   6.504  0.00  0.00     0.036 A 
HETATM   10  C   UNK N   1      30.666  15.806   6.483  0.00  0.00     0.105 A 
HETATM   11  C   UNK N   1      31.723  16.112   7.351  0.00  0.00     0.066 A 
BRANCH  10  12
HETATM   12  N   UNK N   1      30.774  14.719   5.573  0.00  0.00    -0.116 N 
HETATM   13  O   UNK N   1      31.331  13.589   5.956  0.00  0.00    -0.532 OA
HETATM   14  O   UNK N   1      30.340  14.814   4.465  0.00  0.00    -0.532 OA
ENDBRANCH  10  12
ENDBRANCH   4   6
ENDBRANCH   1   4
BRANCH   1  15
HETATM   15  C   UNK N   1      34.878  15.577   8.360  0.00  0.00     0.104 A 
HETATM   16  C   UNK N   1      34.798  14.662   9.423  0.00  0.00     0.101 A 
HETATM   17  S   UNK N   1      35.408  13.233   8.851  0.00  0.00    -0.094 SA
HETATM   18  C   UNK N   1      35.785  13.667   7.294  0.00  0.00     0.052 A 
HETATM   19  C   UNK N   1      35.428  15.015   7.173  0.00  0.00     0.034 A 
BRANCH  16  20
HETATM   20  C   UNK N   1      34.280  14.844  10.795  0.00  0.00     0.184 C 
HETATM   21  O   UNK N   1      35.026  14.813  11.758  0.00  0.00    -0.646 OA
BRANCH  20  22
HETATM   22  O   UNK N   1      32.966  15.058  10.989  0.00  0.00    -0.772 OA
HETATM   23  H   UNK N   1      32.632  15.295  11.833  0.00  0.00     0.167 HD
ENDBRANCH  20  22
ENDBRANCH  16  20
ENDBRANCH   1  15
TORSDOF 6
ENDMDL
MODEL 8
REMARK VINA RESULT:      -6.4      5.722      8.019
REMARK  6 active torsions:
REMARK  status: ('A' for Active; 'I' for Inactive)
REMARK    1  A    between atoms: N_1  and  C_2 
REMARK    2  A    between atoms: N_1  and  S_9 
REMARK    3  A    between atoms: C_6  and  N_8 
REMARK    4  A    between atoms: S_9  and  C_10 
REMARK    5  A    between atoms: C_13  and  C_16 
REMARK    6  A    between atoms: C_16  and  O_18 
ROOT
HETATM    1  S   UNK N   1      35.088  15.720  10.348  0.00  0.00     0.264 S 
HETATM    2  O   UNK N   1      33.963  15.139  11.215  0.00  0.00    -0.200 OA
HETATM    3  O   UNK N   1      35.212  17.160  10.873  0.00  0.00    -0.200 OA
ENDROOT
BRANCH   1   4
HETATM    4  N   UNK N   1      36.532  14.916  10.930  0.00  0.00    -0.281 N 
HETATM    5  H   UNK N   1      37.401  15.079  10.499  0.00  0.00     0.179 HD
BRANCH   4   6
HETATM    6  C   UNK N   1      36.435  14.036  12.022  0.00  0.00     0.045 A 
HETATM    7  C   UNK N   1      36.383  12.658  11.802  0.00  0.00     0.030 A 
HETATM    8  C   UNK N   1      36.392  11.779  12.888  0.00  0.00     0.005 A 
HETATM    9  C   UNK N   1      36.472  12.279  14.191  0.00  0.00     0.036 A 
HETATM   10  C   UNK N   1      36.532  13.663  14.418  0.00  0.00     0.105 A 
HETATM   11  C   UNK N   1      36.516  14.538  13.322  0.00  0.00     0.066 A 
BRANCH  10  12
HETATM   12  N   UNK N   1      36.634  14.171  15.742  0.00  0.00    -0.116 N 
HETATM   13  O   UNK N   1      35.834  13.722  16.686  0.00  0.00    -0.532 OA
HETATM   14  O   UNK N   1      37.460  14.990  16.012  0.00  0.00    -0.532 OA
ENDBRANCH  10  12
ENDBRANCH   4   6
ENDBRANCH   1   4
BRANCH   1  15
HETATM   15  C   UNK N   1      34.862  15.673   8.568  0.00  0.00     0.104 A 
HETATM   16  C   UNK N   1      34.435  16.735   7.752  0.00  0.00     0.101 A 
HETATM   17  S   UNK N   1      34.419  16.149   6.203  0.00  0.00    -0.094 SA
HETATM   18  C   UNK N   1      34.934  14.593   6.462  0.00  0.00     0.052 A 
HETATM   19  C   UNK N   1      35.141  14.480   7.841  0.00  0.00     0.034 A 
BRANCH  16  20
HETATM   20  C   UNK N   1      34.069  18.120   8.110  0.00  0.00     0.184 C 
HETATM   21  O   UNK N   1      32.903  18.465   8.181  0.00  0.00    -0.646 OA
BRANCH  20  22
HETATM   22  O   UNK N   1      35.036  19.018   8.375  0.00  0.00    -0.772 OA
HETATM   23  H   UNK N   1      34.884  19.938   8.277  0.00  0.00     0.167 HD
ENDBRANCH  20  22
ENDBRANCH  16  20
ENDBRANCH   1  15
TORSDOF 6
ENDMDL
MODEL 9
REMARK VINA RESULT:      -6.3      8.404     11.120
REMARK  6 active torsions:
REMARK  status: ('A' for Active; 'I' for Inactive)
REMARK    1  A    between atoms: N_1  and  C_2 
REMARK    2  A    between atoms: N_1  and  S_9 
REMARK    3  A    between atoms: C_6  and  N_8 
REMARK    4  A    between atoms: S_9  and  C_10 
REMARK    5  A    between atoms: C_13  and  C_16 
REMARK    6  A    between atoms: C_16  and  O_18 
ROOT
HETATM    1  S   UNK N   1      36.221  13.746  13.108  0.00  0.00     0.264 S 
HETATM    2  O   UNK N   1      34.736  13.418  13.311  0.00  0.00    -0.200 OA
HETATM    3  O   UNK N   1      36.330  15.179  13.653  0.00  0.00    -0.200 OA
ENDROOT
BRANCH   1   4
HETATM    4  N   UNK N   1      37.042  12.760  14.302  0.00  0.00    -0.281 N 
HETATM    5  H   UNK N   1      37.983  12.504  14.173  0.00  0.00     0.179 HD
BRANCH   4   6
HETATM    6  C   UNK N   1      36.341  12.341  15.445  0.00  0.00     0.045 A 
HETATM    7  C   UNK N   1      36.033  10.989  15.616  0.00  0.00     0.030 A 
HETATM    8  C   UNK N   1      35.429  10.557  16.799  0.00  0.00     0.005 A 
HETATM    9  C   UNK N   1      35.151  11.475  17.817  0.00  0.00     0.036 A 
HETATM   10  C   UNK N   1      35.465  12.833  17.654  0.00  0.00     0.105 A 
HETATM   11  C   UNK N   1      36.064  13.258  16.460  0.00  0.00     0.066 A 
BRANCH  10  12
HETATM   12  N   UNK N   1      35.200  13.762  18.697  0.00  0.00    -0.116 N 
HETATM   13  O   UNK N   1      35.331  15.055  18.480  0.00  0.00    -0.532 OA
HETATM   14  O   UNK N   1      34.837  13.380  19.768  0.00  0.00    -0.532 OA
ENDBRANCH  10  12
ENDBRANCH   4   6
ENDBRANCH   1   4
BRANCH   1  15
HETATM   15  C   UNK N   1      36.872  13.613  11.440  0.00  0.00     0.104 A 
HETATM   16  C   UNK N   1      36.621  14.492  10.373  0.00  0.00     0.101 A 
HETATM   17  S   UNK N   1      37.479  13.909   9.082  0.00  0.00    -0.094 SA
HETATM   18  C   UNK N   1      38.191  12.577   9.769  0.00  0.00     0.052 A 
HETATM   19  C   UNK N   1      37.751  12.547  11.097  0.00  0.00     0.034 A 
BRANCH  16  20
HETATM   20  C   UNK N   1      35.790  15.713  10.324  0.00  0.00     0.184 C 
HETATM   21  O   UNK N   1      36.272  16.811  10.542  0.00  0.00    -0.646 OA
BRANCH  20  22
HETATM   22  O   UNK N   1      34.482  15.618  10.022  0.00  0.00    -0.772 OA
HETATM   23  H   UNK N   1      33.917  15.035  10.491  0.00  0.00     0.167 HD
ENDBRANCH  20  22
ENDBRANCH  16  20
ENDBRANCH   1  15
TORSDOF 6
ENDMDL
