MODEL 1
REMARK VINA RESULT:      -7.8      0.000      0.000
REMARK  4 active torsions:
REMARK  status: ('A' for Active; 'I' for Inactive)
REMARK    1  A    between atoms: C_9  and  O_10 
REMARK    2  A    between atoms: C_9  and  C_11 
REMARK    3  A    between atoms: C_14  and  C_15 
REMARK    4  A    between atoms: C_20  and  N_21 
ROOT
HETATM    1  C   UNK N   1      33.658  15.653   8.634  0.00  0.00     0.031 A 
HETATM    2  C   UNK N   1      32.879  14.873   7.768  0.00  0.00     0.017 A 
HETATM    3  C   UNK N   1      32.354  15.342   6.575  0.00  0.00     0.017 A 
HETATM    4  C   UNK N   1      32.589  16.647   6.185  0.00  0.00     0.050 A 
HETATM    5  C   UNK N   1      33.426  17.444   6.961  0.00  0.00     0.053 A 
HETATM    6  C   UNK N   1      34.013  16.987   8.161  0.00  0.00     0.116 A 
ENDROOT
BRANCH   1   7
HETATM    7  C   UNK N   1      34.045  15.027   9.982  0.00  0.00     0.096 C 
HETATM    8  C   UNK N   1      35.284  14.469  10.305  0.00  0.00     0.089 C 
HETATM    9  C   UNK N   1      35.551  13.973  11.716  0.00  0.00     0.166 C 
HETATM   10  C   UNK N   1      36.436  14.253   9.358  0.00  0.00     0.166 C 
HETATM   11  O   UNK N   1      34.708  14.083  12.593  0.00  0.00    -0.292 OA
HETATM   12  C   UNK N   1      36.867  13.335  12.103  0.00  0.00     0.084 C 
HETATM   13  C   UNK N   1      37.763  12.958  10.929  0.00  0.00     0.015 C 
HETATM   14  C   UNK N   1      37.808  14.077   9.915  0.00  0.00     0.084 C 
HETATM   15  O   UNK N   1      36.277  14.062   8.165  0.00  0.00    -0.292 OA
BRANCH   7  16
HETATM   16  O   UNK N   1      33.121  15.014  10.950  0.00  0.00    -0.359 OA
HETATM   17  H   UNK N   1      32.549  15.746  11.069  0.00  0.00     0.217 HD
ENDBRANCH   7  16
ENDBRANCH   1   7
BRANCH   6  18
HETATM   18  N   UNK N   1      34.901  17.912   8.816  0.00  0.00    -0.115 N 
HETATM   19  O   UNK N   1      35.266  17.670   9.930  0.00  0.00    -0.532 OA
HETATM   20  O   UNK N   1      35.066  19.133   8.372  0.00  0.00    -0.532 OA
ENDBRANCH   6  18
BRANCH   4  21
HETATM   21  C   UNK N   1      31.927  17.180   4.948  0.00  0.00     0.417 C 
HETATM   22  F   UNK N   1      30.727  17.800   5.252  0.00  0.00    -0.166 F 
HETATM   23  F   UNK N   1      32.760  18.090   4.325  0.00  0.00    -0.166 F 
HETATM   24  F   UNK N   1      31.674  16.130   4.082  0.00  0.00    -0.166 F 
ENDBRANCH   4  21
TORSDOF 4
ENDMDL
MODEL 2
REMARK VINA RESULT:      -7.7      4.623      6.144
REMARK  4 active torsions:
REMARK  status: ('A' for Active; 'I' for Inactive)
REMARK    1  A    between atoms: C_9  and  O_10 
REMARK    2  A    between atoms: C_9  and  C_11 
REMARK    3  A    between atoms: C_14  and  C_15 
REMARK    4  A    between atoms: C_20  and  N_21 
ROOT
HETATM    1  C   UNK N   1      31.630  17.081   6.185  0.00  0.00     0.031 A 
HETATM    2  C   UNK N   1      30.232  17.181   6.164  0.00  0.00     0.017 A 
HETATM    3  C   UNK N   1      29.470  17.520   7.270  0.00  0.00     0.017 A 
HETATM    4  C   UNK N   1      30.088  17.782   8.478  0.00  0.00     0.050 A 
HETATM    5  C   UNK N   1      31.479  17.782   8.540  0.00  0.00     0.053 A 
HETATM    6  C   UNK N   1      32.289  17.482   7.424  0.00  0.00     0.116 A 
ENDROOT
BRANCH   1   7
HETATM    7  C   UNK N   1      32.313  16.559   4.913  0.00  0.00     0.096 C 
HETATM    8  C   UNK N   1      32.293  15.241   4.449  0.00  0.00     0.089 C 
HETATM    9  C   UNK N   1      32.939  14.893   3.118  0.00  0.00     0.166 C 
HETATM   10  C   UNK N   1      31.711  14.053   5.169  0.00  0.00     0.166 C 
HETATM   11  O   UNK N   1      33.450  15.756   2.421  0.00  0.00    -0.292 OA
HETATM   12  C   UNK N   1      32.966  13.476   2.590  0.00  0.00     0.084 C 
HETATM   13  C   UNK N   1      32.583  12.408   3.609  0.00  0.00     0.015 C 
HETATM   14  C   UNK N   1      31.361  12.833   4.388  0.00  0.00     0.084 C 
HETATM   15  O   UNK N   1      31.655  13.987   6.385  0.00  0.00    -0.292 OA
BRANCH   7  16
HETATM   16  O   UNK N   1      32.991  17.438   4.165  0.00  0.00    -0.359 OA
HETATM   17  H   UNK N   1      33.137  17.272   3.255  0.00  0.00     0.217 HD
ENDBRANCH   7  16
ENDBRANCH   1   7
BRANCH   6  18
HETATM   18  N   UNK N   1      33.710  17.583   7.635  0.00  0.00    -0.115 N 
HETATM   19  O   UNK N   1      34.140  17.443   8.742  0.00  0.00    -0.532 OA
HETATM   20  O   UNK N   1      34.498  18.127   6.739  0.00  0.00    -0.532 OA
ENDBRANCH   6  18
BRANCH   4  21
HETATM   21  C   UNK N   1      29.251  18.040   9.697  0.00  0.00     0.417 C 
HETATM   22  F   UNK N   1      29.184  16.918  10.504  0.00  0.00    -0.166 F 
HETATM   23  F   UNK N   1      29.790  19.086  10.422  0.00  0.00    -0.166 F 
HETATM   24  F   UNK N   1      27.968  18.376   9.301  0.00  0.00    -0.166 F 
ENDBRANCH   4  21
TORSDOF 4
ENDMDL
MODEL 3
REMARK VINA RESULT:      -7.5      2.261      3.271
REMARK  4 active torsions:
REMARK  status: ('A' for Active; 'I' for Inactive)
REMARK    1  A    between atoms: C_9  and  O_10 
REMARK    2  A    between atoms: C_9  and  C_11 
REMARK    3  A    between atoms: C_14  and  C_15 
REMARK    4  A    between atoms: C_20  and  N_21 
ROOT
HETATM    1  C   UNK N   1      33.154  17.358   7.029  0.00  0.00     0.031 A 
HETATM    2  C   UNK N   1      33.814  17.245   5.797  0.00  0.00     0.017 A 
HETATM    3  C   UNK N   1      33.165  17.019   4.595  0.00  0.00     0.017 A 
HETATM    4  C   UNK N   1      31.789  16.893   4.569  0.00  0.00     0.050 A 
HETATM    5  C   UNK N   1      31.070  17.081   5.747  0.00  0.00     0.053 A 
HETATM    6  C   UNK N   1      31.695  17.354   6.983  0.00  0.00     0.116 A 
ENDROOT
BRANCH   1   7
HETATM    7  C   UNK N   1      34.029  17.468   8.285  0.00  0.00     0.096 C 
HETATM    8  C   UNK N   1      34.303  16.441   9.191  0.00  0.00     0.089 C 
HETATM    9  C   UNK N   1      35.268  16.676  10.340  0.00  0.00     0.166 C 
HETATM   10  C   UNK N   1      33.689  15.064   9.186  0.00  0.00     0.166 C 
HETATM   11  O   UNK N   1      35.843  17.745  10.471  0.00  0.00    -0.292 OA
HETATM   12  C   UNK N   1      35.571  15.602  11.362  0.00  0.00     0.084 C 
HETATM   13  C   UNK N   1      34.626  14.406  11.329  0.00  0.00     0.015 C 
HETATM   14  C   UNK N   1      34.384  13.960   9.907  0.00  0.00     0.084 C 
HETATM   15  O   UNK N   1      32.572  14.846   8.751  0.00  0.00    -0.292 OA
BRANCH   7  16
HETATM   16  O   UNK N   1      34.596  18.652   8.546  0.00  0.00    -0.359 OA
HETATM   17  H   UNK N   1      34.091  19.439   8.499  0.00  0.00     0.217 HD
ENDBRANCH   7  16
ENDBRANCH   1   7
BRANCH   6  18
HETATM   18  N   UNK N   1      30.811  17.583   8.096  0.00  0.00    -0.115 N 
HETATM   19  O   UNK N   1      29.772  16.991   8.138  0.00  0.00    -0.532 OA
HETATM   20  O   UNK N   1      30.951  18.623   8.879  0.00  0.00    -0.532 OA
ENDBRANCH   6  18
BRANCH   4  21
HETATM   21  C   UNK N   1      31.102  16.539   3.282  0.00  0.00     0.417 C 
HETATM   22  F   UNK N   1      29.774  16.930   3.301  0.00  0.00    -0.166 F 
HETATM   23  F   UNK N   1      31.740  17.159   2.225  0.00  0.00    -0.166 F 
HETATM   24  F   UNK N   1      31.156  15.167   3.103  0.00  0.00    -0.166 F 
ENDBRANCH   4  21
TORSDOF 4
ENDMDL
MODEL 4
REMARK VINA RESULT:      -7.5      5.437      8.805
REMARK  4 active torsions:
REMARK  status: ('A' for Active; 'I' for Inactive)
REMARK    1  A    between atoms: C_9  and  O_10 
REMARK    2  A    between atoms: C_9  and  C_11 
REMARK    3  A    between atoms: C_14  and  C_15 
REMARK    4  A    between atoms: C_20  and  N_21 
ROOT
HETATM    1  C   UNK N   1      28.845  17.255   6.625  0.00  0.00     0.031 A 
HETATM    2  C   UNK N   1      29.796  16.910   5.654  0.00  0.00     0.017 A 
HETATM    3  C   UNK N   1      31.164  16.983   5.860  0.00  0.00     0.017 A 
HETATM    4  C   UNK N   1      31.656  17.417   7.076  0.00  0.00     0.050 A 
HETATM    5  C   UNK N   1      30.762  17.693   8.107  0.00  0.00     0.053 A 
HETATM    6  C   UNK N   1      29.362  17.589   7.948  0.00  0.00     0.116 A 
ENDROOT
BRANCH   1   7
HETATM    7  C   UNK N   1      27.372  17.252   6.193  0.00  0.00     0.096 C 
HETATM    8  C   UNK N   1      26.766  18.164   5.325  0.00  0.00     0.089 C 
HETATM    9  C   UNK N   1      25.315  17.975   4.916  0.00  0.00     0.166 C 
HETATM   10  C   UNK N   1      27.403  19.402   4.749  0.00  0.00     0.166 C 
HETATM   11  O   UNK N   1      24.670  17.014   5.305  0.00  0.00    -0.292 OA
HETATM   12  C   UNK N   1      24.610  18.953   4.002  0.00  0.00     0.084 C 
HETATM   13  C   UNK N   1      25.349  20.268   3.782  0.00  0.00     0.015 C 
HETATM   14  C   UNK N   1      26.815  20.014   3.524  0.00  0.00     0.084 C 
HETATM   15  O   UNK N   1      28.284  20.015   5.326  0.00  0.00    -0.292 OA
BRANCH   7  16
HETATM   16  O   UNK N   1      26.584  16.287   6.680  0.00  0.00    -0.359 OA
HETATM   17  H   UNK N   1      26.225  16.358   7.542  0.00  0.00     0.217 HD
ENDBRANCH   7  16
ENDBRANCH   1   7
BRANCH   6  18
HETATM   18  N   UNK N   1      28.576  17.850   9.126  0.00  0.00    -0.115 N 
HETATM   19  O   UNK N   1      28.992  18.624   9.937  0.00  0.00    -0.532 OA
HETATM   20  O   UNK N   1      27.601  17.053   9.487  0.00  0.00    -0.532 OA
ENDBRANCH   6  18
BRANCH   4  21
HETATM   21  C   UNK N   1      33.135  17.599   7.255  0.00  0.00     0.417 C 
HETATM   22  F   UNK N   1      33.409  18.663   8.096  0.00  0.00    -0.166 F 
HETATM   23  F   UNK N   1      33.688  16.449   7.786  0.00  0.00    -0.166 F 
HETATM   24  F   UNK N   1      33.712  17.851   6.022  0.00  0.00    -0.166 F 
ENDBRANCH   4  21
TORSDOF 4
ENDMDL
MODEL 5
REMARK VINA RESULT:      -7.5     15.568     18.006
REMARK  4 active torsions:
REMARK  status: ('A' for Active; 'I' for Inactive)
REMARK    1  A    between atoms: C_9  and  O_10 
REMARK    2  A    between atoms: C_9  and  C_11 
REMARK    3  A    between atoms: C_14  and  C_15 
REMARK    4  A    between atoms: C_20  and  N_21 
ROOT
HETATM    1  C   UNK N   1      28.044  24.239  -4.557  0.00  0.00     0.031 A 
HETATM    2  C   UNK N   1      27.436  23.589  -5.640  0.00  0.00     0.017 A 
HETATM    3  C   UNK N   1      28.035  22.566  -6.357  0.00  0.00     0.017 A 
HETATM    4  C   UNK N   1      29.303  22.136  -6.014  0.00  0.00     0.050 A 
HETATM    5  C   UNK N   1      29.923  22.684  -4.894  0.00  0.00     0.053 A 
HETATM    6  C   UNK N   1      29.326  23.699  -4.115  0.00  0.00     0.116 A 
ENDROOT
BRANCH   1   7
HETATM    7  C   UNK N   1      27.305  25.445  -3.959  0.00  0.00     0.096 C 
HETATM    8  C   UNK N   1      27.307  26.746  -4.467  0.00  0.00     0.089 C 
HETATM    9  C   UNK N   1      26.447  27.817  -3.817  0.00  0.00     0.166 C 
HETATM   10  C   UNK N   1      28.135  27.250  -5.620  0.00  0.00     0.166 C 
HETATM   11  O   UNK N   1      25.721  27.555  -2.871  0.00  0.00    -0.292 OA
HETATM   12  C   UNK N   1      26.440  29.246  -4.315  0.00  0.00     0.084 C 
HETATM   13  C   UNK N   1      27.560  29.588  -5.291  0.00  0.00     0.015 C 
HETATM   14  C   UNK N   1      27.716  28.496  -6.322  0.00  0.00     0.084 C 
HETATM   15  O   UNK N   1      29.218  26.771  -5.907  0.00  0.00    -0.292 OA
BRANCH   7  16
HETATM   16  O   UNK N   1      26.583  25.244  -2.851  0.00  0.00    -0.359 OA
HETATM   17  H   UNK N   1      26.059  24.473  -2.760  0.00  0.00     0.217 HD
ENDBRANCH   7  16
ENDBRANCH   1   7
BRANCH   6  18
HETATM   18  N   UNK N   1      30.069  24.117  -2.954  0.00  0.00    -0.115 N 
HETATM   19  O   UNK N   1      30.707  25.128  -3.011  0.00  0.00    -0.532 OA
HETATM   20  O   UNK N   1      30.323  23.291  -1.970  0.00  0.00    -0.532 OA
ENDBRANCH   6  18
BRANCH   4  21
HETATM   21  C   UNK N   1      29.989  21.105  -6.862  0.00  0.00     0.417 C 
HETATM   22  F   UNK N   1      30.642  21.693  -7.931  0.00  0.00    -0.166 F 
HETATM   23  F   UNK N   1      30.907  20.407  -6.100  0.00  0.00    -0.166 F 
HETATM   24  F   UNK N   1      29.043  20.222  -7.354  0.00  0.00    -0.166 F 
ENDBRANCH   4  21
TORSDOF 4
ENDMDL
MODEL 6
REMARK VINA RESULT:      -7.4      4.180      6.846
REMARK  4 active torsions:
REMARK  status: ('A' for Active; 'I' for Inactive)
REMARK    1  A    between atoms: C_9  and  O_10 
REMARK    2  A    between atoms: C_9  and  C_11 
REMARK    3  A    between atoms: C_14  and  C_15 
REMARK    4  A    between atoms: C_20  and  N_21 
ROOT
HETATM    1  C   UNK N   1      32.898  16.142   8.294  0.00  0.00     0.031 A 
HETATM    2  C   UNK N   1      32.594  15.093   9.173  0.00  0.00     0.017 A 
HETATM    3  C   UNK N   1      33.405  14.719  10.232  0.00  0.00     0.017 A 
HETATM    4  C   UNK N   1      34.587  15.395  10.466  0.00  0.00     0.050 A 
HETATM    5  C   UNK N   1      34.902  16.500   9.680  0.00  0.00     0.053 A 
HETATM    6  C   UNK N   1      34.079  16.936   8.618  0.00  0.00     0.116 A 
ENDROOT
BRANCH   1   7
HETATM    7  C   UNK N   1      31.967  16.339   7.090  0.00  0.00     0.096 C 
HETATM    8  C   UNK N   1      30.742  17.011   7.096  0.00  0.00     0.089 C 
HETATM    9  C   UNK N   1      29.975  17.206   5.800  0.00  0.00     0.166 C 
HETATM   10  C   UNK N   1      30.035  17.559   8.308  0.00  0.00     0.166 C 
HETATM   11  O   UNK N   1      30.426  16.815   4.735  0.00  0.00    -0.292 OA
HETATM   12  C   UNK N   1      28.632  17.902   5.764  0.00  0.00     0.084 C 
HETATM   13  C   UNK N   1      27.983  18.109   7.128  0.00  0.00     0.015 C 
HETATM   14  C   UNK N   1      28.998  18.614   8.126  0.00  0.00     0.084 C 
HETATM   15  O   UNK N   1      30.161  17.070   9.417  0.00  0.00    -0.292 OA
BRANCH   7  16
HETATM   16  O   UNK N   1      32.354  15.829   5.915  0.00  0.00    -0.359 OA
HETATM   17  H   UNK N   1      32.977  16.283   5.384  0.00  0.00     0.217 HD
ENDBRANCH   7  16
ENDBRANCH   1   7
BRANCH   6  18
HETATM   18  N   UNK N   1      34.512  18.130   7.939  0.00  0.00    -0.115 N 
HETATM   19  O   UNK N   1      34.483  18.156   6.744  0.00  0.00    -0.532 OA
HETATM   20  O   UNK N   1      35.218  19.048   8.552  0.00  0.00    -0.532 OA
ENDBRANCH   6  18
BRANCH   4  21
HETATM   21  C   UNK N   1      35.513  14.915  11.546  0.00  0.00     0.417 C 
HETATM   22  F   UNK N   1      36.620  14.281  11.009  0.00  0.00    -0.166 F 
HETATM   23  F   UNK N   1      35.934  15.985  12.313  0.00  0.00    -0.166 F 
HETATM   24  F   UNK N   1      34.838  14.016  12.354  0.00  0.00    -0.166 F 
ENDBRANCH   4  21
TORSDOF 4
ENDMDL
MODEL 7
REMARK VINA RESULT:      -7.4     14.477     16.556
REMARK  4 active torsions:
REMARK  status: ('A' for Active; 'I' for Inactive)
REMARK    1  A    between atoms: C_9  and  O_10 
REMARK    2  A    between atoms: C_9  and  C_11 
REMARK    3  A    between atoms: C_14  and  C_15 
REMARK    4  A    between atoms: C_20  and  N_21 
ROOT
HETATM    1  C   UNK N   1      28.916  24.496  -3.702  0.00  0.00     0.031 A 
HETATM    2  C   UNK N   1      27.570  24.269  -3.380  0.00  0.00     0.017 A 
HETATM    3  C   UNK N   1      26.552  25.164  -3.662  0.00  0.00     0.017 A 
HETATM    4  C   UNK N   1      26.840  26.359  -4.294  0.00  0.00     0.050 A 
HETATM    5  C   UNK N   1      28.145  26.603  -4.715  0.00  0.00     0.053 A 
HETATM    6  C   UNK N   1      29.201  25.695  -4.482  0.00  0.00     0.116 A 
ENDROOT
BRANCH   1   7
HETATM    7  C   UNK N   1      29.939  23.469  -3.197  0.00  0.00     0.096 C 
HETATM    8  C   UNK N   1      30.528  22.452  -3.952  0.00  0.00     0.089 C 
HETATM    9  C   UNK N   1      31.599  21.569  -3.335  0.00  0.00     0.166 C 
HETATM   10  C   UNK N   1      30.179  22.082  -5.370  0.00  0.00     0.166 C 
HETATM   11  O   UNK N   1      31.986  21.752  -2.191  0.00  0.00    -0.292 OA
HETATM   12  C   UNK N   1      32.244  20.438  -4.106  0.00  0.00     0.084 C 
HETATM   13  C   UNK N   1      31.536  20.066  -5.405  0.00  0.00     0.015 C 
HETATM   14  C   UNK N   1      31.163  21.308  -6.179  0.00  0.00     0.084 C 
HETATM   15  O   UNK N   1      29.066  22.252  -5.837  0.00  0.00    -0.292 OA
BRANCH   7  16
HETATM   16  O   UNK N   1      30.316  23.547  -1.915  0.00  0.00    -0.359 OA
HETATM   17  H   UNK N   1      30.192  22.818  -1.339  0.00  0.00     0.217 HD
ENDBRANCH   7  16
ENDBRANCH   1   7
BRANCH   6  18
HETATM   18  N   UNK N   1      30.479  26.066  -5.033  0.00  0.00    -0.115 N 
HETATM   19  O   UNK N   1      30.790  25.641  -6.107  0.00  0.00    -0.532 OA
HETATM   20  O   UNK N   1      31.424  26.578  -4.283  0.00  0.00    -0.532 OA
ENDBRANCH   6  18
BRANCH   4  21
HETATM   21  C   UNK N   1      25.751  27.371  -4.497  0.00  0.00     0.417 C 
HETATM   22  F   UNK N   1      25.267  27.833  -3.286  0.00  0.00    -0.166 F 
HETATM   23  F   UNK N   1      26.235  28.440  -5.227  0.00  0.00    -0.166 F 
HETATM   24  F   UNK N   1      24.710  26.781  -5.193  0.00  0.00    -0.166 F 
ENDBRANCH   4  21
TORSDOF 4
ENDMDL
MODEL 8
REMARK VINA RESULT:      -7.4     12.997     15.056
REMARK  4 active torsions:
REMARK  status: ('A' for Active; 'I' for Inactive)
REMARK    1  A    between atoms: C_9  and  O_10 
REMARK    2  A    between atoms: C_9  and  C_11 
REMARK    3  A    between atoms: C_14  and  C_15 
REMARK    4  A    between atoms: C_20  and  N_21 
ROOT
HETATM    1  C   UNK N   1      20.057  15.526   6.694  0.00  0.00     0.031 A 
HETATM    2  C   UNK N   1      20.563  14.240   6.459  0.00  0.00     0.017 A 
HETATM    3  C   UNK N   1      21.028  13.403   7.460  0.00  0.00     0.017 A 
HETATM    4  C   UNK N   1      21.008  13.826   8.776  0.00  0.00     0.050 A 
HETATM    5  C   UNK N   1      20.439  15.060   9.081  0.00  0.00     0.053 A 
HETATM    6  C   UNK N   1      19.917  15.921   8.091  0.00  0.00     0.116 A 
ENDROOT
BRANCH   1   7
HETATM    7  C   UNK N   1      19.713  16.377   5.463  0.00  0.00     0.096 C 
HETATM    8  C   UNK N   1      20.577  17.249   4.797  0.00  0.00     0.089 C 
HETATM    9  C   UNK N   1      20.120  17.955   3.532  0.00  0.00     0.166 C 
HETATM   10  C   UNK N   1      21.971  17.623   5.229  0.00  0.00     0.166 C 
HETATM   11  O   UNK N   1      19.012  17.748   3.060  0.00  0.00    -0.292 OA
HETATM   12  C   UNK N   1      21.011  18.929   2.793  0.00  0.00     0.084 C 
HETATM   13  C   UNK N   1      22.250  19.370   3.565  0.00  0.00     0.015 C 
HETATM   14  C   UNK N   1      22.915  18.185   4.223  0.00  0.00     0.084 C 
HETATM   15  O   UNK N   1      22.314  17.632   6.399  0.00  0.00    -0.292 OA
BRANCH   7  16
HETATM   16  O   UNK N   1      18.473  16.281   4.968  0.00  0.00    -0.359 OA
HETATM   17  H   UNK N   1      17.760  16.034   5.522  0.00  0.00     0.217 HD
ENDBRANCH   7  16
ENDBRANCH   1   7
BRANCH   6  18
HETATM   18  N   UNK N   1      19.308  17.134   8.573  0.00  0.00    -0.115 N 
HETATM   19  O   UNK N   1      18.115  17.190   8.648  0.00  0.00    -0.532 OA
HETATM   20  O   UNK N   1      19.976  18.259   8.630  0.00  0.00    -0.532 OA
ENDBRANCH   6  18
BRANCH   4  21
HETATM   21  C   UNK N   1      21.615  12.960   9.841  0.00  0.00     0.417 C 
HETATM   22  F   UNK N   1      20.701  12.691  10.846  0.00  0.00    -0.166 F 
HETATM   23  F   UNK N   1      22.043  11.768   9.289  0.00  0.00    -0.166 F 
HETATM   24  F   UNK N   1      22.700  13.618  10.395  0.00  0.00    -0.166 F 
ENDBRANCH   4  21
TORSDOF 4
ENDMDL
MODEL 9
REMARK VINA RESULT:      -7.4     16.334     18.541
REMARK  4 active torsions:
REMARK  status: ('A' for Active; 'I' for Inactive)
REMARK    1  A    between atoms: C_9  and  O_10 
REMARK    2  A    between atoms: C_9  and  C_11 
REMARK    3  A    between atoms: C_14  and  C_15 
REMARK    4  A    between atoms: C_20  and  N_21 
ROOT
HETATM    1  C   UNK N   1      28.000  24.093  -4.858  0.00  0.00     0.031 A 
HETATM    2  C   UNK N   1      29.200  23.579  -4.347  0.00  0.00     0.017 A 
HETATM    3  C   UNK N   1      29.882  22.514  -4.911  0.00  0.00     0.017 A 
HETATM    4  C   UNK N   1      29.381  21.897  -6.042  0.00  0.00     0.050 A 
HETATM    5  C   UNK N   1      28.238  22.416  -6.645  0.00  0.00     0.053 A 
HETATM    6  C   UNK N   1      27.541  23.527  -6.122  0.00  0.00     0.116 A 
ENDROOT
BRANCH   1   7
HETATM    7  C   UNK N   1      27.299  25.183  -4.036  0.00  0.00     0.096 C 
HETATM    8  C   UNK N   1      27.181  26.531  -4.385  0.00  0.00     0.089 C 
HETATM    9  C   UNK N   1      26.373  27.475  -3.512  0.00  0.00     0.166 C 
HETATM   10  C   UNK N   1      27.828  27.203  -5.568  0.00  0.00     0.166 C 
HETATM   11  O   UNK N   1      25.789  27.071  -2.518  0.00  0.00    -0.292 OA
HETATM   12  C   UNK N   1      26.242  28.947  -3.836  0.00  0.00     0.084 C 
HETATM   13  C   UNK N   1      27.208  29.455  -4.900  0.00  0.00     0.015 C 
HETATM   14  C   UNK N   1      27.269  28.493  -6.063  0.00  0.00     0.084 C 
HETATM   15  O   UNK N   1      28.882  26.819  -6.044  0.00  0.00    -0.292 OA
BRANCH   7  16
HETATM   16  O   UNK N   1      26.738  24.823  -2.875  0.00  0.00    -0.359 OA
HETATM   17  H   UNK N   1      27.227  24.332  -2.245  0.00  0.00     0.217 HD
ENDBRANCH   7  16
ENDBRANCH   1   7
BRANCH   6  18
HETATM   18  N   UNK N   1      26.413  23.980  -6.895  0.00  0.00    -0.115 N 
HETATM   19  O   UNK N   1      26.596  24.774  -7.771  0.00  0.00    -0.532 OA
HETATM   20  O   UNK N   1      25.184  23.804  -6.479  0.00  0.00    -0.532 OA
ENDBRANCH   6  18
BRANCH   4  21
HETATM   21  C   UNK N   1      30.064  20.676  -6.584  0.00  0.00     0.417 C 
HETATM   22  F   UNK N   1      29.146  19.772  -7.089  0.00  0.00    -0.166 F 
HETATM   23  F   UNK N   1      30.942  21.036  -7.589  0.00  0.00    -0.166 F 
HETATM   24  F   UNK N   1      30.771  20.063  -5.563  0.00  0.00    -0.166 F 
ENDBRANCH   4  21
TORSDOF 4
ENDMDL
