MODEL 1
REMARK VINA RESULT:      -7.7      0.000      0.000
REMARK  6 active torsions:
REMARK  status: ('A' for Active; 'I' for Inactive)
REMARK    1  A    between atoms: C_18  and  O_19 
REMARK    2  A    between atoms: O_19  and  C_21 
REMARK    3  A    between atoms: C_21  and  C_24 
REMARK    4  A    between atoms: C_23  and  C_24 
REMARK    5  A    between atoms: C_23  and  C_25 
REMARK    6  A    between atoms: C_25  and  O_27 
ROOT
HETATM    1  C   UNK N   1      35.419   8.470  17.304  0.00  0.00     0.017 C 
HETATM    2  C   UNK N   1      34.995   7.287  18.187  0.00  0.00     0.084 C 
HETATM    3  C   UNK N   1      34.779   7.716  19.621  0.00  0.00     0.149 C 
HETATM    4  O   UNK N   1      34.520   6.880  20.469  0.00  0.00    -0.293 OA
HETATM    5  C   UNK N   1      34.951   9.143  20.007  0.00  0.00     0.053 C 
HETATM    6  C   UNK N   1      34.907  10.095  19.058  0.00  0.00    -0.072 C 
HETATM    7  C   UNK N   1      35.357  11.495  19.408  0.00  0.00     0.035 C 
HETATM    8  C   UNK N   1      35.440  12.487  18.236  0.00  0.00     0.010 C 
HETATM    9  C   UNK N   1      35.702  11.837  16.869  0.00  0.00    -0.005 C 
HETATM   10  C   UNK N   1      34.577  10.804  16.620  0.00  0.00    -0.002 C 
HETATM   11  C   UNK N   1      34.537   9.675  17.651  0.00  0.00     0.019 C 
HETATM   12  C   UNK N   1      34.643  10.173  15.217  0.00  0.00     0.006 C 
HETATM   13  C   UNK N   1      34.680  11.205  14.114  0.00  0.00     0.012 C 
HETATM   14  C   UNK N   1      35.753  12.256  14.367  0.00  0.00    -0.013 C 
HETATM   15  C   UNK N   1      35.574  12.891  15.740  0.00  0.00     0.001 C 
HETATM   16  C   UNK N   1      36.510  14.097  15.674  0.00  0.00     0.008 C 
HETATM   17  C   UNK N   1      36.486  14.512  14.177  0.00  0.00     0.034 C 
HETATM   18  C   UNK N   1      35.583  13.480  13.482  0.00  0.00     0.140 C 
HETATM   19  C   UNK N   1      37.161  11.642  14.200  0.00  0.00     0.018 C 
ENDROOT
BRANCH  18  20
HETATM   20  O   UNK N   1      35.912  13.225  12.159  0.00  0.00    -0.315 OA
BRANCH  20  21
HETATM   21  C   UNK N   1      34.995  13.301  11.147  0.00  0.00     0.259 C 
HETATM   22  O   UNK N   1      34.792  12.352  10.408  0.00  0.00    -0.265 OA
BRANCH  21  23
HETATM   23  C   UNK N   1      34.222  14.556  10.926  0.00  0.00     0.121 C 
BRANCH  23  24
HETATM   24  C   UNK N   1      34.873  15.376   9.827  0.00  0.00     0.119 C 
BRANCH  24  25
HETATM   25  C   UNK N   1      35.784  16.400  10.418  0.00  0.00     0.139 C 
HETATM   26  O   UNK N   1      35.511  17.586  10.339  0.00  0.00    -0.650 OA
BRANCH  25  27
HETATM   27  O   UNK N   1      36.922  16.013  11.024  0.00  0.00    -0.776 OA
HETATM   28  H   UNK N   1      37.248  15.666  11.832  0.00  0.00     0.167 HD
ENDBRANCH  25  27
ENDBRANCH  24  25
ENDBRANCH  23  24
ENDBRANCH  21  23
ENDBRANCH  20  21
ENDBRANCH  18  20
TORSDOF 6
ENDMDL
MODEL 2
REMARK VINA RESULT:      -7.4     13.865     16.339
REMARK  6 active torsions:
REMARK  status: ('A' for Active; 'I' for Inactive)
REMARK    1  A    between atoms: C_18  and  O_19 
REMARK    2  A    between atoms: O_19  and  C_21 
REMARK    3  A    between atoms: C_21  and  C_24 
REMARK    4  A    between atoms: C_23  and  C_24 
REMARK    5  A    between atoms: C_23  and  C_25 
REMARK    6  A    between atoms: C_25  and  O_27 
ROOT
HETATM    1  C   UNK N   1      21.160  12.666  10.075  0.00  0.00     0.017 C 
HETATM    2  C   UNK N   1      21.069  12.193  11.533  0.00  0.00     0.084 C 
HETATM    3  C   UNK N   1      22.430  11.829  12.084  0.00  0.00     0.149 C 
HETATM    4  O   UNK N   1      22.520  11.354  13.203  0.00  0.00    -0.293 OA
HETATM    5  C   UNK N   1      23.643  11.984  11.237  0.00  0.00     0.053 C 
HETATM    6  C   UNK N   1      23.601  12.791  10.162  0.00  0.00    -0.072 C 
HETATM    7  C   UNK N   1      24.730  12.728   9.159  0.00  0.00     0.035 C 
HETATM    8  C   UNK N   1      24.534  13.552   7.875  0.00  0.00     0.010 C 
HETATM    9  C   UNK N   1      23.067  13.773   7.477  0.00  0.00    -0.005 C 
HETATM   10  C   UNK N   1      22.359  14.459   8.670  0.00  0.00    -0.002 C 
HETATM   11  C   UNK N   1      22.353  13.621   9.949  0.00  0.00     0.019 C 
HETATM   12  C   UNK N   1      20.907  14.863   8.352  0.00  0.00     0.006 C 
HETATM   13  C   UNK N   1      20.795  15.705   7.102  0.00  0.00     0.012 C 
HETATM   14  C   UNK N   1      21.527  15.065   5.930  0.00  0.00    -0.013 C 
HETATM   15  C   UNK N   1      22.976  14.769   6.294  0.00  0.00     0.001 C 
HETATM   16  C   UNK N   1      23.601  14.444   4.937  0.00  0.00     0.008 C 
HETATM   17  C   UNK N   1      22.797  15.317   3.933  0.00  0.00     0.034 C 
HETATM   18  C   UNK N   1      21.733  16.035   4.778  0.00  0.00     0.140 C 
HETATM   19  C   UNK N   1      20.785  13.795   5.458  0.00  0.00     0.018 C 
ENDROOT
BRANCH  18  20
HETATM   20  O   UNK N   1      20.553  16.314   4.104  0.00  0.00    -0.315 OA
BRANCH  20  21
HETATM   21  C   UNK N   1      20.513  17.108   2.992  0.00  0.00     0.259 C 
HETATM   22  O   UNK N   1      19.957  16.736   1.972  0.00  0.00    -0.265 OA
BRANCH  21  23
HETATM   23  C   UNK N   1      21.154  18.453   3.006  0.00  0.00     0.121 C 
BRANCH  23  24
HETATM   24  C   UNK N   1      20.232  19.471   2.359  0.00  0.00     0.119 C 
BRANCH  24  25
HETATM   25  C   UNK N   1      21.025  20.614   1.818  0.00  0.00     0.139 C 
HETATM   26  O   UNK N   1      21.312  20.657   0.633  0.00  0.00    -0.650 OA
BRANCH  25  27
HETATM   27  O   UNK N   1      21.439  21.592   2.645  0.00  0.00    -0.776 OA
HETATM   28  H   UNK N   1      22.045  22.305   2.700  0.00  0.00     0.167 HD
ENDBRANCH  25  27
ENDBRANCH  24  25
ENDBRANCH  23  24
ENDBRANCH  21  23
ENDBRANCH  20  21
ENDBRANCH  18  20
TORSDOF 6
ENDMDL
MODEL 3
REMARK VINA RESULT:      -7.3     20.954     24.111
REMARK  6 active torsions:
REMARK  status: ('A' for Active; 'I' for Inactive)
REMARK    1  A    between atoms: C_18  and  O_19 
REMARK    2  A    between atoms: O_19  and  C_21 
REMARK    3  A    between atoms: C_21  and  C_24 
REMARK    4  A    between atoms: C_23  and  C_24 
REMARK    5  A    between atoms: C_23  and  C_25 
REMARK    6  A    between atoms: C_25  and  O_27 
ROOT
HETATM    1  C   UNK N   1      32.857  20.399  -6.548  0.00  0.00     0.017 C 
HETATM    2  C   UNK N   1      33.804  19.225  -6.836  0.00  0.00     0.084 C 
HETATM    3  C   UNK N   1      34.543  18.790  -5.590  0.00  0.00     0.149 C 
HETATM    4  O   UNK N   1      35.396  17.924  -5.666  0.00  0.00    -0.293 OA
HETATM    5  C   UNK N   1      34.279  19.467  -4.292  0.00  0.00     0.053 C 
HETATM    6  C   UNK N   1      33.142  20.169  -4.130  0.00  0.00    -0.072 C 
HETATM    7  C   UNK N   1      33.009  21.075  -2.928  0.00  0.00     0.035 C 
HETATM    8  C   UNK N   1      31.759  21.970  -2.896  0.00  0.00     0.010 C 
HETATM    9  C   UNK N   1      31.191  22.320  -4.280  0.00  0.00    -0.005 C 
HETATM   10  C   UNK N   1      30.882  20.989  -5.007  0.00  0.00    -0.002 C 
HETATM   11  C   UNK N   1      32.113  20.112  -5.239  0.00  0.00     0.019 C 
HETATM   12  C   UNK N   1      30.176  21.197  -6.360  0.00  0.00     0.006 C 
HETATM   13  C   UNK N   1      28.934  22.051  -6.247  0.00  0.00     0.012 C 
HETATM   14  C   UNK N   1      29.212  23.344  -5.493  0.00  0.00    -0.013 C 
HETATM   15  C   UNK N   1      29.835  23.054  -4.133  0.00  0.00     0.001 C 
HETATM   16  C   UNK N   1      29.739  24.406  -3.428  0.00  0.00     0.008 C 
HETATM   17  C   UNK N   1      28.454  25.050  -4.018  0.00  0.00     0.034 C 
HETATM   18  C   UNK N   1      27.935  24.045  -5.059  0.00  0.00     0.140 C 
HETATM   19  C   UNK N   1      30.100  24.283  -6.340  0.00  0.00     0.018 C 
ENDROOT
BRANCH  18  20
HETATM   20  O   UNK N   1      27.259  24.618  -6.126  0.00  0.00    -0.315 OA
BRANCH  20  21
HETATM   21  C   UNK N   1      25.972  25.069  -6.021  0.00  0.00     0.259 C 
HETATM   22  O   UNK N   1      25.111  24.396  -5.478  0.00  0.00    -0.265 OA
BRANCH  21  23
HETATM   23  C   UNK N   1      25.594  26.400  -6.575  0.00  0.00     0.121 C 
BRANCH  23  24
HETATM   24  C   UNK N   1      24.758  27.162  -5.563  0.00  0.00     0.119 C 
BRANCH  24  25
HETATM   25  C   UNK N   1      25.641  27.923  -4.632  0.00  0.00     0.139 C 
HETATM   26  O   UNK N   1      26.698  28.387  -5.027  0.00  0.00    -0.650 OA
BRANCH  25  27
HETATM   27  O   UNK N   1      25.278  28.082  -3.345  0.00  0.00    -0.776 OA
HETATM   28  H   UNK N   1      25.555  27.891  -2.471  0.00  0.00     0.167 HD
ENDBRANCH  25  27
ENDBRANCH  24  25
ENDBRANCH  23  24
ENDBRANCH  21  23
ENDBRANCH  20  21
ENDBRANCH  18  20
TORSDOF 6
ENDMDL
MODEL 4
REMARK VINA RESULT:      -7.2     20.806     25.454
REMARK  6 active torsions:
REMARK  status: ('A' for Active; 'I' for Inactive)
REMARK    1  A    between atoms: C_18  and  O_19 
REMARK    2  A    between atoms: O_19  and  C_21 
REMARK    3  A    between atoms: C_21  and  C_24 
REMARK    4  A    between atoms: C_23  and  C_24 
REMARK    5  A    between atoms: C_23  and  C_25 
REMARK    6  A    between atoms: C_25  and  O_27 
ROOT
HETATM    1  C   UNK N   1      28.398  28.100  -4.376  0.00  0.00     0.017 C 
HETATM    2  C   UNK N   1      28.173  29.399  -3.589  0.00  0.00     0.084 C 
HETATM    3  C   UNK N   1      26.709  29.779  -3.556  0.00  0.00     0.149 C 
HETATM    4  O   UNK N   1      26.371  30.831  -3.041  0.00  0.00    -0.293 OA
HETATM    5  C   UNK N   1      25.697  28.908  -4.211  0.00  0.00     0.053 C 
HETATM    6  C   UNK N   1      26.001  27.625  -4.479  0.00  0.00    -0.072 C 
HETATM    7  C   UNK N   1      25.087  26.833  -5.386  0.00  0.00     0.035 C 
HETATM    8  C   UNK N   1      25.584  25.433  -5.783  0.00  0.00     0.010 C 
HETATM    9  C   UNK N   1      27.112  25.276  -5.785  0.00  0.00    -0.005 C 
HETATM   10  C   UNK N   1      27.621  25.646  -4.371  0.00  0.00    -0.002 C 
HETATM   11  C   UNK N   1      27.320  27.090  -3.965  0.00  0.00     0.019 C 
HETATM   12  C   UNK N   1      29.131  25.400  -4.194  0.00  0.00     0.006 C 
HETATM   13  C   UNK N   1      29.540  23.993  -4.563  0.00  0.00     0.012 C 
HETATM   14  C   UNK N   1      29.008  23.598  -5.934  0.00  0.00    -0.013 C 
HETATM   15  C   UNK N   1      27.500  23.792  -6.005  0.00  0.00     0.001 C 
HETATM   16  C   UNK N   1      27.129  23.062  -7.295  0.00  0.00     0.008 C 
HETATM   17  C   UNK N   1      28.171  21.912  -7.390  0.00  0.00     0.034 C 
HETATM   18  C   UNK N   1      29.097  22.100  -6.178  0.00  0.00     0.140 C 
HETATM   19  C   UNK N   1      29.740  24.383  -7.045  0.00  0.00     0.018 C 
ENDROOT
BRANCH  18  20
HETATM   20  O   UNK N   1      30.402  21.673  -6.378  0.00  0.00    -0.315 OA
BRANCH  20  21
HETATM   21  C   UNK N   1      30.833  20.430  -6.003  0.00  0.00     0.259 C 
HETATM   22  O   UNK N   1      30.624  19.454  -6.704  0.00  0.00    -0.265 OA
BRANCH  21  23
HETATM   23  C   UNK N   1      31.569  20.245  -4.720  0.00  0.00     0.121 C 
BRANCH  23  24
HETATM   24  C   UNK N   1      32.153  21.569  -4.264  0.00  0.00     0.119 C 
BRANCH  24  25
HETATM   25  C   UNK N   1      32.159  21.645  -2.774  0.00  0.00     0.139 C 
HETATM   26  O   UNK N   1      31.365  22.364  -2.191  0.00  0.00    -0.650 OA
BRANCH  25  27
HETATM   27  O   UNK N   1      33.058  20.930  -2.071  0.00  0.00    -0.776 OA
HETATM   28  H   UNK N   1      33.855  20.447  -2.167  0.00  0.00     0.167 HD
ENDBRANCH  25  27
ENDBRANCH  24  25
ENDBRANCH  23  24
ENDBRANCH  21  23
ENDBRANCH  20  21
ENDBRANCH  18  20
TORSDOF 6
ENDMDL
MODEL 5
REMARK VINA RESULT:      -7.2     10.852     15.453
REMARK  6 active torsions:
REMARK  status: ('A' for Active; 'I' for Inactive)
REMARK    1  A    between atoms: C_18  and  O_19 
REMARK    2  A    between atoms: O_19  and  C_21 
REMARK    3  A    between atoms: C_21  and  C_24 
REMARK    4  A    between atoms: C_23  and  C_24 
REMARK    5  A    between atoms: C_23  and  C_25 
REMARK    6  A    between atoms: C_25  and  O_27 
ROOT
HETATM    1  C   UNK N   1      31.003  17.087   6.694  0.00  0.00     0.017 C 
HETATM    2  C   UNK N   1      32.286  17.561   7.393  0.00  0.00     0.084 C 
HETATM    3  C   UNK N   1      33.473  17.527   6.456  0.00  0.00     0.149 C 
HETATM    4  O   UNK N   1      34.583  17.794   6.879  0.00  0.00    -0.293 OA
HETATM    5  C   UNK N   1      33.294  17.102   5.041  0.00  0.00     0.053 C 
HETATM    6  C   UNK N   1      32.066  17.128   4.492  0.00  0.00    -0.072 C 
HETATM    7  C   UNK N   1      31.847  16.438   3.165  0.00  0.00     0.035 C 
HETATM    8  C   UNK N   1      30.389  16.363   2.680  0.00  0.00     0.010 C 
HETATM    9  C   UNK N   1      29.343  16.375   3.805  0.00  0.00    -0.005 C 
HETATM   10  C   UNK N   1      29.567  17.661   4.637  0.00  0.00    -0.002 C 
HETATM   11  C   UNK N   1      30.941  17.732   5.304  0.00  0.00     0.019 C 
HETATM   12  C   UNK N   1      28.493  17.869   5.721  0.00  0.00     0.006 C 
HETATM   13  C   UNK N   1      27.087  17.823   5.167  0.00  0.00     0.012 C 
HETATM   14  C   UNK N   1      26.865  16.586   4.308  0.00  0.00    -0.013 C 
HETATM   15  C   UNK N   1      27.917  16.493   3.210  0.00  0.00     0.001 C 
HETATM   16  C   UNK N   1      27.349  15.408   2.296  0.00  0.00     0.008 C 
HETATM   17  C   UNK N   1      25.810  15.563   2.436  0.00  0.00     0.034 C 
HETATM   18  C   UNK N   1      25.605  16.688   3.463  0.00  0.00     0.140 C 
HETATM   19  C   UNK N   1      26.841  15.315   5.186  0.00  0.00     0.018 C 
ENDROOT
BRANCH  18  20
HETATM   20  O   UNK N   1      24.450  16.572   4.223  0.00  0.00    -0.315 OA
BRANCH  20  21
HETATM   21  C   UNK N   1      23.298  17.242   3.913  0.00  0.00     0.259 C 
HETATM   22  O   UNK N   1      22.327  16.653   3.468  0.00  0.00    -0.265 OA
BRANCH  21  23
HETATM   23  C   UNK N   1      23.209  18.716   4.114  0.00  0.00     0.121 C 
BRANCH  23  24
HETATM   24  C   UNK N   1      21.809  19.199   3.782  0.00  0.00     0.119 C 
BRANCH  24  25
HETATM   25  C   UNK N   1      21.862  20.243   2.717  0.00  0.00     0.139 C 
HETATM   26  O   UNK N   1      21.225  20.103   1.686  0.00  0.00    -0.650 OA
BRANCH  25  27
HETATM   27  O   UNK N   1      22.631  21.335   2.888  0.00  0.00    -0.776 OA
HETATM   28  H   UNK N   1      23.360  21.790   2.515  0.00  0.00     0.167 HD
ENDBRANCH  25  27
ENDBRANCH  24  25
ENDBRANCH  23  24
ENDBRANCH  21  23
ENDBRANCH  20  21
ENDBRANCH  18  20
TORSDOF 6
ENDMDL
MODEL 6
REMARK VINA RESULT:      -6.8     20.907     24.071
REMARK  6 active torsions:
REMARK  status: ('A' for Active; 'I' for Inactive)
REMARK    1  A    between atoms: C_18  and  O_19 
REMARK    2  A    between atoms: O_19  and  C_21 
REMARK    3  A    between atoms: C_21  and  C_24 
REMARK    4  A    between atoms: C_23  and  C_24 
REMARK    5  A    between atoms: C_23  and  C_25 
REMARK    6  A    between atoms: C_25  and  O_27 
ROOT
HETATM    1  C   UNK N   1      32.955  20.310  -6.550  0.00  0.00     0.017 C 
HETATM    2  C   UNK N   1      33.876  19.121  -6.862  0.00  0.00     0.084 C 
HETATM    3  C   UNK N   1      34.632  18.669  -5.632  0.00  0.00     0.149 C 
HETATM    4  O   UNK N   1      35.468  17.788  -5.728  0.00  0.00    -0.293 OA
HETATM    5  C   UNK N   1      34.405  19.345  -4.326  0.00  0.00     0.053 C 
HETATM    6  C   UNK N   1      33.284  20.065  -4.139  0.00  0.00    -0.072 C 
HETATM    7  C   UNK N   1      33.191  20.969  -2.931  0.00  0.00     0.035 C 
HETATM    8  C   UNK N   1      31.957  21.884  -2.871  0.00  0.00     0.010 C 
HETATM    9  C   UNK N   1      31.368  22.250  -4.242  0.00  0.00    -0.005 C 
HETATM   10  C   UNK N   1      31.021  20.927  -4.968  0.00  0.00    -0.002 C 
HETATM   11  C   UNK N   1      32.232  20.030  -5.227  0.00  0.00     0.019 C 
HETATM   12  C   UNK N   1      30.292  21.152  -6.306  0.00  0.00     0.006 C 
HETATM   13  C   UNK N   1      29.068  22.026  -6.165  0.00  0.00     0.012 C 
HETATM   14  C   UNK N   1      29.383  23.312  -5.412  0.00  0.00    -0.013 C 
HETATM   15  C   UNK N   1      30.027  23.006  -4.066  0.00  0.00     0.001 C 
HETATM   16  C   UNK N   1      29.969  24.357  -3.354  0.00  0.00     0.008 C 
HETATM   17  C   UNK N   1      28.683  25.024  -3.916  0.00  0.00     0.034 C 
HETATM   18  C   UNK N   1      28.127  24.033  -4.949  0.00  0.00     0.140 C 
HETATM   19  C   UNK N   1      30.269  24.239  -6.273  0.00  0.00     0.018 C 
ENDROOT
BRANCH  18  20
HETATM   20  O   UNK N   1      27.439  24.621  -6.001  0.00  0.00    -0.315 OA
BRANCH  20  21
HETATM   21  C   UNK N   1      26.146  24.294  -6.306  0.00  0.00     0.259 C 
HETATM   22  O   UNK N   1      25.217  24.708  -5.633  0.00  0.00    -0.265 OA
BRANCH  21  23
HETATM   23  C   UNK N   1      25.848  23.418  -7.474  0.00  0.00     0.121 C 
BRANCH  23  24
HETATM   24  C   UNK N   1      25.274  22.098  -6.995  0.00  0.00     0.119 C 
BRANCH  24  25
HETATM   25  C   UNK N   1      25.256  21.108  -8.112  0.00  0.00     0.139 C 
HETATM   26  O   UNK N   1      25.500  19.932  -7.896  0.00  0.00    -0.650 OA
BRANCH  25  27
HETATM   27  O   UNK N   1      24.987  21.518  -9.366  0.00  0.00    -0.776 OA
HETATM   28  H   UNK N   1      24.274  21.730  -9.936  0.00  0.00     0.167 HD
ENDBRANCH  25  27
ENDBRANCH  24  25
ENDBRANCH  23  24
ENDBRANCH  21  23
ENDBRANCH  20  21
ENDBRANCH  18  20
TORSDOF 6
ENDMDL
MODEL 7
REMARK VINA RESULT:      -6.8     14.764     17.790
REMARK  6 active torsions:
REMARK  status: ('A' for Active; 'I' for Inactive)
REMARK    1  A    between atoms: C_18  and  O_19 
REMARK    2  A    between atoms: O_19  and  C_21 
REMARK    3  A    between atoms: C_21  and  C_24 
REMARK    4  A    between atoms: C_23  and  C_24 
REMARK    5  A    between atoms: C_23  and  C_25 
REMARK    6  A    between atoms: C_25  and  O_27 
ROOT
HETATM    1  C   UNK N   1      20.942  13.807   8.210  0.00  0.00     0.017 C 
HETATM    2  C   UNK N   1      21.169  13.725   9.727  0.00  0.00     0.084 C 
HETATM    3  C   UNK N   1      22.318  12.801  10.066  0.00  0.00     0.149 C 
HETATM    4  O   UNK N   1      22.574  12.561  11.233  0.00  0.00    -0.293 OA
HETATM    5  C   UNK N   1      23.086  12.136   8.979  0.00  0.00     0.053 C 
HETATM    6  C   UNK N   1      23.034  12.635   7.731  0.00  0.00    -0.072 C 
HETATM    7  C   UNK N   1      23.580  11.805   6.591  0.00  0.00     0.035 C 
HETATM    8  C   UNK N   1      23.336  12.362   5.179  0.00  0.00     0.010 C 
HETATM    9  C   UNK N   1      22.089  13.250   5.050  0.00  0.00    -0.005 C 
HETATM   10  C   UNK N   1      22.235  14.408   6.067  0.00  0.00    -0.002 C 
HETATM   11  C   UNK N   1      22.306  13.946   7.523  0.00  0.00     0.019 C 
HETATM   12  C   UNK N   1      21.111  15.454   5.948  0.00  0.00     0.006 C 
HETATM   13  C   UNK N   1      20.955  15.987   4.543  0.00  0.00     0.012 C 
HETATM   14  C   UNK N   1      20.856  14.859   3.525  0.00  0.00    -0.013 C 
HETATM   15  C   UNK N   1      22.043  13.912   3.651  0.00  0.00     0.001 C 
HETATM   16  C   UNK N   1      21.933  13.069   2.380  0.00  0.00     0.008 C 
HETATM   17  C   UNK N   1      21.309  14.038   1.338  0.00  0.00     0.034 C 
HETATM   18  C   UNK N   1      21.055  15.348   2.099  0.00  0.00     0.140 C 
HETATM   19  C   UNK N   1      19.511  14.114   3.673  0.00  0.00     0.018 C 
ENDROOT
BRANCH  18  20
HETATM   20  O   UNK N   1      19.972  16.083   1.638  0.00  0.00    -0.315 OA
BRANCH  20  21
HETATM   21  C   UNK N   1      20.095  17.370   1.192  0.00  0.00     0.259 C 
HETATM   22  O   UNK N   1      20.360  17.609   0.025  0.00  0.00    -0.265 OA
BRANCH  21  23
HETATM   23  C   UNK N   1      19.907  18.512   2.130  0.00  0.00     0.121 C 
BRANCH  23  24
HETATM   24  C   UNK N   1      21.245  19.167   2.419  0.00  0.00     0.119 C 
BRANCH  24  25
HETATM   25  C   UNK N   1      21.039  20.507   3.044  0.00  0.00     0.139 C 
HETATM   26  O   UNK N   1      20.195  20.659   3.910  0.00  0.00    -0.650 OA
BRANCH  25  27
HETATM   27  O   UNK N   1      21.777  21.557   2.635  0.00  0.00    -0.776 OA
HETATM   28  H   UNK N   1      22.001  22.436   2.867  0.00  0.00     0.167 HD
ENDBRANCH  25  27
ENDBRANCH  24  25
ENDBRANCH  23  24
ENDBRANCH  21  23
ENDBRANCH  20  21
ENDBRANCH  18  20
TORSDOF 6
ENDMDL
MODEL 8
REMARK VINA RESULT:      -6.7      1.731      2.507
REMARK  6 active torsions:
REMARK  status: ('A' for Active; 'I' for Inactive)
REMARK    1  A    between atoms: C_18  and  O_19 
REMARK    2  A    between atoms: O_19  and  C_21 
REMARK    3  A    between atoms: C_21  and  C_24 
REMARK    4  A    between atoms: C_23  and  C_24 
REMARK    5  A    between atoms: C_23  and  C_25 
REMARK    6  A    between atoms: C_25  and  O_27 
ROOT
HETATM    1  C   UNK N   1      35.749   8.967  15.318  0.00  0.00     0.017 C 
HETATM    2  C   UNK N   1      35.507   7.777  16.258  0.00  0.00     0.084 C 
HETATM    3  C   UNK N   1      35.277   8.233  17.681  0.00  0.00     0.149 C 
HETATM    4  O   UNK N   1      35.153   7.405  18.567  0.00  0.00    -0.293 OA
HETATM    5  C   UNK N   1      35.273   9.684  18.008  0.00  0.00     0.053 C 
HETATM    6  C   UNK N   1      35.080  10.584  17.026  0.00  0.00    -0.072 C 
HETATM    7  C   UNK N   1      35.354  12.043  17.310  0.00  0.00     0.035 C 
HETATM    8  C   UNK N   1      35.274  12.988  16.100  0.00  0.00     0.010 C 
HETATM    9  C   UNK N   1      35.582  12.323  14.750  0.00  0.00    -0.005 C 
HETATM   10  C   UNK N   1      34.593  11.144  14.577  0.00  0.00    -0.002 C 
HETATM   11  C   UNK N   1      34.729  10.062  15.649  0.00  0.00     0.019 C 
HETATM   12  C   UNK N   1      34.701  10.470  13.196  0.00  0.00     0.006 C 
HETATM   13  C   UNK N   1      34.574  11.452  12.055  0.00  0.00     0.012 C 
HETATM   14  C   UNK N   1      35.508  12.642  12.234  0.00  0.00    -0.013 C 
HETATM   15  C   UNK N   1      35.286  13.304  13.588  0.00  0.00     0.001 C 
HETATM   16  C   UNK N   1      36.055  14.617  13.447  0.00  0.00     0.008 C 
HETATM   17  C   UNK N   1      35.936  14.963  11.937  0.00  0.00     0.034 C 
HETATM   18  C   UNK N   1      35.156  13.797  11.311  0.00  0.00     0.140 C 
HETATM   19  C   UNK N   1      36.978  12.208  12.044  0.00  0.00     0.018 C 
ENDROOT
BRANCH  18  20
HETATM   20  O   UNK N   1      35.479  13.531   9.987  0.00  0.00    -0.315 OA
BRANCH  20  21
HETATM   21  C   UNK N   1      35.300  14.450   8.990  0.00  0.00     0.259 C 
HETATM   22  O   UNK N   1      36.118  14.572   8.093  0.00  0.00    -0.265 OA
BRANCH  21  23
HETATM   23  C   UNK N   1      34.095  15.327   8.983  0.00  0.00     0.121 C 
BRANCH  23  24
HETATM   24  C   UNK N   1      34.509  16.774   9.177  0.00  0.00     0.119 C 
BRANCH  24  25
HETATM   25  C   UNK N   1      33.986  17.614   8.059  0.00  0.00     0.139 C 
HETATM   26  O   UNK N   1      34.663  17.802   7.062  0.00  0.00    -0.650 OA
BRANCH  25  27
HETATM   27  O   UNK N   1      32.770  18.183   8.161  0.00  0.00    -0.776 OA
HETATM   28  H   UNK N   1      31.944  18.243   7.723  0.00  0.00     0.167 HD
ENDBRANCH  25  27
ENDBRANCH  24  25
ENDBRANCH  23  24
ENDBRANCH  21  23
ENDBRANCH  20  21
ENDBRANCH  18  20
TORSDOF 6
ENDMDL
MODEL 9
REMARK VINA RESULT:      -6.7     20.826     24.587
REMARK  6 active torsions:
REMARK  status: ('A' for Active; 'I' for Inactive)
REMARK    1  A    between atoms: C_18  and  O_19 
REMARK    2  A    between atoms: O_19  and  C_21 
REMARK    3  A    between atoms: C_21  and  C_24 
REMARK    4  A    between atoms: C_23  and  C_24 
REMARK    5  A    between atoms: C_23  and  C_25 
REMARK    6  A    between atoms: C_25  and  O_27 
ROOT
HETATM    1  C   UNK N   1      31.638  21.965  -3.216  0.00  0.00     0.017 C 
HETATM    2  C   UNK N   1      32.987  21.291  -2.924  0.00  0.00     0.084 C 
HETATM    3  C   UNK N   1      33.298  20.213  -3.939  0.00  0.00     0.149 C 
HETATM    4  O   UNK N   1      34.294  19.524  -3.801  0.00  0.00    -0.293 OA
HETATM    5  C   UNK N   1      32.356  19.949  -5.060  0.00  0.00     0.053 C 
HETATM    6  C   UNK N   1      31.457  20.889  -5.404  0.00  0.00    -0.072 C 
HETATM    7  C   UNK N   1      30.333  20.513  -6.342  0.00  0.00     0.035 C 
HETATM    8  C   UNK N   1      29.252  21.586  -6.558  0.00  0.00     0.010 C 
HETATM    9  C   UNK N   1      29.076  22.558  -5.383  0.00  0.00    -0.005 C 
HETATM   10  C   UNK N   1      30.449  23.224  -5.120  0.00  0.00    -0.002 C 
HETATM   11  C   UNK N   1      31.547  22.237  -4.722  0.00  0.00     0.019 C 
HETATM   12  C   UNK N   1      30.383  24.329  -4.049  0.00  0.00     0.006 C 
HETATM   13  C   UNK N   1      29.327  25.369  -4.347  0.00  0.00     0.012 C 
HETATM   14  C   UNK N   1      27.981  24.727  -4.653  0.00  0.00    -0.013 C 
HETATM   15  C   UNK N   1      28.112  23.706  -5.775  0.00  0.00     0.001 C 
HETATM   16  C   UNK N   1      26.655  23.424  -6.141  0.00  0.00     0.008 C 
HETATM   17  C   UNK N   1      25.928  24.767  -5.854  0.00  0.00     0.034 C 
HETATM   18  C   UNK N   1      27.008  25.705  -5.292  0.00  0.00     0.140 C 
HETATM   19  C   UNK N   1      27.378  24.101  -3.376  0.00  0.00     0.018 C 
ENDROOT
BRANCH  18  20
HETATM   20  O   UNK N   1      26.539  26.650  -4.391  0.00  0.00    -0.315 OA
BRANCH  20  21
HETATM   21  C   UNK N   1      26.451  27.979  -4.701  0.00  0.00     0.259 C 
HETATM   22  O   UNK N   1      26.805  28.395  -5.792  0.00  0.00    -0.265 OA
BRANCH  21  23
HETATM   23  C   UNK N   1      25.918  28.949  -3.704  0.00  0.00     0.121 C 
BRANCH  23  24
HETATM   24  C   UNK N   1      26.758  30.213  -3.714  0.00  0.00     0.119 C 
BRANCH  24  25
HETATM   25  C   UNK N   1      27.833  30.127  -2.682  0.00  0.00     0.139 C 
HETATM   26  O   UNK N   1      28.861  30.770  -2.809  0.00  0.00    -0.650 OA
BRANCH  25  27
HETATM   27  O   UNK N   1      27.673  29.322  -1.615  0.00  0.00    -0.776 OA
HETATM   28  H   UNK N   1      27.349  28.477  -1.369  0.00  0.00     0.167 HD
ENDBRANCH  25  27
ENDBRANCH  24  25
ENDBRANCH  23  24
ENDBRANCH  21  23
ENDBRANCH  20  21
ENDBRANCH  18  20
TORSDOF 6
ENDMDL
