REMARK  12 active torsions:
REMARK  status: ('A' for Active; 'I' for Inactive)
REMARK    1  A    between atoms: S_2  and  C_4 
REMARK    2  A    between atoms: S_2  and  C_11 
REMARK    3  A    between atoms: C_4  and  C_5 
REMARK    4  A    between atoms: C_5  and  N_6 
REMARK    5  A    between atoms: N_6  and  C_7 
REMARK    6  A    between atoms: C_7  and  C_8 
REMARK    7  A    between atoms: C_8  and  C_9 
REMARK    8  A    between atoms: C_9  and  O_10 
REMARK    9  A    between atoms: C_14  and  N_17 
REMARK       I    between atoms: N_17  and  C_18 
REMARK   10  A    between atoms: C_21  and  O_30 
REMARK   11  A    between atoms: O_30  and  C_31 
REMARK   12  A    between atoms: C_31  and  C_32 
ROOT
HETATM    1  N   UNK N   1      -1.454  -0.364  -0.649  0.00  0.00    -0.192 N 
HETATM    2  C   UNK N   1      -1.187   1.022  -0.619  0.00  0.00     0.686 A 
HETATM    3  N   UNK N   1      -2.078   1.865  -0.020  0.00  0.00    -0.168 N 
ATOM      4  HN  UNK N   1      -3.001   1.515   0.239  1.00  0.00     0.186 HD
HETATM    5  C   UNK N   1      -1.757   3.169   0.240  0.00  0.00     0.188 A 
HETATM    6  C   UNK N   1      -0.491   3.606  -0.121  0.00  0.00     0.130 A 
HETATM    7  N   UNK N   1       0.090   4.801   0.037  0.00  0.00    -0.346 N 
ATOM      8  HN  UNK N   1      -0.306   5.640   0.461  1.00  0.00     0.167 HD
HETATM    9  C   UNK N   1       1.333   4.640  -0.499  0.00  0.00     0.182 A 
HETATM   10  N   UNK N   1       1.523   3.381  -0.979  0.00  0.00    -0.336 N 
HETATM   11  C   UNK N   1       0.363   2.766  -0.727  0.00  0.00     0.153 A 
HETATM   12  N   UNK N   1       0.055   1.480  -0.982  0.00  0.00    -0.174 N 
ATOM     13  HN  UNK N   1       0.728   0.861  -1.433  1.00  0.00     0.186 HD
HETATM   14  H   UNK N   1      -2.313  -0.705  -0.987  0.00  0.00     0.184 HD
HETATM   15  H   UNK N   1       2.326   3.011  -1.411  0.00  0.00     0.168 HD
ENDROOT
BRANCH   1  16
HETATM   16  C   UNK N   1      -0.454  -1.251  -0.180  0.00  0.00     0.049 A 
HETATM   17  C   UNK N   1      -0.483  -2.600  -0.524  0.00  0.00     0.031 A 
HETATM   18  C   UNK N   1       0.562  -3.433  -0.114  0.00  0.00     0.026 A 
HETATM   19  C   UNK N   1       1.640  -2.914   0.642  0.00  0.00     0.059 A 
HETATM   20  C   UNK N   1       1.628  -1.580   1.030  0.00  0.00     0.026 A 
HETATM   21  C   UNK N   1       0.588  -0.760   0.628  0.00  0.00     0.031 A 
BRANCH  19  22
HETATM   22  S   UNK N   1       3.080  -3.913   1.062  0.00  0.00     0.177 S 
HETATM   23  O   UNK N   1       3.183  -3.846  -0.471  0.00  0.00    -0.223 OA
HETATM   24  O   UNK N   1       2.345  -5.258   1.009  0.00  0.00    -0.223 OA
BRANCH  22  25
HETATM   25  C   UNK N   1       4.714  -4.637   0.707  0.00  0.00     0.165 C 
BRANCH  25  26
HETATM   26  C   UNK N   1       5.808  -3.587   0.656  0.00  0.00     0.129 C 
BRANCH  26  27
HETATM   27  N   UNK N   1       6.016  -3.168  -0.721  0.00  0.00    -0.420 N 
HETATM   28  H   UNK N   1       6.150  -3.777  -1.528  0.00  0.00     0.153 HD
BRANCH  27  29
HETATM   29  C   UNK N   1       5.996  -1.715  -0.727  0.00  0.00     0.115 C 
BRANCH  29  30
HETATM   30  C   UNK N   1       7.367  -1.166  -1.091  0.00  0.00     0.045 C 
BRANCH  30  31
HETATM   31  C   UNK N   1       8.335  -1.282   0.076  0.00  0.00     0.165 C 
BRANCH  31  32
HETATM   32  O   UNK N   1       8.784  -2.597   0.201  0.00  0.00    -0.401 OA
HETATM   33  H   UNK N   1       8.148  -3.325   0.288  0.00  0.00     0.209 HD
ENDBRANCH  31  32
ENDBRANCH  30  31
ENDBRANCH  29  30
ENDBRANCH  27  29
ENDBRANCH  26  27
ENDBRANCH  25  26
ENDBRANCH  22  25
ENDBRANCH  19  22
ENDBRANCH   1  16
BRANCH   5  34
HETATM   34  O   UNK N   1      -2.648   3.997   0.836  0.00  0.00    -0.333 OA
BRANCH  34  35
HETATM   35  C   UNK N   1      -3.928   3.574   1.130  0.00  0.00     0.182 C 
BRANCH  35  36
HETATM   36  C   UNK N   1      -4.646   3.192  -0.162  0.00  0.00     0.010 C 
HETATM   37  C   UNK N   1      -5.534   1.956   0.029  0.00  0.00     0.007 C 
HETATM   38  C   UNK N   1      -7.028   2.265  -0.053  0.00  0.00     0.000 C 
HETATM   39  C   UNK N   1      -7.338   3.582   0.648  0.00  0.00     0.000 C 
HETATM   40  C   UNK N   1      -6.632   4.768  -0.025  0.00  0.00     0.000 C 
HETATM   41  C   UNK N   1      -5.366   4.378  -0.799  0.00  0.00     0.007 C 
ENDBRANCH  35  36
ENDBRANCH  34  35
ENDBRANCH   5  34
TORSDOF 12
