MODEL 1
REMARK VINA RESULT:      -7.7      0.000      0.000
REMARK  12 active torsions:
REMARK  status: ('A' for Active; 'I' for Inactive)
REMARK    1  A    between atoms: S_2  and  C_4 
REMARK    2  A    between atoms: S_2  and  C_11 
REMARK    3  A    between atoms: C_4  and  C_5 
REMARK    4  A    between atoms: C_5  and  N_6 
REMARK    5  A    between atoms: N_6  and  C_7 
REMARK    6  A    between atoms: C_7  and  C_8 
REMARK    7  A    between atoms: C_8  and  C_9 
REMARK    8  A    between atoms: C_9  and  O_10 
REMARK    9  A    between atoms: C_14  and  N_17 
REMARK       I    between atoms: N_17  and  C_18 
REMARK   10  A    between atoms: C_21  and  O_30 
REMARK   11  A    between atoms: O_30  and  C_31 
REMARK   12  A    between atoms: C_31  and  C_32 
ROOT
HETATM    1  N   UNK N   1      34.857  16.696  10.804  0.00  0.00    -0.192 N 
HETATM    2  C   UNK N   1      35.754  15.645  11.091  0.00  0.00     0.686 A 
HETATM    3  N   UNK N   1      35.561  14.882  12.207  0.00  0.00    -0.168 N 
ATOM      4  HN  UNK N   1      34.885  15.186  12.909  1.00  0.00     0.186 HD
HETATM    5  C   UNK N   1      36.255  13.720  12.401  0.00  0.00     0.188 A 
HETATM    6  C   UNK N   1      37.160  13.337  11.422  0.00  0.00     0.130 A 
HETATM    7  N   UNK N   1      37.939  12.253  11.339  0.00  0.00    -0.346 N 
ATOM      8  HN  UNK N   1      38.019  11.485  12.006  1.00  0.00     0.167 HD
HETATM    9  C   UNK N   1      38.604  12.409  10.160  0.00  0.00     0.182 A 
HETATM   10  N   UNK N   1      38.250  13.559   9.523  0.00  0.00    -0.336 N 
HETATM   11  C   UNK N   1      37.349  14.112  10.342  0.00  0.00     0.153 A 
HETATM   12  N   UNK N   1      36.666  15.255  10.142  0.00  0.00    -0.174 N 
ATOM     13  HN  UNK N   1      36.822  15.818   9.306  1.00  0.00     0.186 HD
HETATM   14  H   UNK N   1      34.646  17.379  11.481  0.00  0.00     0.184 HD
HETATM   15  H   UNK N   1      38.581  13.903   8.663  0.00  0.00     0.168 HD
ENDROOT
BRANCH   1  16
HETATM   16  C   UNK N   1      34.267  16.743   9.517  0.00  0.00     0.049 A 
HETATM   17  C   UNK N   1      33.404  15.736   9.094  0.00  0.00     0.031 A 
HETATM   18  C   UNK N   1      32.774  15.852   7.851  0.00  0.00     0.026 A 
HETATM   19  C   UNK N   1      33.008  16.981   7.030  0.00  0.00     0.059 A 
HETATM   20  C   UNK N   1      33.917  17.950   7.437  0.00  0.00     0.026 A 
HETATM   21  C   UNK N   1      34.544  17.828   8.664  0.00  0.00     0.031 A 
BRANCH  19  22
HETATM   22  S   UNK N   1      32.105  17.247   5.493  0.00  0.00     0.177 S 
HETATM   23  O   UNK N   1      31.632  15.839   5.893  0.00  0.00    -0.223 OA
HETATM   24  O   UNK N   1      33.200  16.680   4.581  0.00  0.00    -0.223 OA
BRANCH  22  25
HETATM   25  C   UNK N   1      30.755  16.896   4.321  0.00  0.00     0.165 C 
BRANCH  25  26
HETATM   26  C   UNK N   1      29.416  16.745   5.017  0.00  0.00     0.129 C 
BRANCH  26  27
HETATM   27  N   UNK N   1      29.204  17.869   5.914  0.00  0.00    -0.420 N 
HETATM   28  H   UNK N   1      29.440  18.845   5.732  0.00  0.00     0.153 HD
BRANCH  27  29
HETATM   29  C   UNK N   1      28.592  17.338   7.120  0.00  0.00     0.115 C 
BRANCH  29  30
HETATM   30  C   UNK N   1      29.521  17.514   8.311  0.00  0.00     0.045 C 
BRANCH  30  31
HETATM   31  C   UNK N   1      28.736  17.690   9.601  0.00  0.00     0.165 C 
BRANCH  31  32
HETATM   32  O   UNK N   1      27.458  18.176   9.325  0.00  0.00    -0.401 OA
HETATM   33  H   UNK N   1      26.688  17.587   9.382  0.00  0.00     0.209 HD
ENDBRANCH  31  32
ENDBRANCH  30  31
ENDBRANCH  29  30
ENDBRANCH  27  29
ENDBRANCH  26  27
ENDBRANCH  25  26
ENDBRANCH  22  25
ENDBRANCH  19  22
ENDBRANCH   1  16
BRANCH   5  34
HETATM   34  O   UNK N   1      36.055  12.970  13.511  0.00  0.00    -0.333 OA
BRANCH  34  35
HETATM   35  C   UNK N   1      35.906  13.557  14.751  0.00  0.00     0.182 C 
BRANCH  35  36
HETATM   36  C   UNK N   1      34.702  12.944  15.462  0.00  0.00     0.010 C 
HETATM   37  C   UNK N   1      34.140  11.744  14.689  0.00  0.00     0.007 C 
HETATM   38  C   UNK N   1      34.359  10.409  15.401  0.00  0.00     0.000 C 
HETATM   39  C   UNK N   1      35.742  10.367  16.038  0.00  0.00     0.000 C 
HETATM   40  C   UNK N   1      35.907  11.445  17.119  0.00  0.00     0.000 C 
HETATM   41  C   UNK N   1      34.982  12.655  16.934  0.00  0.00     0.007 C 
ENDBRANCH  35  36
ENDBRANCH  34  35
ENDBRANCH   5  34
TORSDOF 12
ENDMDL
MODEL 2
REMARK VINA RESULT:      -7.4      2.909     10.080
REMARK  12 active torsions:
REMARK  status: ('A' for Active; 'I' for Inactive)
REMARK    1  A    between atoms: S_2  and  C_4 
REMARK    2  A    between atoms: S_2  and  C_11 
REMARK    3  A    between atoms: C_4  and  C_5 
REMARK    4  A    between atoms: C_5  and  N_6 
REMARK    5  A    between atoms: N_6  and  C_7 
REMARK    6  A    between atoms: C_7  and  C_8 
REMARK    7  A    between atoms: C_8  and  C_9 
REMARK    8  A    between atoms: C_9  and  O_10 
REMARK    9  A    between atoms: C_14  and  N_17 
REMARK       I    between atoms: N_17  and  C_18 
REMARK   10  A    between atoms: C_21  and  O_30 
REMARK   11  A    between atoms: O_30  and  C_31 
REMARK   12  A    between atoms: C_31  and  C_32 
ROOT
HETATM    1  N   UNK N   1      34.115  17.108   8.143  0.00  0.00    -0.192 N 
HETATM    2  C   UNK N   1      32.737  17.353   7.961  0.00  0.00     0.686 A 
HETATM    3  N   UNK N   1      32.167  17.115   6.743  0.00  0.00    -0.168 N 
ATOM      4  HN  UNK N   1      32.767  16.936   5.937  1.00  0.00     0.186 HD
HETATM    5  C   UNK N   1      30.809  17.111   6.584  0.00  0.00     0.188 A 
HETATM    6  C   UNK N   1      30.027  17.353   7.704  0.00  0.00     0.130 A 
HETATM    7  N   UNK N   1      28.696  17.380   7.841  0.00  0.00    -0.346 N 
ATOM      8  HN  UNK N   1      27.988  17.229   7.122  1.00  0.00     0.167 HD
HETATM    9  C   UNK N   1      28.504  17.657   9.162  0.00  0.00     0.182 A 
HETATM   10  N   UNK N   1      29.680  17.799   9.831  0.00  0.00    -0.336 N 
HETATM   11  C   UNK N   1      30.608  17.604   8.888  0.00  0.00     0.153 A 
HETATM   12  N   UNK N   1      31.944  17.605   9.053  0.00  0.00    -0.174 N 
ATOM     13  HN  UNK N   1      32.358  17.787   9.967  1.00  0.00     0.186 HD
HETATM   14  H   UNK N   1      34.781  17.494   7.530  0.00  0.00     0.184 HD
HETATM   15  H   UNK N   1      29.815  17.999  10.785  0.00  0.00     0.168 HD
ENDROOT
BRANCH   1  16
HETATM   16  C   UNK N   1      34.515  16.293   9.231  0.00  0.00     0.049 A 
HETATM   17  C   UNK N   1      34.191  14.939   9.260  0.00  0.00     0.031 A 
HETATM   18  C   UNK N   1      34.670  14.144  10.306  0.00  0.00     0.026 A 
HETATM   19  C   UNK N   1      35.476  14.706  11.325  0.00  0.00     0.059 A 
HETATM   20  C   UNK N   1      35.742  16.070  11.317  0.00  0.00     0.026 A 
HETATM   21  C   UNK N   1      35.260  16.855  10.284  0.00  0.00     0.031 A 
BRANCH  19  22
HETATM   22  S   UNK N   1      36.239  13.694  12.606  0.00  0.00     0.177 S 
HETATM   23  O   UNK N   1      34.746  13.564  12.953  0.00  0.00    -0.223 OA
HETATM   24  O   UNK N   1      36.429  14.842  13.605  0.00  0.00    -0.223 OA
BRANCH  22  25
HETATM   25  C   UNK N   1      36.205  12.401  13.889  0.00  0.00     0.165 C 
BRANCH  25  26
HETATM   26  C   UNK N   1      36.660  12.921  15.240  0.00  0.00     0.129 C 
BRANCH  26  27
HETATM   27  N   UNK N   1      35.516  13.444  15.969  0.00  0.00    -0.420 N 
HETATM   28  H   UNK N   1      35.245  14.424  16.055  0.00  0.00     0.153 HD
BRANCH  27  29
HETATM   29  C   UNK N   1      34.831  12.304  16.554  0.00  0.00     0.115 C 
BRANCH  29  30
HETATM   30  C   UNK N   1      35.307  12.071  17.979  0.00  0.00     0.045 C 
BRANCH  30  31
HETATM   31  C   UNK N   1      35.207  13.342  18.808  0.00  0.00     0.165 C 
BRANCH  31  32
HETATM   32  O   UNK N   1      34.969  13.027  20.147  0.00  0.00    -0.401 OA
HETATM   33  H   UNK N   1      34.098  13.196  20.542  0.00  0.00     0.209 HD
ENDBRANCH  31  32
ENDBRANCH  30  31
ENDBRANCH  29  30
ENDBRANCH  27  29
ENDBRANCH  26  27
ENDBRANCH  25  26
ENDBRANCH  22  25
ENDBRANCH  19  22
ENDBRANCH   1  16
BRANCH   5  34
HETATM   34  O   UNK N   1      30.254  16.873   5.371  0.00  0.00    -0.333 OA
BRANCH  34  35
HETATM   35  C   UNK N   1      30.151  15.590   4.875  0.00  0.00     0.182 C 
BRANCH  35  36
HETATM   36  C   UNK N   1      30.705  15.550   3.453  0.00  0.00     0.010 C 
HETATM   37  C   UNK N   1      31.572  16.778   3.149  0.00  0.00     0.007 C 
HETATM   38  C   UNK N   1      33.055  16.449   2.991  0.00  0.00     0.000 C 
HETATM   39  C   UNK N   1      33.482  15.411   4.021  0.00  0.00     0.000 C 
HETATM   40  C   UNK N   1      32.740  14.080   3.833  0.00  0.00     0.000 C 
HETATM   41  C   UNK N   1      31.383  14.220   3.131  0.00  0.00     0.007 C 
ENDBRANCH  35  36
ENDBRANCH  34  35
ENDBRANCH   5  34
TORSDOF 12
ENDMDL
MODEL 3
REMARK VINA RESULT:      -7.4      1.518      1.958
REMARK  12 active torsions:
REMARK  status: ('A' for Active; 'I' for Inactive)
REMARK    1  A    between atoms: S_2  and  C_4 
REMARK    2  A    between atoms: S_2  and  C_11 
REMARK    3  A    between atoms: C_4  and  C_5 
REMARK    4  A    between atoms: C_5  and  N_6 
REMARK    5  A    between atoms: N_6  and  C_7 
REMARK    6  A    between atoms: C_7  and  C_8 
REMARK    7  A    between atoms: C_8  and  C_9 
REMARK    8  A    between atoms: C_9  and  O_10 
REMARK    9  A    between atoms: C_14  and  N_17 
REMARK       I    between atoms: N_17  and  C_18 
REMARK   10  A    between atoms: C_21  and  O_30 
REMARK   11  A    between atoms: O_30  and  C_31 
REMARK   12  A    between atoms: C_31  and  C_32 
ROOT
HETATM    1  N   UNK N   1      34.936  17.090  10.359  0.00  0.00    -0.192 N 
HETATM    2  C   UNK N   1      35.762  16.039  10.812  0.00  0.00     0.686 A 
HETATM    3  N   UNK N   1      35.814  15.753  12.146  0.00  0.00    -0.168 N 
ATOM      4  HN  UNK N   1      35.401  16.404  12.813  1.00  0.00     0.186 HD
HETATM    5  C   UNK N   1      36.408  14.609  12.603  0.00  0.00     0.188 A 
HETATM    6  C   UNK N   1      36.953  13.745  11.665  0.00  0.00     0.130 A 
HETATM    7  N   UNK N   1      37.559  12.562  11.825  0.00  0.00    -0.346 N 
ATOM      8  HN  UNK N   1      37.743  12.065  12.697  1.00  0.00     0.167 HD
HETATM    9  C   UNK N   1      37.874  12.175  10.557  0.00  0.00     0.182 A 
HETATM   10  N   UNK N   1      37.477  13.089   9.630  0.00  0.00    -0.336 N 
HETATM   11  C   UNK N   1      36.908  14.055  10.359  0.00  0.00     0.153 A 
HETATM   12  N   UNK N   1      36.321  15.177   9.902  0.00  0.00    -0.174 N 
ATOM     13  HN  UNK N   1      36.292  15.382   8.903  1.00  0.00     0.186 HD
HETATM   14  H   UNK N   1      34.998  17.988  10.756  0.00  0.00     0.184 HD
HETATM   15  H   UNK N   1      37.585  13.049   8.653  0.00  0.00     0.168 HD
ENDROOT
BRANCH   1  16
HETATM   16  C   UNK N   1      34.013  16.819   9.318  0.00  0.00     0.049 A 
HETATM   17  C   UNK N   1      33.189  15.698   9.374  0.00  0.00     0.031 A 
HETATM   18  C   UNK N   1      32.233  15.502   8.374  0.00  0.00     0.026 A 
HETATM   19  C   UNK N   1      32.101  16.430   7.314  0.00  0.00     0.059 A 
HETATM   20  C   UNK N   1      32.969  17.512   7.236  0.00  0.00     0.026 A 
HETATM   21  C   UNK N   1      33.919  17.699   8.225  0.00  0.00     0.031 A 
BRANCH  19  22
HETATM   22  S   UNK N   1      30.786  16.300   6.088  0.00  0.00     0.177 S 
HETATM   23  O   UNK N   1      31.635  17.446   5.514  0.00  0.00    -0.223 OA
HETATM   24  O   UNK N   1      29.836  17.281   6.788  0.00  0.00    -0.223 OA
BRANCH  22  25
HETATM   25  C   UNK N   1      30.074  16.579   4.434  0.00  0.00     0.165 C 
BRANCH  25  26
HETATM   26  C   UNK N   1      28.732  17.284   4.499  0.00  0.00     0.129 C 
BRANCH  26  27
HETATM   27  N   UNK N   1      28.937  18.723   4.448  0.00  0.00    -0.420 N 
HETATM   28  H   UNK N   1      29.825  19.215   4.543  0.00  0.00     0.153 HD
BRANCH  27  29
HETATM   29  C   UNK N   1      27.632  19.327   4.235  0.00  0.00     0.115 C 
BRANCH  29  30
HETATM   30  C   UNK N   1      27.470  20.564   5.106  0.00  0.00     0.045 C 
BRANCH  30  31
HETATM   31  C   UNK N   1      27.080  20.190   6.527  0.00  0.00     0.165 C 
BRANCH  31  32
HETATM   32  O   UNK N   1      28.163  19.609   7.188  0.00  0.00    -0.401 OA
HETATM   33  H   UNK N   1      28.189  18.650   7.335  0.00  0.00     0.209 HD
ENDBRANCH  31  32
ENDBRANCH  30  31
ENDBRANCH  29  30
ENDBRANCH  27  29
ENDBRANCH  26  27
ENDBRANCH  25  26
ENDBRANCH  22  25
ENDBRANCH  19  22
ENDBRANCH   1  16
BRANCH   5  34
HETATM   34  O   UNK N   1      36.453  14.333  13.929  0.00  0.00    -0.333 OA
BRANCH  34  35
HETATM   35  C   UNK N   1      35.573  13.437  14.501  0.00  0.00     0.182 C 
BRANCH  35  36
HETATM   36  C   UNK N   1      36.285  12.662  15.606  0.00  0.00     0.010 C 
HETATM   37  C   UNK N   1      35.409  12.527  16.858  0.00  0.00     0.007 C 
HETATM   38  C   UNK N   1      34.938  11.097  17.117  0.00  0.00     0.000 C 
HETATM   39  C   UNK N   1      34.562  10.416  15.807  0.00  0.00     0.000 C 
HETATM   40  C   UNK N   1      35.766  10.290  14.862  0.00  0.00     0.000 C 
HETATM   41  C   UNK N   1      36.860  11.337  15.109  0.00  0.00     0.007 C 
ENDBRANCH  35  36
ENDBRANCH  34  35
ENDBRANCH   5  34
TORSDOF 12
ENDMDL
MODEL 4
REMARK VINA RESULT:      -7.2      4.219     12.135
REMARK  12 active torsions:
REMARK  status: ('A' for Active; 'I' for Inactive)
REMARK    1  A    between atoms: S_2  and  C_4 
REMARK    2  A    between atoms: S_2  and  C_11 
REMARK    3  A    between atoms: C_4  and  C_5 
REMARK    4  A    between atoms: C_5  and  N_6 
REMARK    5  A    between atoms: N_6  and  C_7 
REMARK    6  A    between atoms: C_7  and  C_8 
REMARK    7  A    between atoms: C_8  and  C_9 
REMARK    8  A    between atoms: C_9  and  O_10 
REMARK    9  A    between atoms: C_14  and  N_17 
REMARK       I    between atoms: N_17  and  C_18 
REMARK   10  A    between atoms: C_21  and  O_30 
REMARK   11  A    between atoms: O_30  and  C_31 
REMARK   12  A    between atoms: C_31  and  C_32 
ROOT
HETATM    1  N   UNK N   1      29.186  16.934   3.362  0.00  0.00    -0.192 N 
HETATM    2  C   UNK N   1      28.199  17.794   3.891  0.00  0.00     0.686 A 
HETATM    3  N   UNK N   1      26.924  17.334   4.054  0.00  0.00    -0.168 N 
ATOM      4  HN  UNK N   1      26.656  16.444   3.634  1.00  0.00     0.186 HD
HETATM    5  C   UNK N   1      26.000  18.043   4.772  0.00  0.00     0.188 A 
HETATM    6  C   UNK N   1      26.404  19.245   5.334  0.00  0.00     0.130 A 
HETATM    7  N   UNK N   1      25.729  20.115   6.095  0.00  0.00    -0.346 N 
ATOM      8  HN  UNK N   1      24.760  20.055   6.408  1.00  0.00     0.167 HD
HETATM    9  C   UNK N   1      26.635  21.100   6.356  0.00  0.00     0.182 A 
HETATM   10  N   UNK N   1      27.840  20.854   5.775  0.00  0.00    -0.336 N 
HETATM   11  C   UNK N   1      27.657  19.689   5.144  0.00  0.00     0.153 A 
HETATM   12  N   UNK N   1      28.573  18.994   4.443  0.00  0.00    -0.174 N 
ATOM     13  HN  UNK N   1      29.521  19.350   4.325  1.00  0.00     0.186 HD
HETATM   14  H   UNK N   1      29.035  16.452   2.518  0.00  0.00     0.184 HD
HETATM   15  H   UNK N   1      28.655  21.404   5.810  0.00  0.00     0.168 HD
ENDROOT
BRANCH   1  16
HETATM   16  C   UNK N   1      30.398  16.781   4.080  0.00  0.00     0.049 A 
HETATM   17  C   UNK N   1      31.588  17.308   3.584  0.00  0.00     0.031 A 
HETATM   18  C   UNK N   1      32.751  17.213   4.353  0.00  0.00     0.026 A 
HETATM   19  C   UNK N   1      32.723  16.589   5.623  0.00  0.00     0.059 A 
HETATM   20  C   UNK N   1      31.544  16.015   6.081  0.00  0.00     0.026 A 
HETATM   21  C   UNK N   1      30.396  16.105   5.313  0.00  0.00     0.031 A 
BRANCH  19  22
HETATM   22  S   UNK N   1      34.158  16.577   6.713  0.00  0.00     0.177 S 
HETATM   23  O   UNK N   1      33.007  16.764   7.715  0.00  0.00    -0.223 OA
HETATM   24  O   UNK N   1      34.411  18.088   6.637  0.00  0.00    -0.223 OA
BRANCH  22  25
HETATM   25  C   UNK N   1      34.964  16.386   8.336  0.00  0.00     0.165 C 
BRANCH  25  26
HETATM   26  C   UNK N   1      34.082  16.864   9.474  0.00  0.00     0.129 C 
BRANCH  26  27
HETATM   27  N   UNK N   1      34.387  16.106  10.677  0.00  0.00    -0.420 N 
HETATM   28  H   UNK N   1      33.714  15.708  11.332  0.00  0.00     0.153 HD
BRANCH  27  29
HETATM   29  C   UNK N   1      35.835  16.025  10.768  0.00  0.00     0.115 C 
BRANCH  29  30
HETATM   30  C   UNK N   1      36.259  14.666  11.303  0.00  0.00     0.045 C 
BRANCH  30  31
HETATM   31  C   UNK N   1      35.509  14.317  12.579  0.00  0.00     0.165 C 
BRANCH  31  32
HETATM   32  O   UNK N   1      34.389  13.539  12.282  0.00  0.00    -0.401 OA
HETATM   33  H   UNK N   1      33.752  13.833  11.612  0.00  0.00     0.209 HD
ENDBRANCH  31  32
ENDBRANCH  30  31
ENDBRANCH  29  30
ENDBRANCH  27  29
ENDBRANCH  26  27
ENDBRANCH  25  26
ENDBRANCH  22  25
ENDBRANCH  19  22
ENDBRANCH   1  16
BRANCH   5  34
HETATM   34  O   UNK N   1      24.738  17.577   4.929  0.00  0.00    -0.333 OA
BRANCH  34  35
HETATM   35  C   UNK N   1      23.792  17.732   3.937  0.00  0.00     0.182 C 
BRANCH  35  36
HETATM   36  C   UNK N   1      22.739  18.740   4.392  0.00  0.00     0.010 C 
HETATM   37  C   UNK N   1      22.357  19.706   3.264  0.00  0.00     0.007 C 
HETATM   38  C   UNK N   1      20.933  19.503   2.749  0.00  0.00     0.000 C 
HETATM   39  C   UNK N   1      20.603  18.018   2.669  0.00  0.00     0.000 C 
HETATM   40  C   UNK N   1      20.644  17.347   4.050  0.00  0.00     0.000 C 
HETATM   41  C   UNK N   1      21.544  18.068   5.062  0.00  0.00     0.007 C 
ENDBRANCH  35  36
ENDBRANCH  34  35
ENDBRANCH   5  34
TORSDOF 12
ENDMDL
MODEL 5
REMARK VINA RESULT:      -7.0      6.677     10.735
REMARK  12 active torsions:
REMARK  status: ('A' for Active; 'I' for Inactive)
REMARK    1  A    between atoms: S_2  and  C_4 
REMARK    2  A    between atoms: S_2  and  C_11 
REMARK    3  A    between atoms: C_4  and  C_5 
REMARK    4  A    between atoms: C_5  and  N_6 
REMARK    5  A    between atoms: N_6  and  C_7 
REMARK    6  A    between atoms: C_7  and  C_8 
REMARK    7  A    between atoms: C_8  and  C_9 
REMARK    8  A    between atoms: C_9  and  O_10 
REMARK    9  A    between atoms: C_14  and  N_17 
REMARK       I    between atoms: N_17  and  C_18 
REMARK   10  A    between atoms: C_21  and  O_30 
REMARK   11  A    between atoms: O_30  and  C_31 
REMARK   12  A    between atoms: C_31  and  C_32 
ROOT
HETATM    1  N   UNK N   1      27.698  19.649   4.532  0.00  0.00    -0.192 N 
HETATM    2  C   UNK N   1      28.396  18.425   4.449  0.00  0.00     0.686 A 
HETATM    3  N   UNK N   1      29.072  17.961   5.541  0.00  0.00    -0.168 N 
ATOM      4  HN  UNK N   1      29.215  18.580   6.340  1.00  0.00     0.186 HD
HETATM    5  C   UNK N   1      29.561  16.685   5.584  0.00  0.00     0.188 A 
HETATM    6  C   UNK N   1      29.342  15.872   4.481  0.00  0.00     0.130 A 
HETATM    7  N   UNK N   1      29.678  14.595   4.266  0.00  0.00    -0.346 N 
ATOM      8  HN  UNK N   1      30.179  13.964   4.892  1.00  0.00     0.167 HD
HETATM    9  C   UNK N   1      29.198  14.330   3.018  0.00  0.00     0.182 A 
HETATM   10  N   UNK N   1      28.581  15.411   2.469  0.00  0.00    -0.336 N 
HETATM   11  C   UNK N   1      28.692  16.354   3.410  0.00  0.00     0.153 A 
HETATM   12  N   UNK N   1      28.204  17.608   3.362  0.00  0.00    -0.174 N 
ATOM     13  HN  UNK N   1      27.704  17.944   2.540  1.00  0.00     0.186 HD
HETATM   14  H   UNK N   1      28.146  20.464   4.853  0.00  0.00     0.184 HD
HETATM   15  H   UNK N   1      28.153  15.482   1.585  0.00  0.00     0.168 HD
ENDROOT
BRANCH   1  16
HETATM   16  C   UNK N   1      26.336  19.673   4.142  0.00  0.00     0.049 A 
HETATM   17  C   UNK N   1      25.394  18.887   4.800  0.00  0.00     0.031 A 
HETATM   18  C   UNK N   1      24.046  18.994   4.446  0.00  0.00     0.026 A 
HETATM   19  C   UNK N   1      23.640  19.892   3.431  0.00  0.00     0.059 A 
HETATM   20  C   UNK N   1      24.595  20.628   2.741  0.00  0.00     0.026 A 
HETATM   21  C   UNK N   1      25.930  20.513   3.089  0.00  0.00     0.031 A 
BRANCH  19  22
HETATM   22  S   UNK N   1      21.902  20.175   3.047  0.00  0.00     0.177 S 
HETATM   23  O   UNK N   1      21.986  18.641   3.000  0.00  0.00    -0.223 OA
HETATM   24  O   UNK N   1      22.104  20.288   1.531  0.00  0.00    -0.223 OA
BRANCH  22  25
HETATM   25  C   UNK N   1      20.162  19.652   2.913  0.00  0.00     0.165 C 
BRANCH  25  26
HETATM   26  C   UNK N   1      20.027  18.155   2.706  0.00  0.00     0.129 C 
BRANCH  26  27
HETATM   27  N   UNK N   1      19.211  17.898   1.531  0.00  0.00    -0.420 N 
HETATM   28  H   UNK N   1      18.243  18.186   1.388  0.00  0.00     0.153 HD
BRANCH  27  29
HETATM   29  C   UNK N   1      20.038  17.152   0.598  0.00  0.00     0.115 C 
BRANCH  29  30
HETATM   30  C   UNK N   1      19.294  15.925   0.091  0.00  0.00     0.045 C 
BRANCH  30  31
HETATM   31  C   UNK N   1      19.646  14.691   0.906  0.00  0.00     0.165 C 
BRANCH  31  32
HETATM   32  O   UNK N   1      18.854  14.629   2.053  0.00  0.00    -0.401 OA
HETATM   33  H   UNK N   1      18.912  13.863   2.647  0.00  0.00     0.209 HD
ENDBRANCH  31  32
ENDBRANCH  30  31
ENDBRANCH  29  30
ENDBRANCH  27  29
ENDBRANCH  26  27
ENDBRANCH  25  26
ENDBRANCH  22  25
ENDBRANCH  19  22
ENDBRANCH   1  16
BRANCH   5  34
HETATM   34  O   UNK N   1      30.229  16.234   6.673  0.00  0.00    -0.333 OA
BRANCH  34  35
HETATM   35  C   UNK N   1      30.729  17.110   7.615  0.00  0.00     0.182 C 
BRANCH  35  36
HETATM   36  C   UNK N   1      31.950  16.488   8.289  0.00  0.00     0.010 C 
HETATM   37  C   UNK N   1      32.453  15.258   7.523  0.00  0.00     0.007 C 
HETATM   38  C   UNK N   1      33.806  15.477   6.847  0.00  0.00     0.000 C 
HETATM   39  C   UNK N   1      33.879  16.874   6.243  0.00  0.00     0.000 C 
HETATM   40  C   UNK N   1      33.769  17.968   7.316  0.00  0.00     0.000 C 
HETATM   41  C   UNK N   1      33.036  17.518   8.587  0.00  0.00     0.007 C 
ENDBRANCH  35  36
ENDBRANCH  34  35
ENDBRANCH   5  34
TORSDOF 12
ENDMDL
MODEL 6
REMARK VINA RESULT:      -7.0      2.855     10.390
REMARK  12 active torsions:
REMARK  status: ('A' for Active; 'I' for Inactive)
REMARK    1  A    between atoms: S_2  and  C_4 
REMARK    2  A    between atoms: S_2  and  C_11 
REMARK    3  A    between atoms: C_4  and  C_5 
REMARK    4  A    between atoms: C_5  and  N_6 
REMARK    5  A    between atoms: N_6  and  C_7 
REMARK    6  A    between atoms: C_7  and  C_8 
REMARK    7  A    between atoms: C_8  and  C_9 
REMARK    8  A    between atoms: C_9  and  O_10 
REMARK    9  A    between atoms: C_14  and  N_17 
REMARK       I    between atoms: N_17  and  C_18 
REMARK   10  A    between atoms: C_21  and  O_30 
REMARK   11  A    between atoms: O_30  and  C_31 
REMARK   12  A    between atoms: C_31  and  C_32 
ROOT
HETATM    1  N   UNK N   1      33.643  17.396   7.515  0.00  0.00    -0.192 N 
HETATM    2  C   UNK N   1      32.243  17.534   7.639  0.00  0.00     0.686 A 
HETATM    3  N   UNK N   1      31.445  17.281   6.561  0.00  0.00    -0.168 N 
ATOM      4  HN  UNK N   1      31.869  17.170   5.640  1.00  0.00     0.186 HD
HETATM    5  C   UNK N   1      30.088  17.174   6.693  0.00  0.00     0.188 A 
HETATM    6  C   UNK N   1      29.549  17.325   7.962  0.00  0.00     0.130 A 
HETATM    7  N   UNK N   1      28.280  17.243   8.380  0.00  0.00    -0.346 N 
ATOM      8  HN  UNK N   1      27.447  17.053   7.822  1.00  0.00     0.167 HD
HETATM    9  C   UNK N   1      28.356  17.471   9.721  0.00  0.00     0.182 A 
HETATM   10  N   UNK N   1      29.635  17.690  10.131  0.00  0.00    -0.336 N 
HETATM   11  C   UNK N   1      30.350  17.593   9.006  0.00  0.00     0.153 A 
HETATM   12  N   UNK N   1      31.687  17.696   8.884  0.00  0.00    -0.174 N 
ATOM     13  HN  UNK N   1      32.273  17.889   9.696  1.00  0.00     0.186 HD
HETATM   14  H   UNK N   1      34.132  17.848   6.790  0.00  0.00     0.184 HD
HETATM   15  H   UNK N   1      29.957  17.877  11.042  0.00  0.00     0.168 HD
ENDROOT
BRANCH   1  16
HETATM   16  C   UNK N   1      34.324  16.589   8.459  0.00  0.00     0.049 A 
HETATM   17  C   UNK N   1      34.885  17.153   9.602  0.00  0.00     0.031 A 
HETATM   18  C   UNK N   1      35.479  16.320  10.555  0.00  0.00     0.026 A 
HETATM   19  C   UNK N   1      35.511  14.918  10.363  0.00  0.00     0.059 A 
HETATM   20  C   UNK N   1      35.003  14.373   9.191  0.00  0.00     0.026 A 
HETATM   21  C   UNK N   1      34.422  15.201   8.247  0.00  0.00     0.031 A 
BRANCH  19  22
HETATM   22  S   UNK N   1      36.129  13.796  11.630  0.00  0.00     0.177 S 
HETATM   23  O   UNK N   1      34.896  13.035  11.113  0.00  0.00    -0.223 OA
HETATM   24  O   UNK N   1      35.329  14.420  12.781  0.00  0.00    -0.223 OA
BRANCH  22  25
HETATM   25  C   UNK N   1      36.262  12.163  12.429  0.00  0.00     0.165 C 
BRANCH  25  26
HETATM   26  C   UNK N   1      34.990  11.349  12.287  0.00  0.00     0.129 C 
BRANCH  26  27
HETATM   27  N   UNK N   1      34.160  11.535  13.466  0.00  0.00    -0.420 N 
HETATM   28  H   UNK N   1      33.145  11.635  13.485  0.00  0.00     0.153 HD
BRANCH  27  29
HETATM   29  C   UNK N   1      35.053  11.551  14.612  0.00  0.00     0.115 C 
BRANCH  29  30
HETATM   30  C   UNK N   1      34.540  12.515  15.672  0.00  0.00     0.045 C 
BRANCH  30  31
HETATM   31  C   UNK N   1      35.689  13.205  16.391  0.00  0.00     0.165 C 
BRANCH  31  32
HETATM   32  O   UNK N   1      36.477  13.907  15.478  0.00  0.00    -0.401 OA
HETATM   33  H   UNK N   1      36.256  13.897  14.532  0.00  0.00     0.209 HD
ENDBRANCH  31  32
ENDBRANCH  30  31
ENDBRANCH  29  30
ENDBRANCH  27  29
ENDBRANCH  26  27
ENDBRANCH  25  26
ENDBRANCH  22  25
ENDBRANCH  19  22
ENDBRANCH   1  16
BRANCH   5  34
HETATM   34  O   UNK N   1      29.304  16.921   5.618  0.00  0.00    -0.333 OA
BRANCH  34  35
HETATM   35  C   UNK N   1      28.769  17.949   4.869  0.00  0.00     0.182 C 
BRANCH  35  36
HETATM   36  C   UNK N   1      27.454  18.404   5.498  0.00  0.00     0.010 C 
HETATM   37  C   UNK N   1      27.521  19.869   5.949  0.00  0.00     0.007 C 
HETATM   38  C   UNK N   1      26.640  20.800   5.119  0.00  0.00     0.000 C 
HETATM   39  C   UNK N   1      26.705  20.419   3.645  0.00  0.00     0.000 C 
HETATM   40  C   UNK N   1      26.164  19.004   3.395  0.00  0.00     0.000 C 
HETATM   41  C   UNK N   1      26.248  18.083   4.619  0.00  0.00     0.007 C 
ENDBRANCH  35  36
ENDBRANCH  34  35
ENDBRANCH   5  34
TORSDOF 12
ENDMDL
MODEL 7
REMARK VINA RESULT:      -6.9      4.739     11.186
REMARK  12 active torsions:
REMARK  status: ('A' for Active; 'I' for Inactive)
REMARK    1  A    between atoms: S_2  and  C_4 
REMARK    2  A    between atoms: S_2  and  C_11 
REMARK    3  A    between atoms: C_4  and  C_5 
REMARK    4  A    between atoms: C_5  and  N_6 
REMARK    5  A    between atoms: N_6  and  C_7 
REMARK    6  A    between atoms: C_7  and  C_8 
REMARK    7  A    between atoms: C_8  and  C_9 
REMARK    8  A    between atoms: C_9  and  O_10 
REMARK    9  A    between atoms: C_14  and  N_17 
REMARK       I    between atoms: N_17  and  C_18 
REMARK   10  A    between atoms: C_21  and  O_30 
REMARK   11  A    between atoms: O_30  and  C_31 
REMARK   12  A    between atoms: C_31  and  C_32 
ROOT
HETATM    1  N   UNK N   1      33.991  11.755  13.447  0.00  0.00    -0.192 N 
HETATM    2  C   UNK N   1      34.858  12.259  12.454  0.00  0.00     0.686 A 
HETATM    3  N   UNK N   1      34.448  13.296  11.666  0.00  0.00    -0.168 N 
ATOM      4  HN  UNK N   1      33.467  13.576  11.680  1.00  0.00     0.186 HD
HETATM    5  C   UNK N   1      35.326  13.966  10.860  0.00  0.00     0.188 A 
HETATM    6  C   UNK N   1      36.653  13.560  10.873  0.00  0.00     0.130 A 
HETATM    7  N   UNK N   1      37.713  14.046  10.218  0.00  0.00    -0.346 N 
ATOM      8  HN  UNK N   1      37.742  14.827   9.562  1.00  0.00     0.167 HD
HETATM    9  C   UNK N   1      38.747  13.258  10.628  0.00  0.00     0.182 A 
HETATM   10  N   UNK N   1      38.344  12.307  11.514  0.00  0.00    -0.336 N 
HETATM   11  C   UNK N   1      37.032  12.526  11.640  0.00  0.00     0.153 A 
HETATM   12  N   UNK N   1      36.173  11.864  12.439  0.00  0.00    -0.174 N 
ATOM     13  HN  UNK N   1      36.491  11.089  13.021  1.00  0.00     0.186 HD
HETATM   14  H   UNK N   1      33.070  11.487  13.223  0.00  0.00     0.184 HD
HETATM   15  H   UNK N   1      38.892  11.619  11.956  0.00  0.00     0.168 HD
ENDROOT
BRANCH   1  16
HETATM   16  C   UNK N   1      34.478  11.645  14.772  0.00  0.00     0.049 A 
HETATM   17  C   UNK N   1      34.869  12.778  15.481  0.00  0.00     0.031 A 
HETATM   18  C   UNK N   1      35.267  12.647  16.815  0.00  0.00     0.026 A 
HETATM   19  C   UNK N   1      35.274  11.377  17.440  0.00  0.00     0.059 A 
HETATM   20  C   UNK N   1      34.940  10.247  16.705  0.00  0.00     0.026 A 
HETATM   21  C   UNK N   1      34.553  10.380  15.383  0.00  0.00     0.031 A 
BRANCH  19  22
HETATM   22  S   UNK N   1      35.634  11.180  19.195  0.00  0.00     0.177 S 
HETATM   23  O   UNK N   1      36.592  10.157  18.563  0.00  0.00    -0.223 OA
HETATM   24  O   UNK N   1      34.565  10.109  19.444  0.00  0.00    -0.223 OA
BRANCH  22  25
HETATM   25  C   UNK N   1      36.682  10.652  20.589  0.00  0.00     0.165 C 
BRANCH  25  26
HETATM   26  C   UNK N   1      36.134   9.420  21.285  0.00  0.00     0.129 C 
BRANCH  26  27
HETATM   27  N   UNK N   1      35.434   9.817  22.496  0.00  0.00    -0.420 N 
HETATM   28  H   UNK N   1      35.613  10.650  23.056  0.00  0.00     0.153 HD
BRANCH  27  29
HETATM   29  C   UNK N   1      34.430   8.799  22.756  0.00  0.00     0.115 C 
BRANCH  29  30
HETATM   30  C   UNK N   1      33.160   9.432  23.303  0.00  0.00     0.045 C 
BRANCH  30  31
HETATM   31  C   UNK N   1      32.488  10.311  22.260  0.00  0.00     0.165 C 
BRANCH  31  32
HETATM   32  O   UNK N   1      32.984  11.613  22.335  0.00  0.00    -0.401 OA
HETATM   33  H   UNK N   1      32.375  12.367  22.378  0.00  0.00     0.209 HD
ENDBRANCH  31  32
ENDBRANCH  30  31
ENDBRANCH  29  30
ENDBRANCH  27  29
ENDBRANCH  26  27
ENDBRANCH  25  26
ENDBRANCH  22  25
ENDBRANCH  19  22
ENDBRANCH   1  16
BRANCH   5  34
HETATM   34  O   UNK N   1      34.909  14.994  10.083  0.00  0.00    -0.333 OA
BRANCH  34  35
HETATM   35  C   UNK N   1      33.576  15.153   9.766  0.00  0.00     0.182 C 
BRANCH  35  36
HETATM   36  C   UNK N   1      33.434  15.367   8.261  0.00  0.00     0.010 C 
HETATM   37  C   UNK N   1      31.993  15.725   7.874  0.00  0.00     0.007 C 
HETATM   38  C   UNK N   1      31.837  17.166   7.390  0.00  0.00     0.000 C 
HETATM   39  C   UNK N   1      32.691  18.106   8.231  0.00  0.00     0.000 C 
HETATM   40  C   UNK N   1      34.187  17.787   8.105  0.00  0.00     0.000 C 
HETATM   41  C   UNK N   1      34.480  16.333   7.711  0.00  0.00     0.007 C 
ENDBRANCH  35  36
ENDBRANCH  34  35
ENDBRANCH   5  34
TORSDOF 12
ENDMDL
MODEL 8
REMARK VINA RESULT:      -6.9      2.906      9.847
REMARK  12 active torsions:
REMARK  status: ('A' for Active; 'I' for Inactive)
REMARK    1  A    between atoms: S_2  and  C_4 
REMARK    2  A    between atoms: S_2  and  C_11 
REMARK    3  A    between atoms: C_4  and  C_5 
REMARK    4  A    between atoms: C_5  and  N_6 
REMARK    5  A    between atoms: N_6  and  C_7 
REMARK    6  A    between atoms: C_7  and  C_8 
REMARK    7  A    between atoms: C_8  and  C_9 
REMARK    8  A    between atoms: C_9  and  O_10 
REMARK    9  A    between atoms: C_14  and  N_17 
REMARK       I    between atoms: N_17  and  C_18 
REMARK   10  A    between atoms: C_21  and  O_30 
REMARK   11  A    between atoms: O_30  and  C_31 
REMARK   12  A    between atoms: C_31  and  C_32 
ROOT
HETATM    1  N   UNK N   1      34.072  16.900   8.270  0.00  0.00    -0.192 N 
HETATM    2  C   UNK N   1      32.733  17.283   8.036  0.00  0.00     0.686 A 
HETATM    3  N   UNK N   1      32.129  16.935   6.863  0.00  0.00    -0.168 N 
ATOM      4  HN  UNK N   1      32.696  16.562   6.101  1.00  0.00     0.186 HD
HETATM    5  C   UNK N   1      30.780  17.076   6.690  0.00  0.00     0.188 A 
HETATM    6  C   UNK N   1      30.043  17.581   7.751  0.00  0.00     0.130 A 
HETATM    7  N   UNK N   1      28.727  17.795   7.866  0.00  0.00    -0.346 N 
ATOM      8  HN  UNK N   1      28.000  17.625   7.171  1.00  0.00     0.167 HD
HETATM    9  C   UNK N   1      28.580  18.291   9.127  0.00  0.00     0.182 A 
HETATM   10  N   UNK N   1      29.770  18.387   9.780  0.00  0.00    -0.336 N 
HETATM   11  C   UNK N   1      30.659  17.936   8.889  0.00  0.00     0.153 A 
HETATM   12  N   UNK N   1      31.986  17.796   9.068  0.00  0.00    -0.174 N 
ATOM     13  HN  UNK N   1      32.426  18.063   9.948  1.00  0.00     0.186 HD
HETATM   14  H   UNK N   1      34.776  17.101   7.613  0.00  0.00     0.184 HD
HETATM   15  H   UNK N   1      29.936  18.712  10.694  0.00  0.00     0.168 HD
ENDROOT
BRANCH   1  16
HETATM   16  C   UNK N   1      34.374  16.217   9.474  0.00  0.00     0.049 A 
HETATM   17  C   UNK N   1      33.801  14.980   9.752  0.00  0.00     0.031 A 
HETATM   18  C   UNK N   1      34.182  14.293  10.909  0.00  0.00     0.026 A 
HETATM   19  C   UNK N   1      35.142  14.848  11.789  0.00  0.00     0.059 A 
HETATM   20  C   UNK N   1      35.663  16.110  11.532  0.00  0.00     0.026 A 
HETATM   21  C   UNK N   1      35.277  16.789  10.389  0.00  0.00     0.031 A 
BRANCH  19  22
HETATM   22  S   UNK N   1      35.775  13.935  13.208  0.00  0.00     0.177 S 
HETATM   23  O   UNK N   1      36.538  15.265  13.327  0.00  0.00    -0.223 OA
HETATM   24  O   UNK N   1      36.934  13.274  12.451  0.00  0.00    -0.223 OA
BRANCH  22  25
HETATM   25  C   UNK N   1      36.592  13.821  14.833  0.00  0.00     0.165 C 
BRANCH  25  26
HETATM   26  C   UNK N   1      35.867  12.877  15.775  0.00  0.00     0.129 C 
BRANCH  26  27
HETATM   27  N   UNK N   1      34.579  12.515  15.204  0.00  0.00    -0.420 N 
HETATM   28  H   UNK N   1      33.894  13.152  14.797  0.00  0.00     0.153 HD
BRANCH  27  29
HETATM   29  C   UNK N   1      34.455  11.073  15.325  0.00  0.00     0.115 C 
BRANCH  29  30
HETATM   30  C   UNK N   1      33.670  10.506  14.152  0.00  0.00     0.045 C 
BRANCH  30  31
HETATM   31  C   UNK N   1      34.507  10.494  12.882  0.00  0.00     0.165 C 
BRANCH  31  32
HETATM   32  O   UNK N   1      35.864  10.427  13.200  0.00  0.00    -0.401 OA
HETATM   33  H   UNK N   1      36.434   9.769  12.771  0.00  0.00     0.209 HD
ENDBRANCH  31  32
ENDBRANCH  30  31
ENDBRANCH  29  30
ENDBRANCH  27  29
ENDBRANCH  26  27
ENDBRANCH  25  26
ENDBRANCH  22  25
ENDBRANCH  19  22
ENDBRANCH   1  16
BRANCH   5  34
HETATM   34  O   UNK N   1      30.190  16.726   5.522  0.00  0.00    -0.333 OA
BRANCH  34  35
HETATM   35  C   UNK N   1      30.292  15.442   5.029  0.00  0.00     0.182 C 
BRANCH  35  36
HETATM   36  C   UNK N   1      30.745  15.491   3.571  0.00  0.00     0.010 C 
HETATM   37  C   UNK N   1      31.534  16.771   3.268  0.00  0.00     0.007 C 
HETATM   38  C   UNK N   1      33.015  16.518   2.992  0.00  0.00     0.000 C 
HETATM   39  C   UNK N   1      33.559  15.455   3.939  0.00  0.00     0.000 C 
HETATM   40  C   UNK N   1      32.863  14.101   3.738  0.00  0.00     0.000 C 
HETATM   41  C   UNK N   1      31.455  14.210   3.140  0.00  0.00     0.007 C 
ENDBRANCH  35  36
ENDBRANCH  34  35
ENDBRANCH   5  34
TORSDOF 12
ENDMDL
MODEL 9
REMARK VINA RESULT:      -6.8      2.268      3.506
REMARK  12 active torsions:
REMARK  status: ('A' for Active; 'I' for Inactive)
REMARK    1  A    between atoms: S_2  and  C_4 
REMARK    2  A    between atoms: S_2  and  C_11 
REMARK    3  A    between atoms: C_4  and  C_5 
REMARK    4  A    between atoms: C_5  and  N_6 
REMARK    5  A    between atoms: N_6  and  C_7 
REMARK    6  A    between atoms: C_7  and  C_8 
REMARK    7  A    between atoms: C_8  and  C_9 
REMARK    8  A    between atoms: C_9  and  O_10 
REMARK    9  A    between atoms: C_14  and  N_17 
REMARK       I    between atoms: N_17  and  C_18 
REMARK   10  A    between atoms: C_21  and  O_30 
REMARK   11  A    between atoms: O_30  and  C_31 
REMARK   12  A    between atoms: C_31  and  C_32 
ROOT
HETATM    1  N   UNK N   1      34.800  16.972  10.475  0.00  0.00    -0.192 N 
HETATM    2  C   UNK N   1      35.631  15.905  10.879  0.00  0.00     0.686 A 
HETATM    3  N   UNK N   1      35.441  15.331  12.102  0.00  0.00    -0.168 N 
ATOM      4  HN  UNK N   1      34.827  15.786  12.779  1.00  0.00     0.186 HD
HETATM    5  C   UNK N   1      36.056  14.156  12.439  0.00  0.00     0.188 A 
HETATM    6  C   UNK N   1      36.877  13.564  11.491  0.00  0.00     0.130 A 
HETATM    7  N   UNK N   1      37.570  12.420  11.539  0.00  0.00    -0.346 N 
ATOM      8  HN  UNK N   1      37.627  11.753  12.309  1.00  0.00     0.167 HD
HETATM    9  C   UNK N   1      38.181  12.349  10.323  0.00  0.00     0.182 A 
HETATM   10  N   UNK N   1      37.881  13.419   9.538  0.00  0.00    -0.336 N 
HETATM   11  C   UNK N   1      37.067  14.156  10.301  0.00  0.00     0.153 A 
HETATM   12  N   UNK N   1      36.461  15.309   9.962  0.00  0.00    -0.174 N 
ATOM     13  HN  UNK N   1      36.614  15.730   9.046  1.00  0.00     0.186 HD
HETATM   14  H   UNK N   1      34.676  17.761  11.051  0.00  0.00     0.184 HD
HETATM   15  H   UNK N   1      38.191  13.606   8.623  0.00  0.00     0.168 HD
ENDROOT
BRANCH   1  16
HETATM   16  C   UNK N   1      34.149  16.880   9.221  0.00  0.00     0.049 A 
HETATM   17  C   UNK N   1      34.473  17.753   8.186  0.00  0.00     0.031 A 
HETATM   18  C   UNK N   1      33.873  17.584   6.935  0.00  0.00     0.026 A 
HETATM   19  C   UNK N   1      32.946  16.537   6.718  0.00  0.00     0.059 A 
HETATM   20  C   UNK N   1      32.585  15.709   7.774  0.00  0.00     0.026 A 
HETATM   21  C   UNK N   1      33.177  15.884   9.013  0.00  0.00     0.031 A 
BRANCH  19  22
HETATM   22  S   UNK N   1      32.264  16.187   5.087  0.00  0.00     0.177 S 
HETATM   23  O   UNK N   1      33.595  16.869   4.729  0.00  0.00    -0.223 OA
HETATM   24  O   UNK N   1      31.492  17.507   4.966  0.00  0.00    -0.223 OA
BRANCH  22  25
HETATM   25  C   UNK N   1      32.402  15.945   3.287  0.00  0.00     0.165 C 
BRANCH  25  26
HETATM   26  C   UNK N   1      32.798  14.525   2.927  0.00  0.00     0.129 C 
BRANCH  26  27
HETATM   27  N   UNK N   1      34.248  14.425   2.868  0.00  0.00    -0.420 N 
HETATM   28  H   UNK N   1      34.868  14.949   2.250  0.00  0.00     0.153 HD
BRANCH  27  29
HETATM   29  C   UNK N   1      34.643  13.436   3.856  0.00  0.00     0.115 C 
BRANCH  29  30
HETATM   30  C   UNK N   1      35.668  14.023   4.815  0.00  0.00     0.045 C 
BRANCH  30  31
HETATM   31  C   UNK N   1      35.312  13.714   6.260  0.00  0.00     0.165 C 
BRANCH  31  32
HETATM   32  O   UNK N   1      35.992  14.577   7.120  0.00  0.00    -0.401 OA
HETATM   33  H   UNK N   1      36.776  15.059   6.810  0.00  0.00     0.209 HD
ENDBRANCH  31  32
ENDBRANCH  30  31
ENDBRANCH  29  30
ENDBRANCH  27  29
ENDBRANCH  26  27
ENDBRANCH  25  26
ENDBRANCH  22  25
ENDBRANCH  19  22
ENDBRANCH   1  16
BRANCH   5  34
HETATM   34  O   UNK N   1      35.859  13.594  13.655  0.00  0.00    -0.333 OA
BRANCH  34  35
HETATM   35  C   UNK N   1      34.900  12.620  13.844  0.00  0.00     0.182 C 
BRANCH  35  36
HETATM   36  C   UNK N   1      35.079  11.991  15.223  0.00  0.00     0.010 C 
HETATM   37  C   UNK N   1      34.296  10.678  15.352  0.00  0.00     0.007 C 
HETATM   38  C   UNK N   1      35.192   9.445  15.442  0.00  0.00     0.000 C 
HETATM   39  C   UNK N   1      36.374   9.575  14.489  0.00  0.00     0.000 C 
HETATM   40  C   UNK N   1      37.272  10.767  14.850  0.00  0.00     0.000 C 
HETATM   41  C   UNK N   1      36.548  11.876  15.624  0.00  0.00     0.007 C 
ENDBRANCH  35  36
ENDBRANCH  34  35
ENDBRANCH   5  34
TORSDOF 12
ENDMDL
