MODEL 1
REMARK VINA RESULT:      -6.9      0.000      0.000
REMARK  9 active torsions:
REMARK  status: ('A' for Active; 'I' for Inactive)
REMARK    1  A    between atoms: C_2  and  C_3 
REMARK       I    between atoms: C_2  and  N_13 
REMARK    2  A    between atoms: C_3  and  C_4 
REMARK    3  A    between atoms: C_3  and  C_8 
REMARK    4  A    between atoms: C_4  and  C_5 
REMARK    5  A    between atoms: C_5  and  C_6 
REMARK    6  A    between atoms: C_8  and  N_9 
REMARK    7  A    between atoms: N_9  and  O_10 
REMARK    8  A    between atoms: N_9  and  C_11 
REMARK    9  A    between atoms: C_14  and  C_18 
ROOT
HETATM    1  O   UNK N   1      30.415  15.458   6.761  0.00  0.00    -0.273 OA
HETATM    2  C   UNK N   1      31.396  16.174   6.590  0.00  0.00     0.226 C 
HETATM    3  N   UNK N   1      31.774  16.498   5.308  0.00  0.00    -0.340 N 
HETATM    4  C   UNK N   1      30.897  16.278   4.181  0.00  0.00     0.162 C 
HETATM    5  C   UNK N   1      31.650  16.832   2.980  0.00  0.00     0.035 C 
HETATM    6  C   UNK N   1      33.061  17.150   3.475  0.00  0.00     0.022 C 
HETATM    7  C   UNK N   1      32.974  17.214   4.991  0.00  0.00     0.127 C 
ENDROOT
BRANCH   2   8
HETATM    8  C   UNK N   1      32.019  16.855   7.796  0.00  0.00     0.098 C 
BRANCH   8   9
HETATM    9  C   UNK N   1      31.001  17.259   8.875  0.00  0.00     0.016 C 
BRANCH   9  10
HETATM   10  C   UNK N   1      30.236  18.543   8.608  0.00  0.00     0.001 C 
BRANCH  10  11
HETATM   11  C   UNK N   1      28.804  18.386   9.100  0.00  0.00    -0.005 C 
HETATM   12  C   UNK N   1      28.016  17.443   8.205  0.00  0.00     0.005 C 
ENDBRANCH  10  11
ENDBRANCH   9  10
ENDBRANCH   8   9
BRANCH   8  13
HETATM   13  C   UNK N   1      33.328  16.306   8.382  0.00  0.00     0.172 C 
BRANCH  13  14
HETATM   14  N   UNK N   1      34.245  17.283   8.911  0.00  0.00    -0.235 N 
BRANCH  14  15
HETATM   15  O   UNK N   1      34.661  17.220  10.182  0.00  0.00    -0.285 OA
HETATM   16  H   UNK N   1      34.507  17.373  11.128  0.00  0.00     0.245 HD
ENDBRANCH  14  15
BRANCH  14  17
HETATM   17  C   UNK N   1      34.540  18.360   8.151  0.00  0.00     0.376 C 
HETATM   18  O   UNK N   1      35.291  19.229   8.564  0.00  0.00    -0.281 OA
ENDBRANCH  14  17
ENDBRANCH  13  14
ENDBRANCH   8  13
ENDBRANCH   2   8
BRANCH   4  19
HETATM   19  C   UNK N   1      29.636  17.083   4.422  0.00  0.00     0.148 A 
HETATM   20  O   UNK N   1      29.586  18.286   4.968  0.00  0.00    -0.293 OA
HETATM   21  C   UNK N   1      28.364  18.732   4.785  0.00  0.00     0.104 A 
HETATM   22  C   UNK N   1      27.657  17.782   4.116  0.00  0.00     0.068 A 
HETATM   23  C   UNK N   1      27.810  19.962   5.116  0.00  0.00     0.040 A 
HETATM   24  N   UNK N   1      28.436  16.732   3.875  0.00  0.00    -0.336 N 
HETATM   25  C   UNK N   1      26.337  17.972   3.716  0.00  0.00     0.032 A 
ATOM     26  HN  UNK N   1      28.194  15.866   3.393  1.00  0.00     0.168 HD
HETATM   27  C   UNK N   1      25.740  19.204   4.031  0.00  0.00     0.002 A 
HETATM   28  C   UNK N   1      26.471  20.196   4.728  0.00  0.00     0.003 A 
ENDBRANCH   4  19
TORSDOF 9
ENDMDL
MODEL 2
REMARK VINA RESULT:      -6.3     11.534     14.037
REMARK  9 active torsions:
REMARK  status: ('A' for Active; 'I' for Inactive)
REMARK    1  A    between atoms: C_2  and  C_3 
REMARK       I    between atoms: C_2  and  N_13 
REMARK    2  A    between atoms: C_3  and  C_4 
REMARK    3  A    between atoms: C_3  and  C_8 
REMARK    4  A    between atoms: C_4  and  C_5 
REMARK    5  A    between atoms: C_5  and  C_6 
REMARK    6  A    between atoms: C_8  and  N_9 
REMARK    7  A    between atoms: N_9  and  O_10 
REMARK    8  A    between atoms: N_9  and  C_11 
REMARK    9  A    between atoms: C_14  and  C_18 
ROOT
HETATM    1  O   UNK N   1      26.882  24.665  -2.954  0.00  0.00    -0.273 OA
HETATM    2  C   UNK N   1      27.576  24.135  -3.816  0.00  0.00     0.226 C 
HETATM    3  N   UNK N   1      27.048  23.929  -5.069  0.00  0.00    -0.340 N 
HETATM    4  C   UNK N   1      25.829  24.578  -5.493  0.00  0.00     0.162 C 
HETATM    5  C   UNK N   1      25.636  24.152  -6.941  0.00  0.00     0.035 C 
HETATM    6  C   UNK N   1      26.681  23.067  -7.205  0.00  0.00     0.022 C 
HETATM    7  C   UNK N   1      27.720  23.203  -6.105  0.00  0.00     0.127 C 
ENDROOT
BRANCH   2   8
HETATM    8  C   UNK N   1      29.054  23.929  -3.535  0.00  0.00     0.098 C 
BRANCH   8   9
HETATM    9  C   UNK N   1      29.871  25.232  -3.526  0.00  0.00     0.016 C 
BRANCH   9  10
HETATM   10  C   UNK N   1      30.177  25.825  -4.889  0.00  0.00     0.001 C 
BRANCH  10  11
HETATM   11  C   UNK N   1      30.632  27.268  -4.719  0.00  0.00    -0.005 C 
HETATM   12  C   UNK N   1      30.100  27.861  -3.424  0.00  0.00     0.005 C 
ENDBRANCH  10  11
ENDBRANCH   9  10
ENDBRANCH   8   9
BRANCH   8  13
HETATM   13  C   UNK N   1      29.486  22.942  -2.441  0.00  0.00     0.172 C 
BRANCH  13  14
HETATM   14  N   UNK N   1      30.574  22.059  -2.777  0.00  0.00    -0.235 N 
BRANCH  14  15
HETATM   15  O   UNK N   1      31.730  22.104  -2.103  0.00  0.00    -0.285 OA
HETATM   16  H   UNK N   1      32.665  21.859  -2.016  0.00  0.00     0.245 HD
ENDBRANCH  14  15
BRANCH  14  17
HETATM   17  C   UNK N   1      30.465  21.307  -3.893  0.00  0.00     0.376 C 
HETATM   18  O   UNK N   1      31.071  21.606  -4.910  0.00  0.00    -0.281 OA
ENDBRANCH  14  17
ENDBRANCH  13  14
ENDBRANCH   8  13
ENDBRANCH   2   8
BRANCH   4  19
HETATM   19  C   UNK N   1      26.057  26.074  -5.415  0.00  0.00     0.148 A 
HETATM   20  O   UNK N   1      25.661  26.859  -4.429  0.00  0.00    -0.293 OA
HETATM   21  C   UNK N   1      26.247  28.021  -4.615  0.00  0.00     0.104 A 
HETATM   22  C   UNK N   1      27.012  27.940  -5.736  0.00  0.00     0.068 A 
HETATM   23  C   UNK N   1      26.211  29.168  -3.832  0.00  0.00     0.040 A 
HETATM   24  N   UNK N   1      26.909  26.722  -6.260  0.00  0.00    -0.336 N 
HETATM   25  C   UNK N   1      27.810  28.992  -6.178  0.00  0.00     0.032 A 
ATOM     26  HN  UNK N   1      27.362  26.358  -7.099  1.00  0.00     0.168 HD
HETATM   27  C   UNK N   1      27.803  30.170  -5.413  0.00  0.00     0.002 A 
HETATM   28  C   UNK N   1      27.008  30.259  -4.245  0.00  0.00     0.003 A 
ENDBRANCH   4  19
TORSDOF 9
ENDMDL
MODEL 3
REMARK VINA RESULT:      -6.3      5.911      9.744
REMARK  9 active torsions:
REMARK  status: ('A' for Active; 'I' for Inactive)
REMARK    1  A    between atoms: C_2  and  C_3 
REMARK       I    between atoms: C_2  and  N_13 
REMARK    2  A    between atoms: C_3  and  C_4 
REMARK    3  A    between atoms: C_3  and  C_8 
REMARK    4  A    between atoms: C_4  and  C_5 
REMARK    5  A    between atoms: C_5  and  C_6 
REMARK    6  A    between atoms: C_8  and  N_9 
REMARK    7  A    between atoms: N_9  and  O_10 
REMARK    8  A    between atoms: N_9  and  C_11 
REMARK    9  A    between atoms: C_14  and  C_18 
ROOT
HETATM    1  O   UNK N   1      22.992  18.192   5.519  0.00  0.00    -0.273 OA
HETATM    2  C   UNK N   1      23.169  18.753   4.442  0.00  0.00     0.226 C 
HETATM    3  N   UNK N   1      24.420  19.230   4.131  0.00  0.00    -0.340 N 
HETATM    4  C   UNK N   1      25.589  18.836   4.882  0.00  0.00     0.162 C 
HETATM    5  C   UNK N   1      26.757  19.513   4.180  0.00  0.00     0.035 C 
HETATM    6  C   UNK N   1      26.141  20.468   3.159  0.00  0.00     0.022 C 
HETATM    7  C   UNK N   1      24.705  20.013   2.965  0.00  0.00     0.127 C 
ENDROOT
BRANCH   2   8
HETATM    8  C   UNK N   1      22.059  18.702   3.405  0.00  0.00     0.098 C 
BRANCH   8   9
HETATM    9  C   UNK N   1      21.435  17.307   3.234  0.00  0.00     0.016 C 
BRANCH   9  10
HETATM   10  C   UNK N   1      20.167  17.253   2.399  0.00  0.00     0.001 C 
BRANCH  10  11
HETATM   11  C   UNK N   1      20.350  16.245   1.273  0.00  0.00    -0.005 C 
HETATM   12  C   UNK N   1      19.470  16.587   0.082  0.00  0.00     0.005 C 
ENDBRANCH  10  11
ENDBRANCH   9  10
ENDBRANCH   8   9
BRANCH   8  13
HETATM   13  C   UNK N   1      21.024  19.834   3.349  0.00  0.00     0.172 C 
BRANCH  13  14
HETATM   14  N   UNK N   1      21.247  20.848   2.350  0.00  0.00    -0.235 N 
BRANCH  14  15
HETATM   15  O   UNK N   1      21.920  21.968   2.644  0.00  0.00    -0.285 OA
HETATM   16  H   UNK N   1      22.148  22.890   2.449  0.00  0.00     0.245 HD
ENDBRANCH  14  15
BRANCH  14  17
HETATM   17  C   UNK N   1      20.617  20.725   1.162  0.00  0.00     0.376 C 
HETATM   18  O   UNK N   1      21.246  20.751   0.116  0.00  0.00    -0.281 OA
ENDBRANCH  14  17
ENDBRANCH  13  14
ENDBRANCH   8  13
ENDBRANCH   2   8
BRANCH   4  19
HETATM   19  C   UNK N   1      25.716  17.330   4.771  0.00  0.00     0.148 A 
HETATM   20  O   UNK N   1      26.185  16.675   3.722  0.00  0.00    -0.293 OA
HETATM   21  C   UNK N   1      26.353  15.428   4.101  0.00  0.00     0.104 A 
HETATM   22  C   UNK N   1      25.979  15.323   5.405  0.00  0.00     0.068 A 
HETATM   23  C   UNK N   1      26.875  14.350   3.398  0.00  0.00     0.040 A 
HETATM   24  N   UNK N   1      25.573  16.508   5.850  0.00  0.00    -0.336 N 
HETATM   25  C   UNK N   1      26.090  14.136   6.124  0.00  0.00     0.032 A 
ATOM     26  HN  UNK N   1      25.233  16.747   6.782  1.00  0.00     0.168 HD
HETATM   27  C   UNK N   1      26.615  13.021   5.448  0.00  0.00     0.002 A 
HETATM   28  C   UNK N   1      27.006  13.126   4.091  0.00  0.00     0.003 A 
ENDBRANCH   4  19
TORSDOF 9
ENDMDL
MODEL 4
REMARK VINA RESULT:      -6.3      5.037      9.434
REMARK  9 active torsions:
REMARK  status: ('A' for Active; 'I' for Inactive)
REMARK    1  A    between atoms: C_2  and  C_3 
REMARK       I    between atoms: C_2  and  N_13 
REMARK    2  A    between atoms: C_3  and  C_4 
REMARK    3  A    between atoms: C_3  and  C_8 
REMARK    4  A    between atoms: C_4  and  C_5 
REMARK    5  A    between atoms: C_5  and  C_6 
REMARK    6  A    between atoms: C_8  and  N_9 
REMARK    7  A    between atoms: N_9  and  O_10 
REMARK    8  A    between atoms: N_9  and  C_11 
REMARK    9  A    between atoms: C_14  and  C_18 
ROOT
HETATM    1  O   UNK N   1      36.153  15.987  11.217  0.00  0.00    -0.273 OA
HETATM    2  C   UNK N   1      36.024  15.391  10.152  0.00  0.00     0.226 C 
HETATM    3  N   UNK N   1      36.808  14.289   9.902  0.00  0.00    -0.340 N 
HETATM    4  C   UNK N   1      37.552  13.635  10.953  0.00  0.00     0.162 C 
HETATM    5  C   UNK N   1      38.212  12.438  10.285  0.00  0.00     0.035 C 
HETATM    6  C   UNK N   1      37.974  12.606   8.784  0.00  0.00     0.022 C 
HETATM    7  C   UNK N   1      36.834  13.601   8.645  0.00  0.00     0.127 C 
ENDROOT
BRANCH   2   8
HETATM    8  C   UNK N   1      34.858  15.756   9.250  0.00  0.00     0.098 C 
BRANCH   8   9
HETATM    9  C   UNK N   1      33.825  14.629   9.085  0.00  0.00     0.016 C 
BRANCH   9  10
HETATM   10  C   UNK N   1      32.515  15.029   8.430  0.00  0.00     0.001 C 
BRANCH  10  11
HETATM   11  C   UNK N   1      32.331  14.230   7.147  0.00  0.00    -0.005 C 
HETATM   12  C   UNK N   1      33.610  14.207   6.326  0.00  0.00     0.005 C 
ENDBRANCH  10  11
ENDBRANCH   9  10
ENDBRANCH   8   9
BRANCH   8  13
HETATM   13  C   UNK N   1      34.217  17.146   9.367  0.00  0.00     0.172 C 
BRANCH  13  14
HETATM   14  N   UNK N   1      34.523  18.076   8.311  0.00  0.00    -0.235 N 
BRANCH  14  15
HETATM   15  O   UNK N   1      35.330  19.122   8.527  0.00  0.00    -0.285 OA
HETATM   16  H   UNK N   1      35.720  19.962   8.234  0.00  0.00     0.245 HD
ENDBRANCH  14  15
BRANCH  14  17
HETATM   17  C   UNK N   1      33.843  17.970   7.149  0.00  0.00     0.376 C 
HETATM   18  O   UNK N   1      34.409  17.630   6.123  0.00  0.00    -0.281 OA
ENDBRANCH  14  17
ENDBRANCH  13  14
ENDBRANCH   8  13
ENDBRANCH   2   8
BRANCH   4  19
HETATM   19  C   UNK N   1      36.556  13.167  11.995  0.00  0.00     0.148 A 
HETATM   20  O   UNK N   1      35.655  12.215  11.820  0.00  0.00    -0.293 OA
HETATM   21  C   UNK N   1      35.157  11.947  13.006  0.00  0.00     0.104 A 
HETATM   22  C   UNK N   1      35.766  12.751  13.919  0.00  0.00     0.068 A 
HETATM   23  C   UNK N   1      34.223  10.989  13.380  0.00  0.00     0.040 A 
HETATM   24  N   UNK N   1      36.653  13.530  13.306  0.00  0.00    -0.336 N 
HETATM   25  C   UNK N   1      35.502  12.673  15.283  0.00  0.00     0.032 A 
ATOM     26  HN  UNK N   1      37.263  14.235  13.720  1.00  0.00     0.168 HD
HETATM   27  C   UNK N   1      34.563  11.716  15.703  0.00  0.00     0.002 A 
HETATM   28  C   UNK N   1      33.925  10.877  14.757  0.00  0.00     0.003 A 
ENDBRANCH   4  19
TORSDOF 9
ENDMDL
MODEL 5
REMARK VINA RESULT:      -6.3      3.679      8.253
REMARK  9 active torsions:
REMARK  status: ('A' for Active; 'I' for Inactive)
REMARK    1  A    between atoms: C_2  and  C_3 
REMARK       I    between atoms: C_2  and  N_13 
REMARK    2  A    between atoms: C_3  and  C_4 
REMARK    3  A    between atoms: C_3  and  C_8 
REMARK    4  A    between atoms: C_4  and  C_5 
REMARK    5  A    between atoms: C_5  and  C_6 
REMARK    6  A    between atoms: C_8  and  N_9 
REMARK    7  A    between atoms: N_9  and  O_10 
REMARK    8  A    between atoms: N_9  and  C_11 
REMARK    9  A    between atoms: C_14  and  C_18 
ROOT
HETATM    1  O   UNK N   1      26.036  17.818   3.064  0.00  0.00    -0.273 OA
HETATM    2  C   UNK N   1      25.079  18.106   3.775  0.00  0.00     0.226 C 
HETATM    3  N   UNK N   1      24.607  17.179   4.673  0.00  0.00    -0.340 N 
HETATM    4  C   UNK N   1      25.372  16.004   5.022  0.00  0.00     0.162 C 
HETATM    5  C   UNK N   1      24.545  15.293   6.083  0.00  0.00     0.035 C 
HETATM    6  C   UNK N   1      23.198  16.017   6.124  0.00  0.00     0.022 C 
HETATM    7  C   UNK N   1      23.419  17.362   5.454  0.00  0.00     0.127 C 
ENDROOT
BRANCH   2   8
HETATM    8  C   UNK N   1      24.595  19.546   3.793  0.00  0.00     0.098 C 
BRANCH   8   9
HETATM    9  C   UNK N   1      25.628  20.542   4.346  0.00  0.00     0.016 C 
BRANCH   9  10
HETATM   10  C   UNK N   1      26.045  20.323   5.789  0.00  0.00     0.001 C 
BRANCH  10  11
HETATM   11  C   UNK N   1      27.555  20.474   5.905  0.00  0.00    -0.005 C 
HETATM   12  C   UNK N   1      28.255  19.967   4.654  0.00  0.00     0.005 C 
ENDBRANCH  10  11
ENDBRANCH   9  10
ENDBRANCH   8   9
BRANCH   8  13
HETATM   13  C   UNK N   1      23.814  20.097   2.591  0.00  0.00     0.172 C 
BRANCH  13  14
HETATM   14  N   UNK N   1      22.493  20.599   2.869  0.00  0.00    -0.235 N 
BRANCH  14  15
HETATM   15  O   UNK N   1      22.231  21.912   2.820  0.00  0.00    -0.285 OA
HETATM   16  H   UNK N   1      22.313  22.802   3.197  0.00  0.00     0.245 HD
ENDBRANCH  14  15
BRANCH  14  17
HETATM   17  C   UNK N   1      21.569  19.738   3.348  0.00  0.00     0.376 C 
HETATM   18  O   UNK N   1      20.675  20.125   4.083  0.00  0.00    -0.281 OA
ENDBRANCH  14  17
ENDBRANCH  13  14
ENDBRANCH   8  13
ENDBRANCH   2   8
BRANCH   4  19
HETATM   19  C   UNK N   1      26.685  16.474   5.613  0.00  0.00     0.148 A 
HETATM   20  O   UNK N   1      26.845  16.972   6.828  0.00  0.00    -0.293 OA
HETATM   21  C   UNK N   1      28.140  17.034   7.041  0.00  0.00     0.104 A 
HETATM   22  C   UNK N   1      28.780  16.567   5.936  0.00  0.00     0.068 A 
HETATM   23  C   UNK N   1      28.833  17.427   8.180  0.00  0.00     0.040 A 
HETATM   24  N   UNK N   1      27.884  16.208   5.020  0.00  0.00    -0.336 N 
HETATM   25  C   UNK N   1      30.165  16.448   5.864  0.00  0.00     0.032 A 
ATOM     26  HN  UNK N   1      28.055  15.823   4.091  1.00  0.00     0.168 HD
HETATM   27  C   UNK N   1      30.903  16.834   6.995  0.00  0.00     0.002 A 
HETATM   28  C   UNK N   1      30.242  17.322   8.149  0.00  0.00     0.003 A 
ENDBRANCH   4  19
TORSDOF 9
ENDMDL
MODEL 6
REMARK VINA RESULT:      -6.2      5.759      9.929
REMARK  9 active torsions:
REMARK  status: ('A' for Active; 'I' for Inactive)
REMARK    1  A    between atoms: C_2  and  C_3 
REMARK       I    between atoms: C_2  and  N_13 
REMARK    2  A    between atoms: C_3  and  C_4 
REMARK    3  A    between atoms: C_3  and  C_8 
REMARK    4  A    between atoms: C_4  and  C_5 
REMARK    5  A    between atoms: C_5  and  C_6 
REMARK    6  A    between atoms: C_8  and  N_9 
REMARK    7  A    between atoms: N_9  and  O_10 
REMARK    8  A    between atoms: N_9  and  C_11 
REMARK    9  A    between atoms: C_14  and  C_18 
ROOT
HETATM    1  O   UNK N   1      22.183  17.052   2.993  0.00  0.00    -0.273 OA
HETATM    2  C   UNK N   1      21.893  17.732   3.972  0.00  0.00     0.226 C 
HETATM    3  N   UNK N   1      21.753  17.121   5.196  0.00  0.00    -0.340 N 
HETATM    4  C   UNK N   1      22.223  15.775   5.428  0.00  0.00     0.162 C 
HETATM    5  C   UNK N   1      21.950  15.509   6.901  0.00  0.00     0.035 C 
HETATM    6  C   UNK N   1      21.108  16.686   7.394  0.00  0.00     0.022 C 
HETATM    7  C   UNK N   1      21.289  17.795   6.372  0.00  0.00     0.127 C 
ENDROOT
BRANCH   2   8
HETATM    8  C   UNK N   1      21.918  19.245   3.839  0.00  0.00     0.098 C 
BRANCH   8   9
HETATM    9  C   UNK N   1      23.221  19.793   3.233  0.00  0.00     0.016 C 
BRANCH   9  10
HETATM   10  C   UNK N   1      24.480  19.538   4.040  0.00  0.00     0.001 C 
BRANCH  10  11
HETATM   11  C   UNK N   1      25.692  19.986   3.236  0.00  0.00    -0.005 C 
HETATM   12  C   UNK N   1      26.898  20.206   4.135  0.00  0.00     0.005 C 
ENDBRANCH  10  11
ENDBRANCH   9  10
ENDBRANCH   8   9
BRANCH   8  13
HETATM   13  C   UNK N   1      20.667  19.982   3.341  0.00  0.00     0.172 C 
BRANCH  13  14
HETATM   14  N   UNK N   1      20.375  19.855   1.936  0.00  0.00    -0.235 N 
BRANCH  14  15
HETATM   15  O   UNK N   1      20.023  18.675   1.409  0.00  0.00    -0.285 OA
HETATM   16  H   UNK N   1      19.596  17.808   1.494  0.00  0.00     0.245 HD
ENDBRANCH  14  15
BRANCH  14  17
HETATM   17  C   UNK N   1      20.628  20.910   1.132  0.00  0.00     0.376 C 
HETATM   18  O   UNK N   1      21.144  20.752   0.037  0.00  0.00    -0.281 OA
ENDBRANCH  14  17
ENDBRANCH  13  14
ENDBRANCH   8  13
ENDBRANCH   2   8
BRANCH   4  19
HETATM   19  C   UNK N   1      23.715  15.761   5.163  0.00  0.00     0.148 A 
HETATM   20  O   UNK N   1      24.288  15.404   4.027  0.00  0.00    -0.293 OA
HETATM   21  C   UNK N   1      25.553  15.751   4.119  0.00  0.00     0.104 A 
HETATM   22  C   UNK N   1      25.752  16.329   5.334  0.00  0.00     0.068 A 
HETATM   23  C   UNK N   1      26.570  15.652   3.177  0.00  0.00     0.040 A 
HETATM   24  N   UNK N   1      24.608  16.346   6.012  0.00  0.00    -0.336 N 
HETATM   25  C   UNK N   1      26.979  16.859   5.721  0.00  0.00     0.032 A 
ATOM     26  HN  UNK N   1      24.438  16.713   6.949  1.00  0.00     0.168 HD
HETATM   27  C   UNK N   1      28.034  16.780   4.797  0.00  0.00     0.002 A 
HETATM   28  C   UNK N   1      27.833  16.179   3.531  0.00  0.00     0.003 A 
ENDBRANCH   4  19
TORSDOF 9
ENDMDL
MODEL 7
REMARK VINA RESULT:      -6.2      9.342     11.607
REMARK  9 active torsions:
REMARK  status: ('A' for Active; 'I' for Inactive)
REMARK    1  A    between atoms: C_2  and  C_3 
REMARK       I    between atoms: C_2  and  N_13 
REMARK    2  A    between atoms: C_3  and  C_4 
REMARK    3  A    between atoms: C_3  and  C_8 
REMARK    4  A    between atoms: C_4  and  C_5 
REMARK    5  A    between atoms: C_5  and  C_6 
REMARK    6  A    between atoms: C_8  and  N_9 
REMARK    7  A    between atoms: N_9  and  O_10 
REMARK    8  A    between atoms: N_9  and  C_11 
REMARK    9  A    between atoms: C_14  and  C_18 
ROOT
HETATM    1  O   UNK N   1      22.935  14.718   5.517  0.00  0.00    -0.273 OA
HETATM    2  C   UNK N   1      21.734  14.819   5.291  0.00  0.00     0.226 C 
HETATM    3  N   UNK N   1      20.970  13.679   5.201  0.00  0.00    -0.340 N 
HETATM    4  C   UNK N   1      21.462  12.400   5.657  0.00  0.00     0.162 C 
HETATM    5  C   UNK N   1      20.302  11.435   5.456  0.00  0.00     0.035 C 
HETATM    6  C   UNK N   1      19.246  12.204   4.662  0.00  0.00     0.022 C 
HETATM    7  C   UNK N   1      19.591  13.676   4.812  0.00  0.00     0.127 C 
ENDROOT
BRANCH   2   8
HETATM    8  C   UNK N   1      21.099  16.198   5.338  0.00  0.00     0.098 C 
BRANCH   8   9
HETATM    9  C   UNK N   1      21.125  16.846   6.732  0.00  0.00     0.016 C 
BRANCH   9  10
HETATM   10  C   UNK N   1      20.362  16.104   7.816  0.00  0.00     0.001 C 
BRANCH  10  11
HETATM   11  C   UNK N   1      19.842  17.105   8.838  0.00  0.00    -0.005 C 
HETATM   12  C   UNK N   1      18.322  17.134   8.853  0.00  0.00     0.005 C 
ENDBRANCH  10  11
ENDBRANCH   9  10
ENDBRANCH   8   9
BRANCH   8  13
HETATM   13  C   UNK N   1      21.376  17.198   4.207  0.00  0.00     0.172 C 
BRANCH  13  14
HETATM   14  N   UNK N   1      20.245  17.958   3.740  0.00  0.00    -0.235 N 
BRANCH  14  15
HETATM   15  O   UNK N   1      19.047  17.380   3.577  0.00  0.00    -0.285 OA
HETATM   16  H   UNK N   1      18.463  16.771   3.098  0.00  0.00     0.245 HD
ENDBRANCH  14  15
BRANCH  14  17
HETATM   17  C   UNK N   1      20.457  19.219   3.307  0.00  0.00     0.376 C 
HETATM   18  O   UNK N   1      20.550  20.144   4.098  0.00  0.00    -0.281 OA
ENDBRANCH  14  17
ENDBRANCH  13  14
ENDBRANCH   8  13
ENDBRANCH   2   8
BRANCH   4  19
HETATM   19  C   UNK N   1      21.779  12.532   7.133  0.00  0.00     0.148 A 
HETATM   20  O   UNK N   1      20.887  12.658   8.100  0.00  0.00    -0.293 OA
HETATM   21  C   UNK N   1      21.537  12.506   9.233  0.00  0.00     0.104 A 
HETATM   22  C   UNK N   1      22.848  12.285   8.948  0.00  0.00     0.068 A 
HETATM   23  C   UNK N   1      21.055  12.489  10.536  0.00  0.00     0.040 A 
HETATM   24  N   UNK N   1      23.027  12.298   7.631  0.00  0.00    -0.336 N 
HETATM   25  C   UNK N   1      23.797  12.028   9.933  0.00  0.00     0.032 A 
ATOM     26  HN  UNK N   1      23.896  12.163   7.113  1.00  0.00     0.168 HD
HETATM   27  C   UNK N   1      23.350  12.002  11.265  0.00  0.00     0.002 A 
HETATM   28  C   UNK N   1      21.986  12.231  11.567  0.00  0.00     0.003 A 
ENDBRANCH   4  19
TORSDOF 9
ENDMDL
MODEL 8
REMARK VINA RESULT:      -6.2      6.629      9.676
REMARK  9 active torsions:
REMARK  status: ('A' for Active; 'I' for Inactive)
REMARK    1  A    between atoms: C_2  and  C_3 
REMARK       I    between atoms: C_2  and  N_13 
REMARK    2  A    between atoms: C_3  and  C_4 
REMARK    3  A    between atoms: C_3  and  C_8 
REMARK    4  A    between atoms: C_4  and  C_5 
REMARK    5  A    between atoms: C_5  and  C_6 
REMARK    6  A    between atoms: C_8  and  N_9 
REMARK    7  A    between atoms: N_9  and  O_10 
REMARK    8  A    between atoms: N_9  and  C_11 
REMARK    9  A    between atoms: C_14  and  C_18 
ROOT
HETATM    1  O   UNK N   1      21.934  18.481   6.435  0.00  0.00    -0.273 OA
HETATM    2  C   UNK N   1      21.332  17.673   5.736  0.00  0.00     0.226 C 
HETATM    3  N   UNK N   1      20.845  18.074   4.514  0.00  0.00    -0.340 N 
HETATM    4  C   UNK N   1      21.270  19.309   3.898  0.00  0.00     0.162 C 
HETATM    5  C   UNK N   1      20.567  19.340   2.549  0.00  0.00     0.035 C 
HETATM    6  C   UNK N   1      19.571  18.181   2.563  0.00  0.00     0.022 C 
HETATM    7  C   UNK N   1      20.017  17.253   3.681  0.00  0.00     0.127 C 
ENDROOT
BRANCH   2   8
HETATM    8  C   UNK N   1      21.341  16.210   6.145  0.00  0.00     0.098 C 
BRANCH   8   9
HETATM    9  C   UNK N   1      22.719  15.701   6.600  0.00  0.00     0.016 C 
BRANCH   9  10
HETATM   10  C   UNK N   1      23.505  14.918   5.564  0.00  0.00     0.001 C 
BRANCH  10  11
HETATM   11  C   UNK N   1      24.679  14.225   6.242  0.00  0.00    -0.005 C 
HETATM   12  C   UNK N   1      25.653  15.237   6.822  0.00  0.00     0.005 C 
ENDBRANCH  10  11
ENDBRANCH   9  10
ENDBRANCH   8   9
BRANCH   8  13
HETATM   13  C   UNK N   1      20.187  15.654   6.990  0.00  0.00     0.172 C 
BRANCH  13  14
HETATM   14  N   UNK N   1      20.270  15.887   8.410  0.00  0.00    -0.235 N 
BRANCH  14  15
HETATM   15  O   UNK N   1      20.447  17.123   8.895  0.00  0.00    -0.285 OA
HETATM   16  H   UNK N   1      20.334  17.773   9.606  0.00  0.00     0.245 HD
ENDBRANCH  14  15
BRANCH  14  17
HETATM   17  C   UNK N   1      20.340  14.817   9.231  0.00  0.00     0.376 C 
HETATM   18  O   UNK N   1      19.332  14.352   9.738  0.00  0.00    -0.281 OA
ENDBRANCH  14  17
ENDBRANCH  13  14
ENDBRANCH   8  13
ENDBRANCH   2   8
BRANCH   4  19
HETATM   19  C   UNK N   1      22.770  19.228   3.702  0.00  0.00     0.148 A 
HETATM   20  O   UNK N   1      23.593  20.262   3.650  0.00  0.00    -0.293 OA
HETATM   21  C   UNK N   1      24.812  19.775   3.710  0.00  0.00     0.104 A 
HETATM   22  C   UNK N   1      24.729  18.420   3.799  0.00  0.00     0.068 A 
HETATM   23  C   UNK N   1      26.032  20.440   3.750  0.00  0.00     0.040 A 
HETATM   24  N   UNK N   1      23.452  18.050   3.795  0.00  0.00    -0.336 N 
HETATM   25  C   UNK N   1      25.850  17.607   3.935  0.00  0.00     0.032 A 
ATOM     26  HN  UNK N   1      23.070  17.105   3.850  1.00  0.00     0.168 HD
HETATM   27  C   UNK N   1      27.103  18.240   3.981  0.00  0.00     0.002 A 
HETATM   28  C   UNK N   1      27.196  19.650   3.888  0.00  0.00     0.003 A 
ENDBRANCH   4  19
TORSDOF 9
ENDMDL
MODEL 9
REMARK VINA RESULT:      -6.0      2.322      6.648
REMARK  9 active torsions:
REMARK  status: ('A' for Active; 'I' for Inactive)
REMARK    1  A    between atoms: C_2  and  C_3 
REMARK       I    between atoms: C_2  and  N_13 
REMARK    2  A    between atoms: C_3  and  C_4 
REMARK    3  A    between atoms: C_3  and  C_8 
REMARK    4  A    between atoms: C_4  and  C_5 
REMARK    5  A    between atoms: C_5  and  C_6 
REMARK    6  A    between atoms: C_8  and  N_9 
REMARK    7  A    between atoms: N_9  and  O_10 
REMARK    8  A    between atoms: N_9  and  C_11 
REMARK    9  A    between atoms: C_14  and  C_18 
ROOT
HETATM    1  O   UNK N   1      28.710  18.832   4.346  0.00  0.00    -0.273 OA
HETATM    2  C   UNK N   1      27.824  18.331   5.031  0.00  0.00     0.226 C 
HETATM    3  N   UNK N   1      27.779  16.964   5.174  0.00  0.00    -0.340 N 
HETATM    4  C   UNK N   1      28.895  16.126   4.803  0.00  0.00     0.162 C 
HETATM    5  C   UNK N   1      28.474  14.714   5.184  0.00  0.00     0.035 C 
HETATM    6  C   UNK N   1      26.997  14.802   5.567  0.00  0.00     0.022 C 
HETATM    7  C   UNK N   1      26.716  16.270   5.839  0.00  0.00     0.127 C 
ENDROOT
BRANCH   2   8
HETATM    8  C   UNK N   1      26.949  19.246   5.871  0.00  0.00     0.098 C 
BRANCH   8   9
HETATM    9  C   UNK N   1      27.697  19.928   7.029  0.00  0.00     0.016 C 
BRANCH   9  10
HETATM   10  C   UNK N   1      28.698  19.058   7.767  0.00  0.00     0.001 C 
BRANCH  10  11
HETATM   11  C   UNK N   1      27.963  18.204   8.790  0.00  0.00    -0.005 C 
HETATM   12  C   UNK N   1      28.932  17.582   9.783  0.00  0.00     0.005 C 
ENDBRANCH  10  11
ENDBRANCH   9  10
ENDBRANCH   8   9
BRANCH   8  13
HETATM   13  C   UNK N   1      25.941  20.173   5.178  0.00  0.00     0.172 C 
BRANCH  13  14
HETATM   14  N   UNK N   1      25.280  19.636   4.016  0.00  0.00    -0.235 N 
BRANCH  14  15
HETATM   15  O   UNK N   1      24.550  18.516   4.095  0.00  0.00    -0.285 OA
HETATM   16  H   UNK N   1      23.960  17.864   3.685  0.00  0.00     0.245 HD
ENDBRANCH  14  15
BRANCH  14  17
HETATM   17  C   UNK N   1      25.552  20.188   2.814  0.00  0.00     0.376 C 
HETATM   18  O   UNK N   1      24.754  20.938   2.275  0.00  0.00    -0.281 OA
ENDBRANCH  14  17
ENDBRANCH  13  14
ENDBRANCH   8  13
ENDBRANCH   2   8
BRANCH   4  19
HETATM   19  C   UNK N   1      30.086  16.558   5.635  0.00  0.00     0.148 A 
HETATM   20  O   UNK N   1      30.296  16.233   6.899  0.00  0.00    -0.293 OA
HETATM   21  C   UNK N   1      31.528  16.596   7.180  0.00  0.00     0.104 A 
HETATM   22  C   UNK N   1      32.076  17.151   6.066  0.00  0.00     0.068 A 
HETATM   23  C   UNK N   1      32.256  16.426   8.351  0.00  0.00     0.040 A 
HETATM   24  N   UNK N   1      31.187  17.140   5.078  0.00  0.00    -0.336 N 
HETATM   25  C   UNK N   1      33.397  17.587   6.018  0.00  0.00     0.032 A 
ATOM     26  HN  UNK N   1      31.301  17.486   4.124  1.00  0.00     0.168 HD
HETATM   27  C   UNK N   1      34.169  17.434   7.182  0.00  0.00     0.002 A 
HETATM   28  C   UNK N   1      33.602  16.856   8.344  0.00  0.00     0.003 A 
ENDBRANCH   4  19
TORSDOF 9
ENDMDL
