REMARK  6 active torsions:
REMARK  status: ('A' for Active; 'I' for Inactive)
REMARK    1  A    between atoms: C_3  and  O_4 
REMARK    2  A    between atoms: O_4  and  C_5 
REMARK    3  A    between atoms: C_5  and  C_6 
REMARK    4  A    between atoms: C_12  and  N_13 
REMARK    5  A    between atoms: N_13  and  O_15 
REMARK    6  A    between atoms: C_17  and  N_18 
REMARK       I    between atoms: C_21  and  N_22 
ROOT
HETATM    1  N   UNK N   1      -1.652   2.158   0.115  0.00  0.00    -0.168 N 
ATOM      2  HN  UNK N   1      -0.857   2.791   0.198  1.00  0.00     0.186 HD
HETATM    3  C   UNK N   1      -1.422   0.818   0.085  0.00  0.00     0.190 A 
HETATM    4  C   UNK N   1      -2.554  -0.065  -0.011  0.00  0.00     0.149 A 
HETATM    5  C   UNK N   1      -3.830   0.522  -0.086  0.00  0.00     0.147 A 
HETATM    6  N   UNK N   1      -3.973   1.869  -0.061  0.00  0.00    -0.175 N 
ATOM      7  HN  UNK N   1      -4.906   2.275  -0.119  1.00  0.00     0.186 HD
HETATM    8  C   UNK N   1      -2.898   2.683   0.039  0.00  0.00     0.679 A 
HETATM    9  N   UNK N   1      -3.075   4.080   0.061  0.00  0.00    -0.234 N 
HETATM   10  H   UNK N   1      -2.291   4.675   0.076  0.00  0.00     0.174 HD
HETATM   11  H   UNK N   1      -3.982   4.462   0.061  0.00  0.00     0.174 HD
ENDROOT
BRANCH   3  12
HETATM   12  O   UNK N   1      -0.120   0.429   0.155  0.00  0.00    -0.333 OA
BRANCH  12  13
HETATM   13  C   UNK N   1       0.453  -0.694  -0.389  0.00  0.00     0.182 C 
BRANCH  13  14
HETATM   14  C   UNK N   1       1.854  -0.878   0.172  0.00  0.00     0.010 C 
HETATM   15  C   UNK N   1       2.782   0.229  -0.330  0.00  0.00     0.007 C 
HETATM   16  C   UNK N   1       4.194   0.024   0.213  0.00  0.00     0.000 C 
HETATM   17  C   UNK N   1       4.726  -1.343  -0.209  0.00  0.00     0.000 C 
HETATM   18  C   UNK N   1       3.804  -2.446   0.303  0.00  0.00     0.000 C 
HETATM   19  C   UNK N   1       2.393  -2.245  -0.243  0.00  0.00     0.007 C 
ENDBRANCH  13  14
ENDBRANCH  12  13
ENDBRANCH   3  12
BRANCH   4  20
HETATM   20  N   UNK N   1      -2.500  -1.492  -0.004  0.00  0.00    -0.261 N 
ATOM     21  HN  UNK N   1      -3.321  -2.007  -0.321  1.00  0.00     0.194 HD
BRANCH  20  22
HETATM   22  O   UNK N   1      -1.549  -2.113   0.352  0.00  0.00    -0.289 OA
ATOM     23  HO  UNK N   1      -1.513  -3.062   0.357  1.00  0.00     0.244 HD
ENDBRANCH  20  22
ENDBRANCH   4  20
BRANCH   5  24
HETATM   24  N   UNK N   1      -4.982  -0.290  -0.160  0.00  0.00    -0.383 N 
HETATM   25  H   UNK N   1      -5.874   0.122  -0.212  0.00  0.00     0.157 HD
HETATM   26  H   UNK N   1      -4.893  -1.271  -0.160  0.00  0.00     0.157 HD
ENDBRANCH   5  24
TORSDOF 6
