MODEL 1
REMARK VINA RESULT:      -6.3      0.000      0.000
REMARK  6 active torsions:
REMARK  status: ('A' for Active; 'I' for Inactive)
REMARK    1  A    between atoms: C_3  and  O_4 
REMARK    2  A    between atoms: O_4  and  C_5 
REMARK    3  A    between atoms: C_5  and  C_6 
REMARK    4  A    between atoms: C_12  and  N_13 
REMARK    5  A    between atoms: N_13  and  O_15 
REMARK    6  A    between atoms: C_17  and  N_18 
REMARK       I    between atoms: C_21  and  N_22 
ROOT
HETATM    1  N   UNK N   1      22.064  18.695   4.392  0.00  0.00    -0.168 N 
ATOM      2  HN  UNK N   1      22.874  18.763   5.008  1.00  0.00     0.186 HD
HETATM    3  C   UNK N   1      21.954  19.568   3.356  0.00  0.00     0.190 A 
HETATM    4  C   UNK N   1      20.817  19.448   2.482  0.00  0.00     0.149 A 
HETATM    5  C   UNK N   1      19.880  18.439   2.772  0.00  0.00     0.147 A 
HETATM    6  N   UNK N   1      20.058  17.615   3.832  0.00  0.00    -0.175 N 
ATOM      7  HN  UNK N   1      19.367  16.892   4.027  1.00  0.00     0.186 HD
HETATM    8  C   UNK N   1      21.138  17.738   4.637  0.00  0.00     0.679 A 
HETATM    9  N   UNK N   1      21.298  16.869   5.734  0.00  0.00    -0.234 N 
HETATM   10  H   UNK N   1      22.052  16.993   6.354  0.00  0.00     0.174 HD
HETATM   11  H   UNK N   1      20.655  16.138   5.882  0.00  0.00     0.174 HD
ENDROOT
BRANCH   3  12
HETATM   12  O   UNK N   1      22.949  20.488   3.235  0.00  0.00    -0.333 OA
BRANCH  12  13
HETATM   13  C   UNK N   1      24.162  20.339   2.609  0.00  0.00     0.182 C 
BRANCH  13  14
HETATM   14  C   UNK N   1      25.197  19.844   3.607  0.00  0.00     0.010 C 
HETATM   15  C   UNK N   1      26.513  20.603   3.435  0.00  0.00     0.007 C 
HETATM   16  C   UNK N   1      27.557  20.084   4.420  0.00  0.00     0.000 C 
HETATM   17  C   UNK N   1      27.779  18.588   4.211  0.00  0.00     0.000 C 
HETATM   18  C   UNK N   1      26.466  17.833   4.395  0.00  0.00     0.000 C 
HETATM   19  C   UNK N   1      25.422  18.348   3.408  0.00  0.00     0.007 C 
ENDBRANCH  13  14
ENDBRANCH  12  13
ENDBRANCH   3  12
BRANCH   4  20
HETATM   20  N   UNK N   1      20.570  20.244   1.322  0.00  0.00    -0.261 N 
ATOM     21  HN  UNK N   1      20.334  21.227   1.454  1.00  0.00     0.194 HD
BRANCH  20  22
HETATM   22  O   UNK N   1      20.623  19.822   0.211  0.00  0.00    -0.289 OA
ATOM     23  HO  UNK N   1      20.635  20.375  -0.561  1.00  0.00     0.244 HD
ENDBRANCH  20  22
ENDBRANCH   4  20
BRANCH   5  24
HETATM   24  N   UNK N   1      18.754  18.256   1.940  0.00  0.00    -0.383 N 
HETATM   25  H   UNK N   1      18.813  17.670   1.152  0.00  0.00     0.157 HD
HETATM   26  H   UNK N   1      17.908  18.714   2.150  0.00  0.00     0.157 HD
ENDBRANCH   5  24
TORSDOF 6
ENDMDL
MODEL 2
REMARK VINA RESULT:      -6.3      6.175      8.212
REMARK  6 active torsions:
REMARK  status: ('A' for Active; 'I' for Inactive)
REMARK    1  A    between atoms: C_3  and  O_4 
REMARK    2  A    between atoms: O_4  and  C_5 
REMARK    3  A    between atoms: C_5  and  C_6 
REMARK    4  A    between atoms: C_12  and  N_13 
REMARK    5  A    between atoms: N_13  and  O_15 
REMARK    6  A    between atoms: C_17  and  N_18 
REMARK       I    between atoms: C_21  and  N_22 
ROOT
HETATM    1  N   UNK N   1      28.401  18.773   5.120  0.00  0.00    -0.168 N 
ATOM      2  HN  UNK N   1      28.925  18.284   4.396  1.00  0.00     0.186 HD
HETATM    3  C   UNK N   1      28.567  18.397   6.417  0.00  0.00     0.190 A 
HETATM    4  C   UNK N   1      27.837  19.110   7.431  0.00  0.00     0.149 A 
HETATM    5  C   UNK N   1      26.980  20.142   7.010  0.00  0.00     0.147 A 
HETATM    6  N   UNK N   1      26.862  20.448   5.695  0.00  0.00    -0.175 N 
ATOM      7  HN  UNK N   1      26.234  21.198   5.409  1.00  0.00     0.186 HD
HETATM    8  C   UNK N   1      27.563  19.773   4.756  0.00  0.00     0.679 A 
HETATM    9  N   UNK N   1      27.420  20.110   3.396  0.00  0.00    -0.234 N 
HETATM   10  H   UNK N   1      27.886  19.583   2.707  0.00  0.00     0.174 HD
HETATM   11  H   UNK N   1      26.855  20.872   3.134  0.00  0.00     0.174 HD
ENDROOT
BRANCH   3  12
HETATM   12  O   UNK N   1      29.429  17.367   6.639  0.00  0.00    -0.333 OA
BRANCH  12  13
HETATM   13  C   UNK N   1      30.399  16.885   5.795  0.00  0.00     0.182 C 
BRANCH  13  14
HETATM   14  C   UNK N   1      31.720  16.779   6.541  0.00  0.00     0.010 C 
HETATM   15  C   UNK N   1      31.638  17.509   7.882  0.00  0.00     0.007 C 
HETATM   16  C   UNK N   1      32.976  17.424   8.614  0.00  0.00     0.000 C 
HETATM   17  C   UNK N   1      34.084  18.024   7.753  0.00  0.00     0.000 C 
HETATM   18  C   UNK N   1      34.171  17.286   6.420  0.00  0.00     0.000 C 
HETATM   19  C   UNK N   1      32.836  17.375   5.685  0.00  0.00     0.007 C 
ENDBRANCH  13  14
ENDBRANCH  12  13
ENDBRANCH   3  12
BRANCH   4  20
HETATM   20  N   UNK N   1      27.930  18.883   8.838  0.00  0.00    -0.261 N 
ATOM     21  HN  UNK N   1      28.535  19.494   9.386  1.00  0.00     0.194 HD
BRANCH  20  22
HETATM   22  O   UNK N   1      27.339  18.019   9.406  0.00  0.00    -0.289 OA
ATOM     23  HO  UNK N   1      27.552  17.727  10.284  1.00  0.00     0.244 HD
ENDBRANCH  20  22
ENDBRANCH   4  20
BRANCH   5  24
HETATM   24  N   UNK N   1      26.253  20.893   7.958  0.00  0.00    -0.383 N 
HETATM   25  H   UNK N   1      25.621  20.444   8.564  0.00  0.00     0.157 HD
HETATM   26  H   UNK N   1      26.377  21.869   8.013  0.00  0.00     0.157 HD
ENDBRANCH   5  24
TORSDOF 6
ENDMDL
MODEL 3
REMARK VINA RESULT:      -6.2      1.636      3.154
REMARK  6 active torsions:
REMARK  status: ('A' for Active; 'I' for Inactive)
REMARK    1  A    between atoms: C_3  and  O_4 
REMARK    2  A    between atoms: O_4  and  C_5 
REMARK    3  A    between atoms: C_5  and  C_6 
REMARK    4  A    between atoms: C_12  and  N_13 
REMARK    5  A    between atoms: N_13  and  O_15 
REMARK    6  A    between atoms: C_17  and  N_18 
REMARK       I    between atoms: C_21  and  N_22 
ROOT
HETATM    1  N   UNK N   1      22.161  20.627   2.130  0.00  0.00    -0.168 N 
ATOM      2  HN  UNK N   1      22.664  21.418   1.730  1.00  0.00     0.186 HD
HETATM    3  C   UNK N   1      22.739  19.928   3.143  0.00  0.00     0.190 A 
HETATM    4  C   UNK N   1      22.010  18.826   3.713  0.00  0.00     0.149 A 
HETATM    5  C   UNK N   1      20.747  18.533   3.168  0.00  0.00     0.147 A 
HETATM    6  N   UNK N   1      20.246  19.272   2.149  0.00  0.00    -0.175 N 
ATOM      7  HN  UNK N   1      19.330  19.042   1.767  1.00  0.00     0.186 HD
HETATM    8  C   UNK N   1      20.942  20.310   1.633  0.00  0.00     0.679 A 
HETATM    9  N   UNK N   1      20.398  21.061   0.573  0.00  0.00    -0.234 N 
HETATM   10  H   UNK N   1      20.927  21.780   0.157  0.00  0.00     0.174 HD
HETATM   11  H   UNK N   1      19.490  20.867   0.246  0.00  0.00     0.174 HD
ENDROOT
BRANCH   3  12
HETATM   12  O   UNK N   1      23.974  20.346   3.535  0.00  0.00    -0.333 OA
BRANCH  12  13
HETATM   13  C   UNK N   1      25.141  20.314   2.813  0.00  0.00     0.182 C 
BRANCH  13  14
HETATM   14  C   UNK N   1      26.330  20.402   3.756  0.00  0.00     0.010 C 
HETATM   15  C   UNK N   1      27.054  19.057   3.834  0.00  0.00     0.007 C 
HETATM   16  C   UNK N   1      28.229  19.143   4.804  0.00  0.00     0.000 C 
HETATM   17  C   UNK N   1      27.740  19.561   6.188  0.00  0.00     0.000 C 
HETATM   18  C   UNK N   1      27.028  20.908   6.108  0.00  0.00     0.000 C 
HETATM   19  C   UNK N   1      25.849  20.823   5.143  0.00  0.00     0.007 C 
ENDBRANCH  13  14
ENDBRANCH  12  13
ENDBRANCH   3  12
BRANCH   4  20
HETATM   20  N   UNK N   1      22.442  18.020   4.810  0.00  0.00    -0.261 N 
ATOM     21  HN  UNK N   1      22.010  17.106   4.936  1.00  0.00     0.194 HD
BRANCH  20  22
HETATM   22  O   UNK N   1      23.280  18.358   5.585  0.00  0.00    -0.289 OA
ATOM     23  HO  UNK N   1      24.114  17.914   5.684  1.00  0.00     0.244 HD
ENDBRANCH  20  22
ENDBRANCH   4  20
BRANCH   5  24
HETATM   24  N   UNK N   1      19.973  17.478   3.697  0.00  0.00    -0.383 N 
HETATM   25  H   UNK N   1      19.492  17.597   4.547  0.00  0.00     0.157 HD
HETATM   26  H   UNK N   1      19.914  16.621   3.214  0.00  0.00     0.157 HD
ENDBRANCH   5  24
TORSDOF 6
ENDMDL
MODEL 4
REMARK VINA RESULT:      -6.2     15.939     18.453
REMARK  6 active torsions:
REMARK  status: ('A' for Active; 'I' for Inactive)
REMARK    1  A    between atoms: C_3  and  O_4 
REMARK    2  A    between atoms: O_4  and  C_5 
REMARK    3  A    between atoms: C_5  and  C_6 
REMARK    4  A    between atoms: C_12  and  N_13 
REMARK    5  A    between atoms: N_13  and  O_15 
REMARK    6  A    between atoms: C_17  and  N_18 
REMARK       I    between atoms: C_21  and  N_22 
ROOT
HETATM    1  N   UNK N   1      34.555  12.430  12.423  0.00  0.00    -0.168 N 
ATOM      2  HN  UNK N   1      33.976  11.655  12.745  1.00  0.00     0.186 HD
HETATM    3  C   UNK N   1      35.162  13.222  13.347  0.00  0.00     0.190 A 
HETATM    4  C   UNK N   1      35.994  14.299  12.879  0.00  0.00     0.149 A 
HETATM    5  C   UNK N   1      36.109  14.472  11.488  0.00  0.00     0.147 A 
HETATM    6  N   UNK N   1      35.462  13.645  10.633  0.00  0.00    -0.175 N 
ATOM      7  HN  UNK N   1      35.556  13.788   9.628  1.00  0.00     0.186 HD
HETATM    8  C   UNK N   1      34.692  12.632  11.091  0.00  0.00     0.679 A 
HETATM    9  N   UNK N   1      34.028  11.787  10.180  0.00  0.00    -0.234 N 
HETATM   10  H   UNK N   1      33.422  11.086  10.511  0.00  0.00     0.174 HD
HETATM   11  H   UNK N   1      34.169  11.898   9.212  0.00  0.00     0.174 HD
ENDROOT
BRANCH   3  12
HETATM   12  O   UNK N   1      34.927  12.914  14.651  0.00  0.00    -0.333 OA
BRANCH  12  13
HETATM   13  C   UNK N   1      35.466  11.884  15.383  0.00  0.00     0.182 C 
BRANCH  13  14
HETATM   14  C   UNK N   1      35.016  11.994  16.831  0.00  0.00     0.010 C 
HETATM   15  C   UNK N   1      35.430  13.343  17.420  0.00  0.00     0.007 C 
HETATM   16  C   UNK N   1      35.001  13.437  18.882  0.00  0.00     0.000 C 
HETATM   17  C   UNK N   1      35.620  12.297  19.686  0.00  0.00     0.000 C 
HETATM   18  C   UNK N   1      35.196  10.953  19.103  0.00  0.00     0.000 C 
HETATM   19  C   UNK N   1      35.628  10.855  17.642  0.00  0.00     0.007 C 
ENDBRANCH  13  14
ENDBRANCH  12  13
ENDBRANCH   3  12
BRANCH   4  20
HETATM   20  N   UNK N   1      36.742  15.192  13.704  0.00  0.00    -0.261 N 
ATOM     21  HN  UNK N   1      36.901  16.141  13.367  1.00  0.00     0.194 HD
BRANCH  20  22
HETATM   22  O   UNK N   1      37.191  14.889  14.764  0.00  0.00    -0.289 OA
ATOM     23  HO  UNK N   1      36.954  14.094  15.227  1.00  0.00     0.244 HD
ENDBRANCH  20  22
ENDBRANCH   4  20
BRANCH   5  24
HETATM   24  N   UNK N   1      36.927  15.497  10.965  0.00  0.00    -0.383 N 
HETATM   25  H   UNK N   1      37.882  15.330  10.799  0.00  0.00     0.157 HD
HETATM   26  H   UNK N   1      36.541  16.381  10.766  0.00  0.00     0.157 HD
ENDBRANCH   5  24
TORSDOF 6
ENDMDL
MODEL 5
REMARK VINA RESULT:      -6.2     15.130     17.707
REMARK  6 active torsions:
REMARK  status: ('A' for Active; 'I' for Inactive)
REMARK    1  A    between atoms: C_3  and  O_4 
REMARK    2  A    between atoms: O_4  and  C_5 
REMARK    3  A    between atoms: C_5  and  C_6 
REMARK    4  A    between atoms: C_12  and  N_13 
REMARK    5  A    between atoms: N_13  and  O_15 
REMARK    6  A    between atoms: C_17  and  N_18 
REMARK       I    between atoms: C_21  and  N_22 
ROOT
HETATM    1  N   UNK N   1      34.240  14.580  11.473  0.00  0.00    -0.168 N 
ATOM      2  HN  UNK N   1      33.281  14.626  11.817  1.00  0.00     0.186 HD
HETATM    3  C   UNK N   1      35.157  13.868  12.181  0.00  0.00     0.190 A 
HETATM    4  C   UNK N   1      36.501  13.795  11.674  0.00  0.00     0.149 A 
HETATM    5  C   UNK N   1      36.783  14.484  10.481  0.00  0.00     0.147 A 
HETATM    6  N   UNK N   1      35.813  15.182   9.841  0.00  0.00    -0.175 N 
ATOM      7  HN  UNK N   1      36.038  15.677   8.979  1.00  0.00     0.186 HD
HETATM    8  C   UNK N   1      34.553  15.232  10.328  0.00  0.00     0.679 A 
HETATM    9  N   UNK N   1      33.565  15.966   9.644  0.00  0.00    -0.234 N 
HETATM   10  H   UNK N   1      32.662  16.051  10.027  0.00  0.00     0.174 HD
HETATM   11  H   UNK N   1      33.776  16.394   8.784  0.00  0.00     0.174 HD
ENDROOT
BRANCH   3  12
HETATM   12  O   UNK N   1      34.709  13.276  13.322  0.00  0.00    -0.333 OA
BRANCH  12  13
HETATM   13  C   UNK N   1      34.464  11.942  13.536  0.00  0.00     0.182 C 
BRANCH  13  14
HETATM   14  C   UNK N   1      34.346  11.676  15.029  0.00  0.00     0.010 C 
HETATM   15  C   UNK N   1      35.164  12.696  15.821  0.00  0.00     0.007 C 
HETATM   16  C   UNK N   1      35.065  12.408  17.317  0.00  0.00     0.000 C 
HETATM   17  C   UNK N   1      35.556  10.993  17.613  0.00  0.00     0.000 C 
HETATM   18  C   UNK N   1      34.731   9.977  16.829  0.00  0.00     0.000 C 
HETATM   19  C   UNK N   1      34.832  10.261  15.333  0.00  0.00     0.007 C 
ENDBRANCH  13  14
ENDBRANCH  12  13
ENDBRANCH   3  12
BRANCH   4  20
HETATM   20  N   UNK N   1      37.573  13.054  12.259  0.00  0.00    -0.261 N 
ATOM     21  HN  UNK N   1      38.333  12.745  11.652  1.00  0.00     0.194 HD
BRANCH  20  22
HETATM   22  O   UNK N   1      37.628  12.777  13.415  0.00  0.00    -0.289 OA
ATOM     23  HO  UNK N   1      38.058  13.318  14.065  1.00  0.00     0.244 HD
ENDBRANCH  20  22
ENDBRANCH   4  20
BRANCH   5  24
HETATM   24  N   UNK N   1      38.077  14.434   9.920  0.00  0.00    -0.383 N 
HETATM   25  H   UNK N   1      38.400  13.606   9.498  0.00  0.00     0.157 HD
HETATM   26  H   UNK N   1      38.657  15.230   9.950  0.00  0.00     0.157 HD
ENDBRANCH   5  24
TORSDOF 6
ENDMDL
MODEL 6
REMARK VINA RESULT:      -6.2     14.804     17.275
REMARK  6 active torsions:
REMARK  status: ('A' for Active; 'I' for Inactive)
REMARK    1  A    between atoms: C_3  and  O_4 
REMARK    2  A    between atoms: O_4  and  C_5 
REMARK    3  A    between atoms: C_5  and  C_6 
REMARK    4  A    between atoms: C_12  and  N_13 
REMARK    5  A    between atoms: N_13  and  O_15 
REMARK    6  A    between atoms: C_17  and  N_18 
REMARK       I    between atoms: C_21  and  N_22 
ROOT
HETATM    1  N   UNK N   1      36.611  13.264  11.929  0.00  0.00    -0.168 N 
ATOM      2  HN  UNK N   1      37.016  12.640  12.627  1.00  0.00     0.186 HD
HETATM    3  C   UNK N   1      35.312  13.643  12.065  0.00  0.00     0.190 A 
HETATM    4  C   UNK N   1      34.759  14.541  11.086  0.00  0.00     0.149 A 
HETATM    5  C   UNK N   1      35.600  14.954  10.037  0.00  0.00     0.147 A 
HETATM    6  N   UNK N   1      36.882  14.521   9.967  0.00  0.00    -0.175 N 
ATOM      7  HN  UNK N   1      37.474  14.830   9.198  1.00  0.00     0.186 HD
HETATM    8  C   UNK N   1      37.387  13.685  10.902  0.00  0.00     0.679 A 
HETATM    9  N   UNK N   1      38.722  13.248  10.805  0.00  0.00    -0.234 N 
HETATM   10  H   UNK N   1      39.075  12.595  11.451  0.00  0.00     0.174 HD
HETATM   11  H   UNK N   1      39.304  13.595  10.090  0.00  0.00     0.174 HD
ENDROOT
BRANCH   3  12
HETATM   12  O   UNK N   1      34.646  13.134  13.136  0.00  0.00    -0.333 OA
BRANCH  12  13
HETATM   13  C   UNK N   1      34.497  11.814  13.485  0.00  0.00     0.182 C 
BRANCH  13  14
HETATM   14  C   UNK N   1      34.365  11.694  14.995  0.00  0.00     0.010 C 
HETATM   15  C   UNK N   1      35.178  12.785  15.692  0.00  0.00     0.007 C 
HETATM   16  C   UNK N   1      35.066  12.644  17.208  0.00  0.00     0.000 C 
HETATM   17  C   UNK N   1      35.550  11.263  17.644  0.00  0.00     0.000 C 
HETATM   18  C   UNK N   1      34.729  10.177  16.955  0.00  0.00     0.000 C 
HETATM   19  C   UNK N   1      34.845  10.315  15.440  0.00  0.00     0.007 C 
ENDBRANCH  13  14
ENDBRANCH  12  13
ENDBRANCH   3  12
BRANCH   4  20
HETATM   20  N   UNK N   1      33.436  15.078  11.102  0.00  0.00    -0.261 N 
ATOM     21  HN  UNK N   1      33.163  15.662  11.892  1.00  0.00     0.194 HD
BRANCH  20  22
HETATM   22  O   UNK N   1      32.635  14.881  10.244  0.00  0.00    -0.289 OA
ATOM     23  HO  UNK N   1      31.703  14.797  10.405  1.00  0.00     0.244 HD
ENDBRANCH  20  22
ENDBRANCH   4  20
BRANCH   5  24
HETATM   24  N   UNK N   1      35.124  15.851   9.057  0.00  0.00    -0.383 N 
HETATM   25  H   UNK N   1      35.460  15.798   8.134  0.00  0.00     0.157 HD
HETATM   26  H   UNK N   1      34.452  16.531   9.297  0.00  0.00     0.157 HD
ENDBRANCH   5  24
TORSDOF 6
ENDMDL
MODEL 7
REMARK VINA RESULT:      -6.1     14.626     17.189
REMARK  6 active torsions:
REMARK  status: ('A' for Active; 'I' for Inactive)
REMARK    1  A    between atoms: C_3  and  O_4 
REMARK    2  A    between atoms: O_4  and  C_5 
REMARK    3  A    between atoms: C_5  and  C_6 
REMARK    4  A    between atoms: C_12  and  N_13 
REMARK    5  A    between atoms: N_13  and  O_15 
REMARK    6  A    between atoms: C_17  and  N_18 
REMARK       I    between atoms: C_21  and  N_22 
ROOT
HETATM    1  N   UNK N   1      34.135  13.027  10.856  0.00  0.00    -0.168 N 
ATOM      2  HN  UNK N   1      33.860  12.047  10.803  1.00  0.00     0.186 HD
HETATM    3  C   UNK N   1      35.028  13.407  11.810  0.00  0.00     0.190 A 
HETATM    4  C   UNK N   1      35.423  14.789  11.860  0.00  0.00     0.149 A 
HETATM    5  C   UNK N   1      34.842  15.665  10.925  0.00  0.00     0.147 A 
HETATM    6  N   UNK N   1      33.951  15.208  10.013  0.00  0.00    -0.175 N 
ATOM      7  HN  UNK N   1      33.539  15.859   9.346  1.00  0.00     0.186 HD
HETATM    8  C   UNK N   1      33.598  13.903   9.975  0.00  0.00     0.679 A 
HETATM    9  N   UNK N   1      32.667  13.456   9.017  0.00  0.00    -0.234 N 
HETATM   10  H   UNK N   1      32.366  12.519   9.024  0.00  0.00     0.174 HD
HETATM   11  H   UNK N   1      32.317  14.080   8.341  0.00  0.00     0.174 HD
ENDROOT
BRANCH   3  12
HETATM   12  O   UNK N   1      35.476  12.425  12.639  0.00  0.00    -0.333 OA
BRANCH  12  13
HETATM   13  C   UNK N   1      34.758  11.720  13.573  0.00  0.00     0.182 C 
BRANCH  13  14
HETATM   14  C   UNK N   1      35.401  11.879  14.941  0.00  0.00     0.010 C 
HETATM   15  C   UNK N   1      35.474  10.530  15.659  0.00  0.00     0.007 C 
HETATM   16  C   UNK N   1      36.094  10.700  17.044  0.00  0.00     0.000 C 
HETATM   17  C   UNK N   1      35.278  11.693  17.867  0.00  0.00     0.000 C 
HETATM   18  C   UNK N   1      35.217  13.041  17.154  0.00  0.00     0.000 C 
HETATM   19  C   UNK N   1      34.593  12.874  15.771  0.00  0.00     0.007 C 
ENDBRANCH  13  14
ENDBRANCH  12  13
ENDBRANCH   3  12
BRANCH   4  20
HETATM   20  N   UNK N   1      36.382  15.348  12.758  0.00  0.00    -0.261 N 
ATOM     21  HN  UNK N   1      36.762  16.270  12.545  1.00  0.00     0.194 HD
BRANCH  20  22
HETATM   22  O   UNK N   1      36.763  14.797  13.742  0.00  0.00    -0.289 OA
ATOM     23  HO  UNK N   1      36.376  13.998  14.079  1.00  0.00     0.244 HD
ENDBRANCH  20  22
ENDBRANCH   4  20
BRANCH   5  24
HETATM   24  N   UNK N   1      35.205  17.028  10.909  0.00  0.00    -0.383 N 
HETATM   25  H   UNK N   1      35.855  17.374  11.561  0.00  0.00     0.157 HD
HETATM   26  H   UNK N   1      34.806  17.635  10.243  0.00  0.00     0.157 HD
ENDBRANCH   5  24
TORSDOF 6
ENDMDL
MODEL 8
REMARK VINA RESULT:      -6.0     13.525     15.544
REMARK  6 active torsions:
REMARK  status: ('A' for Active; 'I' for Inactive)
REMARK    1  A    between atoms: C_3  and  O_4 
REMARK    2  A    between atoms: O_4  and  C_5 
REMARK    3  A    between atoms: C_5  and  C_6 
REMARK    4  A    between atoms: C_12  and  N_13 
REMARK    5  A    between atoms: N_13  and  O_15 
REMARK    6  A    between atoms: C_17  and  N_18 
REMARK       I    between atoms: C_21  and  N_22 
ROOT
HETATM    1  N   UNK N   1      34.471  12.605  12.063  0.00  0.00    -0.168 N 
ATOM      2  HN  UNK N   1      33.840  12.027  11.509  1.00  0.00     0.186 HD
HETATM    3  C   UNK N   1      35.006  13.720  11.497  0.00  0.00     0.190 A 
HETATM    4  C   UNK N   1      35.879  14.538  12.297  0.00  0.00     0.149 A 
HETATM    5  C   UNK N   1      36.136  14.116  13.614  0.00  0.00     0.147 A 
HETATM    6  N   UNK N   1      35.571  12.985  14.100  0.00  0.00    -0.175 N 
ATOM      7  HN  UNK N   1      35.771  12.695  15.056  1.00  0.00     0.186 HD
HETATM    8  C   UNK N   1      34.746  12.234  13.336  0.00  0.00     0.679 A 
HETATM    9  N   UNK N   1      34.173  11.061  13.865  0.00  0.00    -0.234 N 
HETATM   10  H   UNK N   1      33.619  10.483  13.294  0.00  0.00     0.174 HD
HETATM   11  H   UNK N   1      34.327  10.818  14.807  0.00  0.00     0.174 HD
ENDROOT
BRANCH   3  12
HETATM   12  O   UNK N   1      34.656  13.966  10.205  0.00  0.00    -0.333 OA
BRANCH  12  13
HETATM   13  C   UNK N   1      33.644  14.772   9.747  0.00  0.00     0.182 C 
BRANCH  13  14
HETATM   14  C   UNK N   1      34.173  15.688   8.655  0.00  0.00     0.010 C 
HETATM   15  C   UNK N   1      33.797  17.142   8.946  0.00  0.00     0.007 C 
HETATM   16  C   UNK N   1      34.306  18.054   7.833  0.00  0.00     0.000 C 
HETATM   17  C   UNK N   1      33.726  17.618   6.490  0.00  0.00     0.000 C 
HETATM   18  C   UNK N   1      34.112  16.171   6.197  0.00  0.00     0.000 C 
HETATM   19  C   UNK N   1      33.600  15.257   7.307  0.00  0.00     0.007 C 
ENDBRANCH  13  14
ENDBRANCH  12  13
ENDBRANCH   3  12
BRANCH   4  20
HETATM   20  N   UNK N   1      36.484  15.763  11.882  0.00  0.00    -0.261 N 
ATOM     21  HN  UNK N   1      36.508  16.537  12.545  1.00  0.00     0.194 HD
BRANCH  20  22
HETATM   22  O   UNK N   1      36.962  15.928  10.805  0.00  0.00    -0.289 OA
ATOM     23  HO  UNK N   1      37.551  15.309  10.390  1.00  0.00     0.244 HD
ENDBRANCH  20  22
ENDBRANCH   4  20
BRANCH   5  24
HETATM   24  N   UNK N   1      36.966  14.886  14.457  0.00  0.00    -0.383 N 
HETATM   25  H   UNK N   1      37.812  15.254  14.115  0.00  0.00     0.157 HD
HETATM   26  H   UNK N   1      36.698  15.056  15.389  0.00  0.00     0.157 HD
ENDBRANCH   5  24
TORSDOF 6
ENDMDL
MODEL 9
REMARK VINA RESULT:      -5.9      5.448      7.323
REMARK  6 active torsions:
REMARK  status: ('A' for Active; 'I' for Inactive)
REMARK    1  A    between atoms: C_3  and  O_4 
REMARK    2  A    between atoms: O_4  and  C_5 
REMARK    3  A    between atoms: C_5  and  C_6 
REMARK    4  A    between atoms: C_12  and  N_13 
REMARK    5  A    between atoms: N_13  and  O_15 
REMARK    6  A    between atoms: C_17  and  N_18 
REMARK       I    between atoms: C_21  and  N_22 
ROOT
HETATM    1  N   UNK N   1      27.462  19.519   7.142  0.00  0.00    -0.168 N 
ATOM      2  HN  UNK N   1      27.685  19.267   8.105  1.00  0.00     0.186 HD
HETATM    3  C   UNK N   1      28.066  18.840   6.131  0.00  0.00     0.190 A 
HETATM    4  C   UNK N   1      27.726  19.190   4.777  0.00  0.00     0.149 A 
HETATM    5  C   UNK N   1      26.799  20.231   4.590  0.00  0.00     0.147 A 
HETATM    6  N   UNK N   1      26.250  20.866   5.654  0.00  0.00    -0.175 N 
ATOM      7  HN  UNK N   1      25.582  21.620   5.497  1.00  0.00     0.186 HD
HETATM    8  C   UNK N   1      26.574  20.517   6.919  0.00  0.00     0.679 A 
HETATM    9  N   UNK N   1      25.990  21.195   8.006  0.00  0.00    -0.234 N 
HETATM   10  H   UNK N   1      26.268  20.981   8.926  0.00  0.00     0.174 HD
HETATM   11  H   UNK N   1      25.305  21.883   7.847  0.00  0.00     0.174 HD
ENDROOT
BRANCH   3  12
HETATM   12  O   UNK N   1      28.948  17.871   6.499  0.00  0.00    -0.333 OA
BRANCH  12  13
HETATM   13  C   UNK N   1      29.435  17.610   7.755  0.00  0.00     0.182 C 
BRANCH  13  14
HETATM   14  C   UNK N   1      30.885  17.160   7.660  0.00  0.00     0.010 C 
HETATM   15  C   UNK N   1      31.783  18.063   8.507  0.00  0.00     0.007 C 
HETATM   16  C   UNK N   1      33.240  17.625   8.386  0.00  0.00     0.000 C 
HETATM   17  C   UNK N   1      33.680  17.663   6.925  0.00  0.00     0.000 C 
HETATM   18  C   UNK N   1      32.789  16.753   6.084  0.00  0.00     0.000 C 
HETATM   19  C   UNK N   1      31.333  17.192   6.201  0.00  0.00     0.007 C 
ENDBRANCH  13  14
ENDBRANCH  12  13
ENDBRANCH   3  12
BRANCH   4  20
HETATM   20  N   UNK N   1      28.223  18.551   3.601  0.00  0.00    -0.261 N 
ATOM     21  HN  UNK N   1      27.973  18.946   2.695  1.00  0.00     0.194 HD
BRANCH  20  22
HETATM   22  O   UNK N   1      28.914  17.582   3.621  0.00  0.00    -0.289 OA
ATOM     23  HO  UNK N   1      29.025  17.031   4.387  1.00  0.00     0.244 HD
ENDBRANCH  20  22
ENDBRANCH   4  20
BRANCH   5  24
HETATM   24  N   UNK N   1      26.407  20.608   3.288  0.00  0.00    -0.383 N 
HETATM   25  H   UNK N   1      26.988  21.189   2.746  0.00  0.00     0.157 HD
HETATM   26  H   UNK N   1      25.551  20.288   2.920  0.00  0.00     0.157 HD
ENDBRANCH   5  24
TORSDOF 6
ENDMDL
