MODEL 1
REMARK VINA RESULT:      -5.5      0.000      0.000
REMARK  8 active torsions:
REMARK  status: ('A' for Active; 'I' for Inactive)
REMARK    1  A    between atoms: N_2  and  C_9 
REMARK    2  A    between atoms: N_2  and  C_11 
REMARK    3  A    between atoms: N_2  and  C_12 
REMARK    4  A    between atoms: N_3  and  C_8 
REMARK    5  A    between atoms: N_3  and  C_13 
REMARK    6  A    between atoms: C_6  and  C_7 
REMARK    7  A    between atoms: C_6  and  C_8 
REMARK    8  A    between atoms: C_7  and  C_9 
ROOT
HETATM    1 Cl   UNK N   1      23.204  11.547  13.160  0.00  0.00    -0.084 Cl
HETATM    2  N   UNK N   1      24.743  13.199   8.571  0.00  0.00    -0.365 N 
ATOM      3  HN  UNK N   1      25.695  13.001   8.879  1.00  0.00     0.165 HD
HETATM    4  C   UNK N   1      22.160  13.742   7.731  0.00  0.00     0.042 A 
HETATM    5  C   UNK N   1      22.383  13.239   9.019  0.00  0.00     0.017 A 
HETATM    6  C   UNK N   1      23.242  13.958   6.875  0.00  0.00     0.047 A 
HETATM    7  C   UNK N   1      23.709  12.967   9.422  0.00  0.00     0.046 A 
HETATM    8  C   UNK N   1      21.321  12.973   9.893  0.00  0.00     0.018 A 
HETATM    9  C   UNK N   1      24.537  13.690   7.318  0.00  0.00     0.090 A 
HETATM   10  C   UNK N   1      23.953  12.443  10.694  0.00  0.00     0.054 A 
HETATM   11  C   UNK N   1      21.576  12.451  11.164  0.00  0.00     0.025 A 
HETATM   12  C   UNK N   1      22.890  12.188  11.563  0.00  0.00     0.036 A 
ENDROOT
BRANCH   4  13
HETATM   13  N   UNK N   1      20.849  13.930   7.253  0.00  0.00    -0.385 N 
HETATM   14  H   UNK N   1      20.249  13.167   7.084  0.00  0.00     0.160 HD
BRANCH  13  15
HETATM   15  C   UNK N   1      20.424  15.280   7.025  0.00  0.00     0.077 C 
HETATM   16  C   UNK N   1      19.826  15.960   8.245  0.00  0.00     0.032 C 
BRANCH  15  17
HETATM   17  C   UNK N   1      19.822  15.492   5.638  0.00  0.00     0.026 C 
BRANCH  17  18
HETATM   18  C   UNK N   1      20.723  16.217   4.657  0.00  0.00     0.032 C 
BRANCH  18  19
HETATM   19  C   UNK N   1      19.985  17.260   3.808  0.00  0.00     0.272 C 
BRANCH  19  20
HETATM   20  N   UNK N   1      20.902  18.003   2.931  0.00  0.00     0.087 N 
BRANCH  20  21
HETATM   21  C   UNK N   1      21.328  19.237   3.605  0.00  0.00     0.268 C 
HETATM   22  C   UNK N   1      20.591  20.437   3.042  0.00  0.00     0.037 C 
ENDBRANCH  20  21
BRANCH  20  23
HETATM   23  C   UNK N   1      20.187  18.228   1.665  0.00  0.00     0.268 C 
HETATM   24  C   UNK N   1      20.113  17.028   0.728  0.00  0.00     0.037 C 
ENDBRANCH  20  23
ENDBRANCH  19  20
ENDBRANCH  18  19
ENDBRANCH  17  18
ENDBRANCH  15  17
ENDBRANCH  13  15
ENDBRANCH   4  13
TORSDOF 8
ENDMDL
MODEL 2
REMARK VINA RESULT:      -5.4     16.505     19.360
REMARK  8 active torsions:
REMARK  status: ('A' for Active; 'I' for Inactive)
REMARK    1  A    between atoms: N_2  and  C_9 
REMARK    2  A    between atoms: N_2  and  C_11 
REMARK    3  A    between atoms: N_2  and  C_12 
REMARK    4  A    between atoms: N_3  and  C_8 
REMARK    5  A    between atoms: N_3  and  C_13 
REMARK    6  A    between atoms: C_6  and  C_7 
REMARK    7  A    between atoms: C_6  and  C_8 
REMARK    8  A    between atoms: C_7  and  C_9 
ROOT
HETATM    1 Cl   UNK N   1      30.226  30.273  -8.383  0.00  0.00    -0.084 Cl
HETATM    2  N   UNK N   1      27.099  29.766  -4.369  0.00  0.00    -0.365 N 
ATOM      3  HN  UNK N   1      27.497  30.637  -4.017  1.00  0.00     0.165 HD
HETATM    4  C   UNK N   1      26.014  27.401  -5.318  0.00  0.00     0.042 A 
HETATM    5  C   UNK N   1      27.015  28.052  -6.050  0.00  0.00     0.017 A 
HETATM    6  C   UNK N   1      25.564  27.954  -4.117  0.00  0.00     0.047 A 
HETATM    7  C   UNK N   1      27.550  29.259  -5.546  0.00  0.00     0.046 A 
HETATM    8  C   UNK N   1      27.468  27.549  -7.277  0.00  0.00     0.018 A 
HETATM    9  C   UNK N   1      26.128  29.140  -3.649  0.00  0.00     0.090 A 
HETATM   10  C   UNK N   1      28.532  29.938  -6.271  0.00  0.00     0.054 A 
HETATM   11  C   UNK N   1      28.453  28.235  -7.993  0.00  0.00     0.025 A 
HETATM   12  C   UNK N   1      28.984  29.426  -7.489  0.00  0.00     0.036 A 
ENDROOT
BRANCH   4  13
HETATM   13  N   UNK N   1      25.384  26.252  -5.834  0.00  0.00    -0.385 N 
HETATM   14  H   UNK N   1      24.495  26.300  -6.255  0.00  0.00     0.160 HD
BRANCH  13  15
HETATM   15  C   UNK N   1      26.093  25.011  -5.720  0.00  0.00     0.077 C 
HETATM   16  C   UNK N   1      26.012  24.132  -6.956  0.00  0.00     0.032 C 
BRANCH  15  17
HETATM   17  C   UNK N   1      26.017  24.404  -4.321  0.00  0.00     0.026 C 
BRANCH  17  18
HETATM   18  C   UNK N   1      27.187  24.738  -3.418  0.00  0.00     0.032 C 
BRANCH  18  19
HETATM   19  C   UNK N   1      28.385  23.796  -3.597  0.00  0.00     0.272 C 
BRANCH  19  20
HETATM   20  N   UNK N   1      29.532  24.476  -4.214  0.00  0.00     0.087 N 
BRANCH  20  21
HETATM   21  C   UNK N   1      29.352  25.930  -4.108  0.00  0.00     0.268 C 
HETATM   22  C   UNK N   1      30.617  26.594  -3.600  0.00  0.00     0.037 C 
ENDBRANCH  20  21
BRANCH  20  23
HETATM   23  C   UNK N   1      29.623  23.984  -5.597  0.00  0.00     0.268 C 
HETATM   24  C   UNK N   1      29.447  22.480  -5.774  0.00  0.00     0.037 C 
ENDBRANCH  20  23
ENDBRANCH  19  20
ENDBRANCH  18  19
ENDBRANCH  17  18
ENDBRANCH  15  17
ENDBRANCH  13  15
ENDBRANCH   4  13
TORSDOF 8
ENDMDL
MODEL 3
REMARK VINA RESULT:      -5.3     15.590     17.196
REMARK  8 active torsions:
REMARK  status: ('A' for Active; 'I' for Inactive)
REMARK    1  A    between atoms: N_2  and  C_9 
REMARK    2  A    between atoms: N_2  and  C_11 
REMARK    3  A    between atoms: N_2  and  C_12 
REMARK    4  A    between atoms: N_3  and  C_8 
REMARK    5  A    between atoms: N_3  and  C_13 
REMARK    6  A    between atoms: C_6  and  C_7 
REMARK    7  A    between atoms: C_6  and  C_8 
REMARK    8  A    between atoms: C_7  and  C_9 
ROOT
HETATM    1 Cl   UNK N   1      32.072  21.373  -2.930  0.00  0.00    -0.084 Cl
HETATM    2  N   UNK N   1      31.061  25.729  -5.411  0.00  0.00    -0.365 N 
ATOM      3  HN  UNK N   1      31.987  25.644  -5.829  1.00  0.00     0.165 HD
HETATM    4  C   UNK N   1      28.544  25.969  -4.278  0.00  0.00     0.042 A 
HETATM    5  C   UNK N   1      29.363  24.886  -3.934  0.00  0.00     0.017 A 
HETATM    6  C   UNK N   1      28.999  26.917  -5.197  0.00  0.00     0.047 A 
HETATM    7  C   UNK N   1      30.640  24.785  -4.529  0.00  0.00     0.046 A 
HETATM    8  C   UNK N   1      28.929  23.895  -3.045  0.00  0.00     0.018 A 
HETATM    9  C   UNK N   1      30.273  26.787  -5.750  0.00  0.00     0.090 A 
HETATM   10  C   UNK N   1      31.465  23.700  -4.219  0.00  0.00     0.054 A 
HETATM   11  C   UNK N   1      29.762  22.815  -2.740  0.00  0.00     0.025 A 
HETATM   12  C   UNK N   1      31.028  22.720  -3.325  0.00  0.00     0.036 A 
ENDROOT
BRANCH   4  13
HETATM   13  N   UNK N   1      27.227  26.053  -3.788  0.00  0.00    -0.385 N 
HETATM   14  H   UNK N   1      26.988  25.712  -2.896  0.00  0.00     0.160 HD
BRANCH  13  15
HETATM   15  C   UNK N   1      26.249  26.658  -4.644  0.00  0.00     0.077 C 
HETATM   16  C   UNK N   1      25.569  27.879  -4.049  0.00  0.00     0.032 C 
BRANCH  15  17
HETATM   17  C   UNK N   1      25.455  25.640  -5.459  0.00  0.00     0.026 C 
BRANCH  17  18
HETATM   18  C   UNK N   1      25.570  24.208  -4.975  0.00  0.00     0.032 C 
BRANCH  18  19
HETATM   19  C   UNK N   1      26.058  23.236  -6.057  0.00  0.00     0.272 C 
BRANCH  19  20
HETATM   20  N   UNK N   1      26.553  23.942  -7.247  0.00  0.00     0.087 N 
BRANCH  20  21
HETATM   21  C   UNK N   1      25.803  23.493  -8.428  0.00  0.00     0.268 C 
HETATM   22  C   UNK N   1      25.186  22.129  -8.186  0.00  0.00     0.037 C 
ENDBRANCH  20  21
BRANCH  20  23
HETATM   23  C   UNK N   1      27.999  23.681  -7.323  0.00  0.00     0.268 C 
HETATM   24  C   UNK N   1      28.490  22.460  -6.554  0.00  0.00     0.037 C 
ENDBRANCH  20  23
ENDBRANCH  19  20
ENDBRANCH  18  19
ENDBRANCH  17  18
ENDBRANCH  15  17
ENDBRANCH  13  15
ENDBRANCH   4  13
TORSDOF 8
ENDMDL
MODEL 4
REMARK VINA RESULT:      -5.3     16.550     19.120
REMARK  8 active torsions:
REMARK  status: ('A' for Active; 'I' for Inactive)
REMARK    1  A    between atoms: N_2  and  C_9 
REMARK    2  A    between atoms: N_2  and  C_11 
REMARK    3  A    between atoms: N_2  and  C_12 
REMARK    4  A    between atoms: N_3  and  C_8 
REMARK    5  A    between atoms: N_3  and  C_13 
REMARK    6  A    between atoms: C_6  and  C_7 
REMARK    7  A    between atoms: C_6  and  C_8 
REMARK    8  A    between atoms: C_7  and  C_9 
ROOT
HETATM    1 Cl   UNK N   1      29.747  29.502  -8.890  0.00  0.00    -0.084 Cl
HETATM    2  N   UNK N   1      26.908  29.257  -4.644  0.00  0.00    -0.365 N 
ATOM      3  HN  UNK N   1      27.303  30.162  -4.392  1.00  0.00     0.165 HD
HETATM    4  C   UNK N   1      25.830  26.797  -5.323  0.00  0.00     0.042 A 
HETATM    5  C   UNK N   1      26.762  27.408  -6.171  0.00  0.00     0.017 A 
HETATM    6  C   UNK N   1      25.444  27.437  -4.143  0.00  0.00     0.047 A 
HETATM    7  C   UNK N   1      27.294  28.664  -5.805  0.00  0.00     0.046 A 
HETATM    8  C   UNK N   1      27.147  26.816  -7.381  0.00  0.00     0.018 A 
HETATM    9  C   UNK N   1      26.004  28.670  -3.812  0.00  0.00     0.090 A 
HETATM   10  C   UNK N   1      28.207  29.304  -6.647  0.00  0.00     0.054 A 
HETATM   11  C   UNK N   1      28.062  27.463  -8.216  0.00  0.00     0.025 A 
HETATM   12  C   UNK N   1      28.592  28.703  -7.848  0.00  0.00     0.036 A 
ENDROOT
BRANCH   4  13
HETATM   13  N   UNK N   1      25.200  25.595  -5.700  0.00  0.00    -0.385 N 
HETATM   14  H   UNK N   1      24.411  25.592  -6.289  0.00  0.00     0.160 HD
BRANCH  13  15
HETATM   15  C   UNK N   1      25.757  24.377  -5.189  0.00  0.00     0.077 C 
HETATM   16  C   UNK N   1      26.645  24.562  -3.969  0.00  0.00     0.032 C 
BRANCH  15  17
HETATM   17  C   UNK N   1      26.131  23.383  -6.285  0.00  0.00     0.026 C 
BRANCH  17  18
HETATM   18  C   UNK N   1      27.569  23.467  -6.757  0.00  0.00     0.032 C 
BRANCH  18  19
HETATM   19  C   UNK N   1      28.141  22.119  -7.215  0.00  0.00     0.272 C 
BRANCH  19  20
HETATM   20  N   UNK N   1      29.068  21.551  -6.227  0.00  0.00     0.087 N 
BRANCH  20  21
HETATM   21  C   UNK N   1      29.826  22.636  -5.588  0.00  0.00     0.268 C 
HETATM   22  C   UNK N   1      30.048  22.343  -4.117  0.00  0.00     0.037 C 
ENDBRANCH  20  21
BRANCH  20  23
HETATM   23  C   UNK N   1      29.907  20.578  -6.944  0.00  0.00     0.268 C 
HETATM   24  C   UNK N   1      29.153  19.518  -7.739  0.00  0.00     0.037 C 
ENDBRANCH  20  23
ENDBRANCH  19  20
ENDBRANCH  18  19
ENDBRANCH  17  18
ENDBRANCH  15  17
ENDBRANCH  13  15
ENDBRANCH   4  13
TORSDOF 8
ENDMDL
MODEL 5
REMARK VINA RESULT:      -5.2     15.876     17.332
REMARK  8 active torsions:
REMARK  status: ('A' for Active; 'I' for Inactive)
REMARK    1  A    between atoms: N_2  and  C_9 
REMARK    2  A    between atoms: N_2  and  C_11 
REMARK    3  A    between atoms: N_2  and  C_12 
REMARK    4  A    between atoms: N_3  and  C_8 
REMARK    5  A    between atoms: N_3  and  C_13 
REMARK    6  A    between atoms: C_6  and  C_7 
REMARK    7  A    between atoms: C_6  and  C_8 
REMARK    8  A    between atoms: C_7  and  C_9 
ROOT
HETATM    1 Cl   UNK N   1      30.095  18.635  -8.463  0.00  0.00    -0.084 Cl
HETATM    2  N   UNK N   1      30.708  21.278  -4.128  0.00  0.00    -0.365 N 
ATOM      3  HN  UNK N   1      31.341  20.536  -3.829  1.00  0.00     0.165 HD
HETATM    4  C   UNK N   1      28.987  23.294  -4.934  0.00  0.00     0.042 A 
HETATM    5  C   UNK N   1      29.222  22.199  -5.776  0.00  0.00     0.017 A 
HETATM    6  C   UNK N   1      29.630  23.365  -3.696  0.00  0.00     0.047 A 
HETATM    7  C   UNK N   1      30.106  21.186  -5.343  0.00  0.00     0.046 A 
HETATM    8  C   UNK N   1      28.626  22.109  -7.040  0.00  0.00     0.018 A 
HETATM    9  C   UNK N   1      30.485  22.337  -3.302  0.00  0.00     0.090 A 
HETATM   10  C   UNK N   1      30.373  20.097  -6.176  0.00  0.00     0.054 A 
HETATM   11  C   UNK N   1      28.897  21.014  -7.865  0.00  0.00     0.025 A 
HETATM   12  C   UNK N   1      29.768  20.010  -7.432  0.00  0.00     0.036 A 
ENDROOT
BRANCH   4  13
HETATM   13  N   UNK N   1      28.195  24.374  -5.369  0.00  0.00    -0.385 N 
HETATM   14  H   UNK N   1      28.585  25.131  -5.863  0.00  0.00     0.160 HD
BRANCH  13  15
HETATM   15  C   UNK N   1      26.795  24.322  -5.061  0.00  0.00     0.077 C 
HETATM   16  C   UNK N   1      25.886  24.511  -6.263  0.00  0.00     0.032 C 
BRANCH  15  17
HETATM   17  C   UNK N   1      26.454  24.955  -3.714  0.00  0.00     0.026 C 
BRANCH  17  18
HETATM   18  C   UNK N   1      26.924  26.387  -3.547  0.00  0.00     0.032 C 
BRANCH  18  19
HETATM   19  C   UNK N   1      25.825  27.424  -3.811  0.00  0.00     0.272 C 
BRANCH  19  20
HETATM   20  N   UNK N   1      26.295  28.515  -4.677  0.00  0.00     0.087 N 
BRANCH  20  21
HETATM   21  C   UNK N   1      27.555  28.118  -5.321  0.00  0.00     0.268 C 
HETATM   22  C   UNK N   1      27.833  28.984  -6.534  0.00  0.00     0.037 C 
ENDBRANCH  20  21
BRANCH  20  23
HETATM   23  C   UNK N   1      26.409  29.710  -3.827  0.00  0.00     0.268 C 
HETATM   24  C   UNK N   1      27.610  29.739  -2.888  0.00  0.00     0.037 C 
ENDBRANCH  20  23
ENDBRANCH  19  20
ENDBRANCH  18  19
ENDBRANCH  17  18
ENDBRANCH  15  17
ENDBRANCH  13  15
ENDBRANCH   4  13
TORSDOF 8
ENDMDL
MODEL 6
REMARK VINA RESULT:      -5.2      1.517      2.198
REMARK  8 active torsions:
REMARK  status: ('A' for Active; 'I' for Inactive)
REMARK    1  A    between atoms: N_2  and  C_9 
REMARK    2  A    between atoms: N_2  and  C_11 
REMARK    3  A    between atoms: N_2  and  C_12 
REMARK    4  A    between atoms: N_3  and  C_8 
REMARK    5  A    between atoms: N_3  and  C_13 
REMARK    6  A    between atoms: C_6  and  C_7 
REMARK    7  A    between atoms: C_6  and  C_8 
REMARK    8  A    between atoms: C_7  and  C_9 
ROOT
HETATM    1 Cl   UNK N   1      23.023  11.544  12.887  0.00  0.00    -0.084 Cl
HETATM    2  N   UNK N   1      24.462  13.531   8.400  0.00  0.00    -0.365 N 
ATOM      3  HN  UNK N   1      25.420  13.313   8.671  1.00  0.00     0.165 HD
HETATM    4  C   UNK N   1      21.861  14.128   7.656  0.00  0.00     0.042 A 
HETATM    5  C   UNK N   1      22.111  13.532   8.899  0.00  0.00     0.017 A 
HETATM    6  C   UNK N   1      22.924  14.409   6.796  0.00  0.00     0.047 A 
HETATM    7  C   UNK N   1      23.446  13.235   9.253  0.00  0.00     0.046 A 
HETATM    8  C   UNK N   1      21.069  13.201   9.774  0.00  0.00     0.018 A 
HETATM    9  C   UNK N   1      24.228  14.111   7.190  0.00  0.00     0.090 A 
HETATM   10  C   UNK N   1      23.718  12.620  10.478  0.00  0.00     0.054 A 
HETATM   11  C   UNK N   1      21.352  12.588  10.998  0.00  0.00     0.025 A 
HETATM   12  C   UNK N   1      22.674  12.300  11.348  0.00  0.00     0.036 A 
ENDROOT
BRANCH   4  13
HETATM   13  N   UNK N   1      20.539  14.346   7.222  0.00  0.00    -0.385 N 
HETATM   14  H   UNK N   1      19.924  13.597   7.050  0.00  0.00     0.160 HD
BRANCH  13  15
HETATM   15  C   UNK N   1      20.128  15.708   7.042  0.00  0.00     0.077 C 
HETATM   16  C   UNK N   1      19.793  16.433   8.334  0.00  0.00     0.032 C 
BRANCH  15  17
HETATM   17  C   UNK N   1      19.287  15.919   5.785  0.00  0.00     0.026 C 
BRANCH  17  18
HETATM   18  C   UNK N   1      20.077  16.283   4.544  0.00  0.00     0.032 C 
BRANCH  18  19
HETATM   19  C   UNK N   1      21.154  17.345   4.796  0.00  0.00     0.272 C 
BRANCH  19  20
HETATM   20  N   UNK N   1      22.248  17.262   3.818  0.00  0.00     0.087 N 
BRANCH  20  21
HETATM   21  C   UNK N   1      22.331  15.892   3.294  0.00  0.00     0.268 C 
HETATM   22  C   UNK N   1      23.769  15.414   3.263  0.00  0.00     0.037 C 
ENDBRANCH  20  21
BRANCH  20  23
HETATM   23  C   UNK N   1      23.467  17.713   4.507  0.00  0.00     0.268 C 
HETATM   24  C   UNK N   1      24.049  19.034   4.018  0.00  0.00     0.037 C 
ENDBRANCH  20  23
ENDBRANCH  19  20
ENDBRANCH  18  19
ENDBRANCH  17  18
ENDBRANCH  15  17
ENDBRANCH  13  15
ENDBRANCH   4  13
TORSDOF 8
ENDMDL
MODEL 7
REMARK VINA RESULT:      -5.2      9.221     13.009
REMARK  8 active torsions:
REMARK  status: ('A' for Active; 'I' for Inactive)
REMARK    1  A    between atoms: N_2  and  C_9 
REMARK    2  A    between atoms: N_2  and  C_11 
REMARK    3  A    between atoms: N_2  and  C_12 
REMARK    4  A    between atoms: N_3  and  C_8 
REMARK    5  A    between atoms: N_3  and  C_13 
REMARK    6  A    between atoms: C_6  and  C_7 
REMARK    7  A    between atoms: C_6  and  C_8 
REMARK    8  A    between atoms: C_7  and  C_9 
ROOT
HETATM    1 Cl   UNK N   1      26.522  19.614   3.667  0.00  0.00    -0.084 Cl
HETATM    2  N   UNK N   1      27.857  18.763   8.530  0.00  0.00    -0.365 N 
ATOM      3  HN  UNK N   1      26.996  19.243   8.793  1.00  0.00     0.165 HD
HETATM    4  C   UNK N   1      30.197  17.461   7.820  0.00  0.00     0.042 A 
HETATM    5  C   UNK N   1      29.354  17.973   6.825  0.00  0.00     0.017 A 
HETATM    6  C   UNK N   1      29.846  17.604   9.165  0.00  0.00     0.047 A 
HETATM    7  C   UNK N   1      28.165  18.629   7.213  0.00  0.00     0.046 A 
HETATM    8  C   UNK N   1      29.651  17.817   5.465  0.00  0.00     0.018 A 
HETATM    9  C   UNK N   1      28.670  18.271   9.504  0.00  0.00     0.090 A 
HETATM   10  C   UNK N   1      27.297  19.127   6.237  0.00  0.00     0.054 A 
HETATM   11  C   UNK N   1      28.778  18.320   4.496  0.00  0.00     0.025 A 
HETATM   12  C   UNK N   1      27.605  18.975   4.883  0.00  0.00     0.036 A 
ENDROOT
BRANCH   4  13
HETATM   13  N   UNK N   1      31.337  16.712   7.475  0.00  0.00    -0.385 N 
HETATM   14  H   UNK N   1      31.280  15.748   7.283  0.00  0.00     0.160 HD
BRANCH  13  15
HETATM   15  C   UNK N   1      32.587  17.413   7.416  0.00  0.00     0.077 C 
HETATM   16  C   UNK N   1      33.243  17.403   6.046  0.00  0.00     0.032 C 
BRANCH  15  17
HETATM   17  C   UNK N   1      33.421  17.258   8.685  0.00  0.00     0.026 C 
BRANCH  17  18
HETATM   18  C   UNK N   1      33.872  15.841   8.981  0.00  0.00     0.032 C 
BRANCH  18  19
HETATM   19  C   UNK N   1      35.186  15.771   9.770  0.00  0.00     0.272 C 
BRANCH  19  20
HETATM   20  N   UNK N   1      35.626  14.385   9.982  0.00  0.00     0.087 N 
BRANCH  20  21
HETATM   21  C   UNK N   1      35.303  13.974  11.355  0.00  0.00     0.268 C 
HETATM   22  C   UNK N   1      35.829  14.984  12.356  0.00  0.00     0.037 C 
ENDBRANCH  20  21
BRANCH  20  23
HETATM   23  C   UNK N   1      37.063  14.345   9.669  0.00  0.00     0.268 C 
HETATM   24  C   UNK N   1      37.482  13.315   8.626  0.00  0.00     0.037 C 
ENDBRANCH  20  23
ENDBRANCH  19  20
ENDBRANCH  18  19
ENDBRANCH  17  18
ENDBRANCH  15  17
ENDBRANCH  13  15
ENDBRANCH   4  13
TORSDOF 8
ENDMDL
MODEL 8
REMARK VINA RESULT:      -5.2     15.955     17.848
REMARK  8 active torsions:
REMARK  status: ('A' for Active; 'I' for Inactive)
REMARK    1  A    between atoms: N_2  and  C_9 
REMARK    2  A    between atoms: N_2  and  C_11 
REMARK    3  A    between atoms: N_2  and  C_12 
REMARK    4  A    between atoms: N_3  and  C_8 
REMARK    5  A    between atoms: N_3  and  C_13 
REMARK    6  A    between atoms: C_6  and  C_7 
REMARK    7  A    between atoms: C_6  and  C_8 
REMARK    8  A    between atoms: C_7  and  C_9 
ROOT
HETATM    1 Cl   UNK N   1      25.534  20.711  -9.512  0.00  0.00    -0.084 Cl
HETATM    2  N   UNK N   1      25.270  24.046  -5.645  0.00  0.00    -0.365 N 
ATOM      3  HN  UNK N   1      24.258  24.033  -5.773  1.00  0.00     0.165 HD
HETATM    4  C   UNK N   1      28.017  24.088  -5.291  0.00  0.00     0.042 A 
HETATM    5  C   UNK N   1      27.456  23.296  -6.301  0.00  0.00     0.017 A 
HETATM    6  C   UNK N   1      27.185  24.845  -4.463  0.00  0.00     0.047 A 
HETATM    7  C   UNK N   1      26.052  23.289  -6.459  0.00  0.00     0.046 A 
HETATM    8  C   UNK N   1      28.252  22.494  -7.128  0.00  0.00     0.018 A 
HETATM    9  C   UNK N   1      25.806  24.821  -4.661  0.00  0.00     0.090 A 
HETATM   10  C   UNK N   1      25.468  22.489  -7.444  0.00  0.00     0.054 A 
HETATM   11  C   UNK N   1      27.659  21.699  -8.113  0.00  0.00     0.025 A 
HETATM   12  C   UNK N   1      26.270  21.698  -8.270  0.00  0.00     0.036 A 
ENDROOT
BRANCH   4  13
HETATM   13  N   UNK N   1      29.400  24.045  -5.034  0.00  0.00    -0.385 N 
HETATM   14  H   UNK N   1      30.054  23.925  -5.761  0.00  0.00     0.160 HD
BRANCH  13  15
HETATM   15  C   UNK N   1      29.816  24.183  -3.669  0.00  0.00     0.077 C 
HETATM   16  C   UNK N   1      30.801  25.315  -3.429  0.00  0.00     0.032 C 
BRANCH  15  17
HETATM   17  C   UNK N   1      29.972  22.845  -2.952  0.00  0.00     0.026 C 
BRANCH  17  18
HETATM   18  C   UNK N   1      31.406  22.412  -2.718  0.00  0.00     0.032 C 
BRANCH  18  19
HETATM   19  C   UNK N   1      31.855  21.269  -3.638  0.00  0.00     0.272 C 
BRANCH  19  20
HETATM   20  N   UNK N   1      32.582  21.764  -4.816  0.00  0.00     0.087 N 
BRANCH  20  21
HETATM   21  C   UNK N   1      31.750  21.584  -6.013  0.00  0.00     0.268 C 
HETATM   22  C   UNK N   1      30.869  20.358  -5.876  0.00  0.00     0.037 C 
ENDBRANCH  20  21
BRANCH  20  23
HETATM   23  C   UNK N   1      33.860  21.037  -4.861  0.00  0.00     0.268 C 
HETATM   24  C   UNK N   1      34.066  19.998  -3.765  0.00  0.00     0.037 C 
ENDBRANCH  20  23
ENDBRANCH  19  20
ENDBRANCH  18  19
ENDBRANCH  17  18
ENDBRANCH  15  17
ENDBRANCH  13  15
ENDBRANCH   4  13
TORSDOF 8
ENDMDL
MODEL 9
REMARK VINA RESULT:      -5.1     16.659     18.146
REMARK  8 active torsions:
REMARK  status: ('A' for Active; 'I' for Inactive)
REMARK    1  A    between atoms: N_2  and  C_9 
REMARK    2  A    between atoms: N_2  and  C_11 
REMARK    3  A    between atoms: N_2  and  C_12 
REMARK    4  A    between atoms: N_3  and  C_8 
REMARK    5  A    between atoms: N_3  and  C_13 
REMARK    6  A    between atoms: C_6  and  C_7 
REMARK    7  A    between atoms: C_6  and  C_8 
REMARK    8  A    between atoms: C_7  and  C_9 
ROOT
HETATM    1 Cl   UNK N   1      24.276  27.313  -5.572  0.00  0.00    -0.084 Cl
HETATM    2  N   UNK N   1      27.184  23.528  -7.407  0.00  0.00    -0.365 N 
ATOM      3  HN  UNK N   1      26.651  23.611  -8.273  1.00  0.00     0.165 HD
HETATM    4  C   UNK N   1      28.632  23.295  -5.058  0.00  0.00     0.042 A 
HETATM    5  C   UNK N   1      27.601  24.238  -5.150  0.00  0.00     0.017 A 
HETATM    6  C   UNK N   1      28.929  22.483  -6.155  0.00  0.00     0.047 A 
HETATM    7  C   UNK N   1      26.880  24.340  -6.361  0.00  0.00     0.046 A 
HETATM    8  C   UNK N   1      27.297  25.096  -4.086  0.00  0.00     0.018 A 
HETATM    9  C   UNK N   1      28.183  22.606  -7.326  0.00  0.00     0.090 A 
HETATM   10  C   UNK N   1      25.863  25.290  -6.485  0.00  0.00     0.054 A 
HETATM   11  C   UNK N   1      26.277  26.042  -4.218  0.00  0.00     0.025 A 
HETATM   12  C   UNK N   1      25.561  26.137  -5.415  0.00  0.00     0.036 A 
ENDROOT
BRANCH   4  13
HETATM   13  N   UNK N   1      29.441  23.231  -3.907  0.00  0.00    -0.385 N 
HETATM   14  H   UNK N   1      29.119  22.817  -3.074  0.00  0.00     0.160 HD
BRANCH  13  15
HETATM   15  C   UNK N   1      30.756  23.796  -4.002  0.00  0.00     0.077 C 
HETATM   16  C   UNK N   1      31.880  22.794  -3.801  0.00  0.00     0.032 C 
BRANCH  15  17
HETATM   17  C   UNK N   1      30.848  25.203  -3.416  0.00  0.00     0.026 C 
BRANCH  17  18
HETATM   18  C   UNK N   1      30.662  26.324  -4.419  0.00  0.00     0.032 C 
BRANCH  18  19
HETATM   19  C   UNK N   1      30.081  27.603  -3.802  0.00  0.00     0.272 C 
BRANCH  19  20
HETATM   20  N   UNK N   1      29.658  28.565  -4.830  0.00  0.00     0.087 N 
BRANCH  20  21
HETATM   21  C   UNK N   1      28.668  29.487  -4.257  0.00  0.00     0.268 C 
HETATM   22  C   UNK N   1      28.149  28.963  -2.932  0.00  0.00     0.037 C 
ENDBRANCH  20  21
BRANCH  20  23
HETATM   23  C   UNK N   1      29.153  27.777  -5.965  0.00  0.00     0.268 C 
HETATM   24  C   UNK N   1      28.028  28.421  -6.766  0.00  0.00     0.037 C 
ENDBRANCH  20  23
ENDBRANCH  19  20
ENDBRANCH  18  19
ENDBRANCH  17  18
ENDBRANCH  15  17
ENDBRANCH  13  15
ENDBRANCH   4  13
TORSDOF 8
ENDMDL
