MODEL 1
REMARK VINA RESULT:      -6.1      0.000      0.000
REMARK  3 active torsions:
REMARK  status: ('A' for Active; 'I' for Inactive)
REMARK    1  A    between atoms: C_6  and  C_5 
REMARK    2  A    between atoms: C_12  and  C_5 
REMARK    3  A    between atoms: C_13  and  C_6 
ROOT
HETATM    1  C   UNK N   1      28.492  29.039  -7.153  0.00  0.00     0.001 A 
HETATM    2  C   UNK N   1      28.638  30.131  -6.267  0.00  0.00     0.002 A 
HETATM    3  C   UNK N   1      27.541  28.038  -6.892  0.00  0.00     0.014 A 
HETATM    4  C   UNK N   1      27.835  30.226  -5.112  0.00  0.00     0.030 A 
HETATM    5  C   UNK N   1      25.351  27.960  -4.054  0.00  0.00     0.096 A 
HETATM    6  C   UNK N   1      25.785  27.360  -5.235  0.00  0.00    -0.030 A 
HETATM    7  C   UNK N   1      26.766  28.165  -5.741  0.00  0.00    -0.002 A 
HETATM    8  C   UNK N   1      26.907  29.215  -4.885  0.00  0.00     0.042 A 
HETATM    9  N   UNK N   1      26.051  29.108  -3.848  0.00  0.00    -0.365 N 
HETATM   10  H   UNK N   1      25.952  29.734  -3.094  0.00  0.00     0.165 HD
ENDROOT
BRANCH   6  11
HETATM   11  C   UNK N   1      25.311  26.106  -5.887  0.00  0.00     0.041 C 
BRANCH  11  12
HETATM   12  C   UNK N   1      25.546  24.823  -5.105  0.00  0.00     0.009 C 
BRANCH  12  13
HETATM   13  C   UNK N   1      27.051  24.603  -4.973  0.00  0.00    -0.011 C 
HETATM   14  C   UNK N   1      27.534  23.517  -5.928  0.00  0.00     0.024 C 
HETATM   15  C   UNK N   1      29.044  23.338  -5.754  0.00  0.00     0.114 C 
HETATM   16  N   UNK N   1      29.363  22.970  -4.373  0.00  0.00    -0.421 N 
HETATM   17  C   UNK N   1      28.963  24.058  -3.484  0.00  0.00     0.114 C 
HETATM   18  H   UNK N   1      29.795  22.093  -4.079  0.00  0.00     0.153 HD
HETATM   19  C   UNK N   1      27.452  24.237  -3.542  0.00  0.00     0.024 C 
ENDBRANCH  12  13
ENDBRANCH  11  12
ENDBRANCH   6  11
TORSDOF 3
ENDMDL
MODEL 2
REMARK VINA RESULT:      -6.0     26.024     28.268
REMARK  3 active torsions:
REMARK  status: ('A' for Active; 'I' for Inactive)
REMARK    1  A    between atoms: C_6  and  C_5 
REMARK    2  A    between atoms: C_12  and  C_5 
REMARK    3  A    between atoms: C_13  and  C_6 
ROOT
HETATM    1  C   UNK N   1      35.681  14.825  18.028  0.00  0.00     0.001 A 
HETATM    2  C   UNK N   1      36.673  15.602  17.387  0.00  0.00     0.002 A 
HETATM    3  C   UNK N   1      35.234  13.628  17.444  0.00  0.00     0.014 A 
HETATM    4  C   UNK N   1      37.221  15.188  16.156  0.00  0.00     0.030 A 
HETATM    5  C   UNK N   1      36.399  12.288  14.329  0.00  0.00     0.096 A 
HETATM    6  C   UNK N   1      35.561  12.162  15.436  0.00  0.00    -0.030 A 
HETATM    7  C   UNK N   1      35.797  13.251  16.227  0.00  0.00    -0.002 A 
HETATM    8  C   UNK N   1      36.751  13.999  15.607  0.00  0.00     0.042 A 
HETATM    9  N   UNK N   1      37.132  13.428  14.446  0.00  0.00    -0.365 N 
HETATM   10  H   UNK N   1      37.804  13.767  13.811  0.00  0.00     0.165 HD
ENDROOT
BRANCH   6  11
HETATM   11  C   UNK N   1      34.591  11.080  15.768  0.00  0.00     0.041 C 
BRANCH  11  12
HETATM   12  C   UNK N   1      35.158   9.893  16.530  0.00  0.00     0.009 C 
BRANCH  12  13
HETATM   13  C   UNK N   1      34.916  10.113  18.021  0.00  0.00    -0.011 C 
HETATM   14  C   UNK N   1      36.231  10.292  18.771  0.00  0.00     0.024 C 
HETATM   15  C   UNK N   1      35.930  10.508  20.257  0.00  0.00     0.114 C 
HETATM   16  N   UNK N   1      35.192   9.369  20.804  0.00  0.00    -0.421 N 
HETATM   17  C   UNK N   1      33.902   9.264  20.124  0.00  0.00     0.114 C 
HETATM   18  H   UNK N   1      35.525   8.747  21.541  0.00  0.00     0.153 HD
HETATM   19  C   UNK N   1      34.125   8.963  18.648  0.00  0.00     0.024 C 
ENDBRANCH  12  13
ENDBRANCH  11  12
ENDBRANCH   6  11
TORSDOF 3
ENDMDL
MODEL 3
REMARK VINA RESULT:      -6.0     17.131     20.044
REMARK  3 active torsions:
REMARK  status: ('A' for Active; 'I' for Inactive)
REMARK    1  A    between atoms: C_6  and  C_5 
REMARK    2  A    between atoms: C_12  and  C_5 
REMARK    3  A    between atoms: C_13  and  C_6 
ROOT
HETATM    1  C   UNK N   1      24.718  13.008   9.855  0.00  0.00     0.001 A 
HETATM    2  C   UNK N   1      24.743  12.085  10.925  0.00  0.00     0.002 A 
HETATM    3  C   UNK N   1      23.498  13.554   9.420  0.00  0.00     0.014 A 
HETATM    4  C   UNK N   1      23.547  11.701  11.566  0.00  0.00     0.030 A 
HETATM    5  C   UNK N   1      20.282  12.793  10.809  0.00  0.00     0.096 A 
HETATM    6  C   UNK N   1      21.033  13.502   9.873  0.00  0.00    -0.030 A 
HETATM    7  C   UNK N   1      22.337  13.151  10.076  0.00  0.00    -0.002 A 
HETATM    8  C   UNK N   1      22.359  12.260  11.106  0.00  0.00     0.042 A 
HETATM    9  N   UNK N   1      21.114  12.029  11.567  0.00  0.00    -0.365 N 
HETATM   10  H   UNK N   1      20.857  11.428  12.305  0.00  0.00     0.165 HD
ENDROOT
BRANCH   6  11
HETATM   11  C   UNK N   1      20.578  14.477   8.841  0.00  0.00     0.041 C 
BRANCH  11  12
HETATM   12  C   UNK N   1      20.653  13.999   7.399  0.00  0.00     0.009 C 
BRANCH  12  13
HETATM   13  C   UNK N   1      21.134  15.157   6.528  0.00  0.00    -0.011 C 
HETATM   14  C   UNK N   1      22.561  14.927   6.044  0.00  0.00     0.024 C 
HETATM   15  C   UNK N   1      22.990  16.116   5.180  0.00  0.00     0.114 C 
HETATM   16  N   UNK N   1      22.914  17.362   5.943  0.00  0.00    -0.421 N 
HETATM   17  C   UNK N   1      21.525  17.603   6.329  0.00  0.00     0.114 C 
HETATM   18  H   UNK N   1      23.705  17.966   6.170  0.00  0.00     0.153 HD
HETATM   19  C   UNK N   1      21.056  16.497   7.266  0.00  0.00     0.024 C 
ENDBRANCH  12  13
ENDBRANCH  11  12
ENDBRANCH   6  11
TORSDOF 3
ENDMDL
MODEL 4
REMARK VINA RESULT:      -5.9      2.018      2.564
REMARK  3 active torsions:
REMARK  status: ('A' for Active; 'I' for Inactive)
REMARK    1  A    between atoms: C_6  and  C_5 
REMARK    2  A    between atoms: C_12  and  C_5 
REMARK    3  A    between atoms: C_13  and  C_6 
ROOT
HETATM    1  C   UNK N   1      28.445  29.107  -7.084  0.00  0.00     0.001 A 
HETATM    2  C   UNK N   1      28.643  30.173  -6.177  0.00  0.00     0.002 A 
HETATM    3  C   UNK N   1      27.475  28.125  -6.823  0.00  0.00     0.014 A 
HETATM    4  C   UNK N   1      27.870  30.262  -5.001  0.00  0.00     0.030 A 
HETATM    5  C   UNK N   1      25.352  28.039  -3.934  0.00  0.00     0.096 A 
HETATM    6  C   UNK N   1      25.741  27.456  -5.139  0.00  0.00    -0.030 A 
HETATM    7  C   UNK N   1      26.731  28.246  -5.650  0.00  0.00    -0.002 A 
HETATM    8  C   UNK N   1      26.921  29.271  -4.774  0.00  0.00     0.042 A 
HETATM    9  N   UNK N   1      26.088  29.163  -3.720  0.00  0.00    -0.365 N 
HETATM   10  H   UNK N   1      26.024  29.773  -2.950  0.00  0.00     0.165 HD
ENDROOT
BRANCH   6  11
HETATM   11  C   UNK N   1      25.218  26.230  -5.807  0.00  0.00     0.041 C 
BRANCH  11  12
HETATM   12  C   UNK N   1      25.814  24.913  -5.336  0.00  0.00     0.009 C 
BRANCH  12  13
HETATM   13  C   UNK N   1      26.226  24.100  -6.561  0.00  0.00    -0.011 C 
HETATM   14  C   UNK N   1      25.793  24.789  -7.850  0.00  0.00     0.024 C 
HETATM   15  C   UNK N   1      26.229  23.933  -9.041  0.00  0.00     0.114 C 
HETATM   16  N   UNK N   1      25.632  22.598  -8.962  0.00  0.00    -0.421 N 
HETATM   17  C   UNK N   1      26.122  21.927  -7.760  0.00  0.00     0.114 C 
HETATM   18  H   UNK N   1      24.979  22.201  -9.638  0.00  0.00     0.153 HD
HETATM   19  C   UNK N   1      25.651  22.681  -6.524  0.00  0.00     0.024 C 
ENDBRANCH  12  13
ENDBRANCH  11  12
ENDBRANCH   6  11
TORSDOF 3
ENDMDL
MODEL 5
REMARK VINA RESULT:      -5.8     12.346     15.316
REMARK  3 active torsions:
REMARK  status: ('A' for Active; 'I' for Inactive)
REMARK    1  A    between atoms: C_6  and  C_5 
REMARK    2  A    between atoms: C_12  and  C_5 
REMARK    3  A    between atoms: C_13  and  C_6 
ROOT
HETATM    1  C   UNK N   1      26.965  20.735   6.678  0.00  0.00     0.001 A 
HETATM    2  C   UNK N   1      26.568  20.936   5.336  0.00  0.00     0.002 A 
HETATM    3  C   UNK N   1      27.848  19.693   7.007  0.00  0.00     0.014 A 
HETATM    4  C   UNK N   1      27.051  20.093   4.315  0.00  0.00     0.030 A 
HETATM    5  C   UNK N   1      29.254  17.365   4.670  0.00  0.00     0.096 A 
HETATM    6  C   UNK N   1      29.149  17.807   5.988  0.00  0.00    -0.030 A 
HETATM    7  C   UNK N   1      28.304  18.880   5.971  0.00  0.00    -0.002 A 
HETATM    8  C   UNK N   1      27.921  19.070   4.678  0.00  0.00     0.042 A 
HETATM    9  N   UNK N   1      28.491  18.155   3.868  0.00  0.00    -0.365 N 
HETATM   10  H   UNK N   1      28.378  18.074   2.893  0.00  0.00     0.165 HD
ENDROOT
BRANCH   6  11
HETATM   11  C   UNK N   1      29.808  17.279   7.217  0.00  0.00     0.041 C 
BRANCH  11  12
HETATM   12  C   UNK N   1      30.681  16.049   7.024  0.00  0.00     0.009 C 
BRANCH  12  13
HETATM   13  C   UNK N   1      32.097  16.381   7.489  0.00  0.00    -0.011 C 
HETATM   14  C   UNK N   1      32.524  15.480   8.641  0.00  0.00     0.024 C 
HETATM   15  C   UNK N   1      33.946  15.856   9.066  0.00  0.00     0.114 C 
HETATM   16  N   UNK N   1      34.006  17.260   9.478  0.00  0.00    -0.421 N 
HETATM   17  C   UNK N   1      33.670  18.108   8.336  0.00  0.00     0.114 C 
HETATM   18  H   UNK N   1      34.244  17.593  10.413  0.00  0.00     0.153 HD
HETATM   19  C   UNK N   1      32.231  17.847   7.911  0.00  0.00     0.024 C 
ENDBRANCH  12  13
ENDBRANCH  11  12
ENDBRANCH   6  11
TORSDOF 3
ENDMDL
MODEL 6
REMARK VINA RESULT:      -5.7     22.966     26.448
REMARK  3 active torsions:
REMARK  status: ('A' for Active; 'I' for Inactive)
REMARK    1  A    between atoms: C_6  and  C_5 
REMARK    2  A    between atoms: C_12  and  C_5 
REMARK    3  A    between atoms: C_13  and  C_6 
ROOT
HETATM    1  C   UNK N   1      35.234  13.749  18.257  0.00  0.00     0.001 A 
HETATM    2  C   UNK N   1      35.302  12.807  19.309  0.00  0.00     0.002 A 
HETATM    3  C   UNK N   1      35.138  13.314  16.924  0.00  0.00     0.014 A 
HETATM    4  C   UNK N   1      35.277  11.425  19.034  0.00  0.00     0.030 A 
HETATM    5  C   UNK N   1      35.062   9.889  15.870  0.00  0.00     0.096 A 
HETATM    6  C   UNK N   1      35.036  11.238  15.522  0.00  0.00    -0.030 A 
HETATM    7  C   UNK N   1      35.117  11.941  16.690  0.00  0.00    -0.002 A 
HETATM    8  C   UNK N   1      35.185  11.032  17.702  0.00  0.00     0.042 A 
HETATM    9  N   UNK N   1      35.152   9.773  17.221  0.00  0.00    -0.365 N 
HETATM   10  H   UNK N   1      35.186   8.938  17.743  0.00  0.00     0.165 HD
ENDROOT
BRANCH   6  11
HETATM   11  C   UNK N   1      34.928  11.864  14.173  0.00  0.00     0.041 C 
BRANCH  11  12
HETATM   12  C   UNK N   1      36.209  11.904  13.355  0.00  0.00     0.009 C 
BRANCH  12  13
HETATM   13  C   UNK N   1      36.079  13.001  12.302  0.00  0.00    -0.011 C 
HETATM   14  C   UNK N   1      37.305  13.043  11.397  0.00  0.00     0.024 C 
HETATM   15  C   UNK N   1      37.121  14.158  10.364  0.00  0.00     0.114 C 
HETATM   16  N   UNK N   1      36.943  15.451  11.027  0.00  0.00    -0.421 N 
HETATM   17  C   UNK N   1      35.720  15.413  11.827  0.00  0.00     0.114 C 
HETATM   18  H   UNK N   1      37.572  16.250  10.945  0.00  0.00     0.153 HD
HETATM   19  C   UNK N   1      35.865  14.378  12.935  0.00  0.00     0.024 C 
ENDBRANCH  12  13
ENDBRANCH  11  12
ENDBRANCH   6  11
TORSDOF 3
ENDMDL
MODEL 7
REMARK VINA RESULT:      -5.7     24.703     27.748
REMARK  3 active torsions:
REMARK  status: ('A' for Active; 'I' for Inactive)
REMARK    1  A    between atoms: C_6  and  C_5 
REMARK    2  A    between atoms: C_12  and  C_5 
REMARK    3  A    between atoms: C_13  and  C_6 
ROOT
HETATM    1  C   UNK N   1      35.279   9.458  17.908  0.00  0.00     0.001 A 
HETATM    2  C   UNK N   1      35.288   9.586  19.316  0.00  0.00     0.002 A 
HETATM    3  C   UNK N   1      35.266  10.602  17.093  0.00  0.00     0.014 A 
HETATM    4  C   UNK N   1      35.281  10.862  19.917  0.00  0.00     0.030 A 
HETATM    5  C   UNK N   1      35.236  13.984  18.283  0.00  0.00     0.096 A 
HETATM    6  C   UNK N   1      35.243  13.108  17.200  0.00  0.00    -0.030 A 
HETATM    7  C   UNK N   1      35.260  11.846  17.722  0.00  0.00    -0.002 A 
HETATM    8  C   UNK N   1      35.266  11.972  19.078  0.00  0.00     0.042 A 
HETATM    9  N   UNK N   1      35.252  13.270  19.440  0.00  0.00    -0.365 N 
HETATM   10  H   UNK N   1      35.253  13.630  20.358  0.00  0.00     0.165 HD
ENDROOT
BRANCH   6  11
HETATM   11  C   UNK N   1      35.249  13.410  15.740  0.00  0.00     0.041 C 
BRANCH  11  12
HETATM   12  C   UNK N   1      36.618  13.626  15.113  0.00  0.00     0.009 C 
BRANCH  12  13
HETATM   13  C   UNK N   1      36.731  12.737  13.878  0.00  0.00    -0.011 C 
HETATM   14  C   UNK N   1      35.358  12.425  13.295  0.00  0.00     0.024 C 
HETATM   15  C   UNK N   1      35.532  11.533  12.063  0.00  0.00     0.114 C 
HETATM   16  N   UNK N   1      36.220  10.291  12.419  0.00  0.00    -0.421 N 
HETATM   17  C   UNK N   1      37.562  10.609  12.901  0.00  0.00     0.114 C 
HETATM   18  H   UNK N   1      35.825   9.353  12.344  0.00  0.00     0.153 HD
HETATM   19  C   UNK N   1      37.466  11.428  14.181  0.00  0.00     0.024 C 
ENDBRANCH  12  13
ENDBRANCH  11  12
ENDBRANCH   6  11
TORSDOF 3
ENDMDL
MODEL 8
REMARK VINA RESULT:      -5.7     12.756     15.474
REMARK  3 active torsions:
REMARK  status: ('A' for Active; 'I' for Inactive)
REMARK    1  A    between atoms: C_6  and  C_5 
REMARK    2  A    between atoms: C_12  and  C_5 
REMARK    3  A    between atoms: C_13  and  C_6 
ROOT
HETATM    1  C   UNK N   1      33.781  17.285   6.084  0.00  0.00     0.001 A 
HETATM    2  C   UNK N   1      34.283  17.623   7.361  0.00  0.00     0.002 A 
HETATM    3  C   UNK N   1      32.398  17.141   5.882  0.00  0.00     0.014 A 
HETATM    4  C   UNK N   1      33.404  17.817   8.446  0.00  0.00     0.030 A 
HETATM    5  C   UNK N   1      29.890  17.550   8.412  0.00  0.00     0.096 A 
HETATM    6  C   UNK N   1      30.200  17.265   7.083  0.00  0.00    -0.030 A 
HETATM    7  C   UNK N   1      31.560  17.340   6.978  0.00  0.00    -0.002 A 
HETATM    8  C   UNK N   1      32.041  17.664   8.210  0.00  0.00     0.042 A 
HETATM    9  N   UNK N   1      31.037  17.797   9.099  0.00  0.00    -0.365 N 
HETATM   10  H   UNK N   1      31.117  18.026  10.053  0.00  0.00     0.165 HD
ENDROOT
BRANCH   6  11
HETATM   11  C   UNK N   1      29.287  16.951   5.946  0.00  0.00     0.041 C 
BRANCH  11  12
HETATM   12  C   UNK N   1      29.339  17.912   4.770  0.00  0.00     0.009 C 
BRANCH  12  13
HETATM   13  C   UNK N   1      27.959  18.544   4.598  0.00  0.00    -0.011 C 
HETATM   14  C   UNK N   1      27.762  19.706   5.564  0.00  0.00     0.024 C 
HETATM   15  C   UNK N   1      26.367  20.299   5.350  0.00  0.00     0.114 C 
HETATM   16  N   UNK N   1      25.336  19.283   5.570  0.00  0.00    -0.421 N 
HETATM   17  C   UNK N   1      25.497  18.218   4.582  0.00  0.00     0.114 C 
HETATM   18  H   UNK N   1      24.620  19.314   6.296  0.00  0.00     0.153 HD
HETATM   19  C   UNK N   1      26.835  17.523   4.792  0.00  0.00     0.024 C 
ENDBRANCH  12  13
ENDBRANCH  11  12
ENDBRANCH   6  11
TORSDOF 3
ENDMDL
MODEL 9
REMARK VINA RESULT:      -5.7      1.610      2.530
REMARK  3 active torsions:
REMARK  status: ('A' for Active; 'I' for Inactive)
REMARK    1  A    between atoms: C_6  and  C_5 
REMARK    2  A    between atoms: C_12  and  C_5 
REMARK    3  A    between atoms: C_13  and  C_6 
ROOT
HETATM    1  C   UNK N   1      28.783  28.987  -7.263  0.00  0.00     0.001 A 
HETATM    2  C   UNK N   1      29.294  30.284  -7.030  0.00  0.00     0.002 A 
HETATM    3  C   UNK N   1      27.787  28.458  -6.425  0.00  0.00     0.014 A 
HETATM    4  C   UNK N   1      28.814  31.059  -5.955  0.00  0.00     0.030 A 
HETATM    5  C   UNK N   1      26.353  30.144  -3.604  0.00  0.00     0.096 A 
HETATM    6  C   UNK N   1      26.400  29.007  -4.410  0.00  0.00    -0.030 A 
HETATM    7  C   UNK N   1      27.337  29.253  -5.372  0.00  0.00    -0.002 A 
HETATM    8  C   UNK N   1      27.831  30.502  -5.145  0.00  0.00     0.042 A 
HETATM    9  N   UNK N   1      27.242  31.062  -4.069  0.00  0.00    -0.365 N 
HETATM   10  H   UNK N   1      27.419  31.957  -3.696  0.00  0.00     0.165 HD
ENDROOT
BRANCH   6  11
HETATM   11  C   UNK N   1      25.606  27.749  -4.314  0.00  0.00     0.041 C 
BRANCH  11  12
HETATM   12  C   UNK N   1      24.895  27.315  -5.586  0.00  0.00     0.009 C 
BRANCH  12  13
HETATM   13  C   UNK N   1      25.191  25.837  -5.828  0.00  0.00    -0.011 C 
HETATM   14  C   UNK N   1      26.234  25.317  -4.846  0.00  0.00     0.024 C 
HETATM   15  C   UNK N   1      26.492  23.835  -5.134  0.00  0.00     0.114 C 
HETATM   16  N   UNK N   1      26.961  23.652  -6.509  0.00  0.00    -0.421 N 
HETATM   17  C   UNK N   1      25.914  24.084  -7.432  0.00  0.00     0.114 C 
HETATM   18  H   UNK N   1      27.873  23.282  -6.779  0.00  0.00     0.153 HD
HETATM   19  C   UNK N   1      25.664  25.577  -7.260  0.00  0.00     0.024 C 
ENDBRANCH  12  13
ENDBRANCH  11  12
ENDBRANCH   6  11
TORSDOF 3
ENDMDL
