MODEL 1
REMARK VINA RESULT:      -4.3      0.000      0.000
REMARK  4 active torsions:
REMARK  status: ('A' for Active; 'I' for Inactive)
REMARK    1  A    between atoms: C_5  and  C_3 
REMARK    2  A    between atoms: C_6  and  C_4 
REMARK    3  A    between atoms: O_9  and  C_5 
REMARK    4  A    between atoms: O_10  and  C_6 
ROOT
HETATM    1  C   UNK N   1      34.574  17.006   9.111  0.00  0.00     0.088 C 
HETATM    2  C   UNK N   1      35.244  16.891  10.267  0.00  0.00     0.088 C 
ENDROOT
BRANCH   1   3
HETATM    3  C   UNK N   1      34.766  18.161   8.216  0.00  0.00     0.282 C 
HETATM    4  O   UNK N   1      35.277  19.193   8.631  0.00  0.00    -0.260 OA
BRANCH   3   5
HETATM    5  O   UNK N   1      34.367  18.057   6.926  0.00  0.00    -0.323 OA
HETATM    6  C   UNK N   1      33.167  17.489   6.571  0.00  0.00     0.213 C 
ENDBRANCH   3   5
ENDBRANCH   1   3
BRANCH   2   7
HETATM    7  C   UNK N   1      35.052  15.737  11.161  0.00  0.00     0.282 C 
HETATM    8  O   UNK N   1      33.988  15.131  11.178  0.00  0.00    -0.260 OA
BRANCH   7   9
HETATM    9  O   UNK N   1      36.074  15.360  11.965  0.00  0.00    -0.323 OA
HETATM   10  C   UNK N   1      35.931  14.394  12.932  0.00  0.00     0.213 C 
ENDBRANCH   7   9
ENDBRANCH   2   7
TORSDOF 4
ENDMDL
MODEL 2
REMARK VINA RESULT:      -4.2      0.454      5.128
REMARK  4 active torsions:
REMARK  status: ('A' for Active; 'I' for Inactive)
REMARK    1  A    between atoms: C_5  and  C_3 
REMARK    2  A    between atoms: C_6  and  C_4 
REMARK    3  A    between atoms: O_9  and  C_5 
REMARK    4  A    between atoms: O_10  and  C_6 
ROOT
HETATM    1  C   UNK N   1      35.236  16.662  10.122  0.00  0.00     0.088 C 
HETATM    2  C   UNK N   1      34.466  16.942   9.060  0.00  0.00     0.088 C 
ENDROOT
BRANCH   1   3
HETATM    3  C   UNK N   1      34.972  15.497  10.983  0.00  0.00     0.282 C 
HETATM    4  O   UNK N   1      33.825  15.122  11.191  0.00  0.00    -0.260 OA
BRANCH   3   5
HETATM    5  O   UNK N   1      36.022  14.849  11.541  0.00  0.00    -0.323 OA
HETATM    6  C   UNK N   1      36.097  14.595  12.889  0.00  0.00     0.213 C 
ENDBRANCH   3   5
ENDBRANCH   1   3
BRANCH   2   7
HETATM    7  C   UNK N   1      34.730  18.107   8.198  0.00  0.00     0.282 C 
HETATM    8  O   UNK N   1      35.259  19.113   8.654  0.00  0.00    -0.260 OA
BRANCH   7   9
HETATM    9  O   UNK N   1      34.376  18.044   6.892  0.00  0.00    -0.323 OA
HETATM   10  C   UNK N   1      34.075  16.857   6.269  0.00  0.00     0.213 C 
ENDBRANCH   7   9
ENDBRANCH   2   7
TORSDOF 4
ENDMDL
MODEL 3
REMARK VINA RESULT:      -4.1      2.877      4.098
REMARK  4 active torsions:
REMARK  status: ('A' for Active; 'I' for Inactive)
REMARK    1  A    between atoms: C_5  and  C_3 
REMARK    2  A    between atoms: C_6  and  C_4 
REMARK    3  A    between atoms: O_9  and  C_5 
REMARK    4  A    between atoms: O_10  and  C_6 
ROOT
HETATM    1  C   UNK N   1      32.177  17.908   8.299  0.00  0.00     0.088 C 
HETATM    2  C   UNK N   1      33.326  17.275   8.575  0.00  0.00     0.088 C 
ENDROOT
BRANCH   1   3
HETATM    3  C   UNK N   1      30.899  17.183   8.193  0.00  0.00     0.282 C 
HETATM    4  O   UNK N   1      30.681  16.438   7.246  0.00  0.00    -0.260 OA
BRANCH   3   5
HETATM    5  O   UNK N   1      29.971  17.355   9.164  0.00  0.00    -0.323 OA
HETATM    6  C   UNK N   1      29.687  18.589   9.698  0.00  0.00     0.213 C 
ENDBRANCH   3   5
ENDBRANCH   1   3
BRANCH   2   7
HETATM    7  C   UNK N   1      34.604  18.001   8.681  0.00  0.00     0.282 C 
HETATM    8  O   UNK N   1      34.949  18.787   7.808  0.00  0.00    -0.260 OA
BRANCH   7   9
HETATM    9  O   UNK N   1      35.389  17.782   9.762  0.00  0.00    -0.323 OA
HETATM   10  C   UNK N   1      35.290  16.642  10.523  0.00  0.00     0.213 C 
ENDBRANCH   7   9
ENDBRANCH   2   7
TORSDOF 4
ENDMDL
MODEL 4
REMARK VINA RESULT:      -4.0      2.751      4.693
REMARK  4 active torsions:
REMARK  status: ('A' for Active; 'I' for Inactive)
REMARK    1  A    between atoms: C_5  and  C_3 
REMARK    2  A    between atoms: C_6  and  C_4 
REMARK    3  A    between atoms: O_9  and  C_5 
REMARK    4  A    between atoms: O_10  and  C_6 
ROOT
HETATM    1  C   UNK N   1      33.498  17.346   8.459  0.00  0.00     0.088 C 
HETATM    2  C   UNK N   1      32.288  17.924   8.440  0.00  0.00     0.088 C 
ENDROOT
BRANCH   1   3
HETATM    3  C   UNK N   1      34.705  18.089   8.858  0.00  0.00     0.282 C 
HETATM    4  O   UNK N   1      35.051  19.091   8.245  0.00  0.00    -0.260 OA
BRANCH   3   5
HETATM    5  O   UNK N   1      35.425  17.643   9.915  0.00  0.00    -0.323 OA
HETATM    6  C   UNK N   1      35.190  16.423  10.501  0.00  0.00     0.213 C 
ENDBRANCH   3   5
ENDBRANCH   1   3
BRANCH   2   7
HETATM    7  C   UNK N   1      31.081  17.180   8.041  0.00  0.00     0.282 C 
HETATM    8  O   UNK N   1      31.148  16.277   7.218  0.00  0.00    -0.260 OA
BRANCH   7   9
HETATM    9  O   UNK N   1      29.895  17.515   8.604  0.00  0.00    -0.323 OA
HETATM   10  C   UNK N   1      29.771  18.555   9.493  0.00  0.00     0.213 C 
ENDBRANCH   7   9
ENDBRANCH   2   7
TORSDOF 4
ENDMDL
MODEL 5
REMARK VINA RESULT:      -4.0     13.839     14.780
REMARK  4 active torsions:
REMARK  status: ('A' for Active; 'I' for Inactive)
REMARK    1  A    between atoms: C_5  and  C_3 
REMARK    2  A    between atoms: C_6  and  C_4 
REMARK    3  A    between atoms: O_9  and  C_5 
REMARK    4  A    between atoms: O_10  and  C_6 
ROOT
HETATM    1  C   UNK N   1      20.496  15.554   8.678  0.00  0.00     0.088 C 
HETATM    2  C   UNK N   1      20.336  14.523   9.522  0.00  0.00     0.088 C 
ENDROOT
BRANCH   1   3
HETATM    3  C   UNK N   1      19.601  16.724   8.708  0.00  0.00     0.282 C 
HETATM    4  O   UNK N   1      20.043  17.841   8.940  0.00  0.00    -0.260 OA
BRANCH   3   5
HETATM    5  O   UNK N   1      18.280  16.539   8.473  0.00  0.00    -0.323 OA
HETATM    6  C   UNK N   1      17.308  17.215   9.170  0.00  0.00     0.213 C 
ENDBRANCH   3   5
ENDBRANCH   1   3
BRANCH   2   7
HETATM    7  C   UNK N   1      21.230  13.353   9.492  0.00  0.00     0.282 C 
HETATM    8  O   UNK N   1      21.094  12.485   8.641  0.00  0.00    -0.260 OA
BRANCH   7   9
HETATM    9  O   UNK N   1      22.207  13.258  10.425  0.00  0.00    -0.323 OA
HETATM   10  C   UNK N   1      22.501  12.077  11.064  0.00  0.00     0.213 C 
ENDBRANCH   7   9
ENDBRANCH   2   7
TORSDOF 4
ENDMDL
MODEL 6
REMARK VINA RESULT:      -4.0     12.924     14.402
REMARK  4 active torsions:
REMARK  status: ('A' for Active; 'I' for Inactive)
REMARK    1  A    between atoms: C_5  and  C_3 
REMARK    2  A    between atoms: C_6  and  C_4 
REMARK    3  A    between atoms: O_9  and  C_5 
REMARK    4  A    between atoms: O_10  and  C_6 
ROOT
HETATM    1  C   UNK N   1      21.682  12.638  10.251  0.00  0.00     0.088 C 
HETATM    2  C   UNK N   1      21.701  13.837   9.650  0.00  0.00     0.088 C 
ENDROOT
BRANCH   1   3
HETATM    3  C   UNK N   1      22.905  11.832  10.409  0.00  0.00     0.282 C 
HETATM    4  O   UNK N   1      23.268  11.069   9.523  0.00  0.00    -0.260 OA
BRANCH   3   5
HETATM    5  O   UNK N   1      23.619  11.951  11.553  0.00  0.00    -0.323 OA
HETATM    6  C   UNK N   1      23.033  11.894  12.795  0.00  0.00     0.213 C 
ENDBRANCH   3   5
ENDBRANCH   1   3
BRANCH   2   7
HETATM    7  C   UNK N   1      20.478  14.643   9.492  0.00  0.00     0.282 C 
HETATM    8  O   UNK N   1      19.382  14.176   9.776  0.00  0.00    -0.260 OA
BRANCH   7   9
HETATM    9  O   UNK N   1      20.590  15.910   9.027  0.00  0.00    -0.323 OA
HETATM   10  C   UNK N   1      20.476  16.216   7.692  0.00  0.00     0.213 C 
ENDBRANCH   7   9
ENDBRANCH   2   7
TORSDOF 4
ENDMDL
MODEL 7
REMARK VINA RESULT:      -3.9     11.948     14.488
REMARK  4 active torsions:
REMARK  status: ('A' for Active; 'I' for Inactive)
REMARK    1  A    between atoms: C_5  and  C_3 
REMARK    2  A    between atoms: C_6  and  C_4 
REMARK    3  A    between atoms: O_9  and  C_5 
REMARK    4  A    between atoms: O_10  and  C_6 
ROOT
HETATM    1  C   UNK N   1      22.232  20.518   2.614  0.00  0.00     0.088 C 
HETATM    2  C   UNK N   1      23.266  20.031   3.316  0.00  0.00     0.088 C 
ENDROOT
BRANCH   1   3
HETATM    3  C   UNK N   1      20.841  20.160   2.936  0.00  0.00     0.282 C 
HETATM    4  O   UNK N   1      20.263  20.684   3.880  0.00  0.00    -0.260 OA
BRANCH   3   5
HETATM    5  O   UNK N   1      20.212  19.238   2.168  0.00  0.00    -0.323 OA
HETATM    6  C   UNK N   1      19.696  18.076   2.689  0.00  0.00     0.213 C 
ENDBRANCH   3   5
ENDBRANCH   1   3
BRANCH   2   7
HETATM    7  C   UNK N   1      24.658  20.389   2.994  0.00  0.00     0.282 C 
HETATM    8  O   UNK N   1      24.956  20.794   1.877  0.00  0.00    -0.260 OA
BRANCH   7   9
HETATM    9  O   UNK N   1      25.602  20.263   3.956  0.00  0.00    -0.323 OA
HETATM   10  C   UNK N   1      26.926  20.038   3.663  0.00  0.00     0.213 C 
ENDBRANCH   7   9
ENDBRANCH   2   7
TORSDOF 4
ENDMDL
MODEL 8
REMARK VINA RESULT:      -3.9      5.448      8.074
REMARK  4 active torsions:
REMARK  status: ('A' for Active; 'I' for Inactive)
REMARK    1  A    between atoms: C_5  and  C_3 
REMARK    2  A    between atoms: C_6  and  C_4 
REMARK    3  A    between atoms: O_9  and  C_5 
REMARK    4  A    between atoms: O_10  and  C_6 
ROOT
HETATM    1  C   UNK N   1      35.671  13.274  16.096  0.00  0.00     0.088 C 
HETATM    2  C   UNK N   1      34.872  13.277  17.173  0.00  0.00     0.088 C 
ENDROOT
BRANCH   1   3
HETATM    3  C   UNK N   1      35.273  12.616  14.840  0.00  0.00     0.282 C 
HETATM    4  O   UNK N   1      35.337  11.399  14.726  0.00  0.00    -0.260 OA
BRANCH   3   5
HETATM    5  O   UNK N   1      34.836  13.384  13.813  0.00  0.00    -0.323 OA
HETATM    6  C   UNK N   1      35.694  14.104  13.017  0.00  0.00     0.213 C 
ENDBRANCH   3   5
ENDBRANCH   1   3
BRANCH   2   7
HETATM    7  C   UNK N   1      35.269  13.935  18.430  0.00  0.00     0.282 C 
HETATM    8  O   UNK N   1      35.581  15.119  18.443  0.00  0.00    -0.260 OA
BRANCH   7   9
HETATM    9  O   UNK N   1      35.283  13.205  19.570  0.00  0.00    -0.323 OA
HETATM   10  C   UNK N   1      35.396  11.835  19.565  0.00  0.00     0.213 C 
ENDBRANCH   7   9
ENDBRANCH   2   7
TORSDOF 4
ENDMDL
MODEL 9
REMARK VINA RESULT:      -3.8      2.300      3.853
REMARK  4 active torsions:
REMARK  status: ('A' for Active; 'I' for Inactive)
REMARK    1  A    between atoms: C_5  and  C_3 
REMARK    2  A    between atoms: C_6  and  C_4 
REMARK    3  A    between atoms: O_9  and  C_5 
REMARK    4  A    between atoms: O_10  and  C_6 
ROOT
HETATM    1  C   UNK N   1      32.581  17.094   7.408  0.00  0.00     0.088 C 
HETATM    2  C   UNK N   1      33.171  18.174   7.940  0.00  0.00     0.088 C 
ENDROOT
BRANCH   1   3
HETATM    3  C   UNK N   1      31.211  17.147   6.870  0.00  0.00     0.282 C 
HETATM    4  O   UNK N   1      30.290  17.579   7.551  0.00  0.00    -0.260 OA
BRANCH   3   5
HETATM    5  O   UNK N   1      30.990  16.709   5.608  0.00  0.00    -0.323 OA
HETATM    6  C   UNK N   1      31.313  17.459   4.502  0.00  0.00     0.213 C 
ENDBRANCH   3   5
ENDBRANCH   1   3
BRANCH   2   7
HETATM    7  C   UNK N   1      34.542  18.121   8.478  0.00  0.00     0.282 C 
HETATM    8  O   UNK N   1      35.255  19.116   8.467  0.00  0.00    -0.260 OA
BRANCH   7   9
HETATM    9  O   UNK N   1      34.997  16.950   8.984  0.00  0.00    -0.323 OA
HETATM   10  C   UNK N   1      35.185  16.755  10.331  0.00  0.00     0.213 C 
ENDBRANCH   7   9
ENDBRANCH   2   7
TORSDOF 4
ENDMDL
