MODEL 1
REMARK VINA RESULT:      -7.8      0.000      0.000
REMARK  10 active torsions:
REMARK  status: ('A' for Active; 'I' for Inactive)
REMARK    1  A    between atoms: C_1  and  O_10 
REMARK    2  A    between atoms: C_4  and  C_26 
REMARK    3  A    between atoms: O_10  and  C_11 
REMARK    4  A    between atoms: C_11  and  C_12 
REMARK    5  A    between atoms: C_12  and  C_13 
REMARK    6  A    between atoms: C_18  and  C_20 
REMARK    7  A    between atoms: C_26  and  C_27 
REMARK    8  A    between atoms: C_27  and  O_28 
REMARK    9  A    between atoms: C_27  and  C_29 
REMARK   10  A    between atoms: C_29  and  O_30 
ROOT
HETATM    1  C   UNK N   1      29.808  16.036   6.093  0.00  0.00     0.080 A 
HETATM    2  C   UNK N   1      29.638  16.932   7.162  0.00  0.00     0.015 A 
HETATM    3  C   UNK N   1      30.616  17.022   8.167  0.00  0.00     0.024 A 
HETATM    4  C   UNK N   1      31.786  16.242   8.160  0.00  0.00    -0.037 A 
HETATM    5  C   UNK N   1      31.941  15.367   7.105  0.00  0.00     0.011 A 
HETATM    6  C   UNK N   1      30.986  15.268   6.107  0.00  0.00     0.038 A 
HETATM    7  C   UNK N   1      28.534  17.807   7.359  0.00  0.00     0.023 A 
HETATM    8  C   UNK N   1      28.651  18.587   8.527  0.00  0.00     0.051 A 
HETATM    9  S   UNK N   1      30.098  18.156   9.246  0.00  0.00    -0.101 SA
ENDROOT
BRANCH   1  10
HETATM   10  O   UNK N   1      28.864  15.921   5.086  0.00  0.00    -0.350 OA
BRANCH  10  11
HETATM   11  C   UNK N   1      28.780  16.616   3.856  0.00  0.00     0.181 C 
BRANCH  11  12
HETATM   12  C   UNK N   1      27.371  17.111   3.596  0.00  0.00     0.086 C 
BRANCH  12  13
HETATM   13  C   UNK N   1      26.450  18.246   3.799  0.00  0.00     0.043 A 
HETATM   14  C   UNK N   1      26.625  19.534   4.252  0.00  0.00     0.074 A 
HETATM   15  O   UNK N   1      25.447  20.127   4.230  0.00  0.00    -0.296 OA
HETATM   16  C   UNK N   1      27.894  20.172   4.694  0.00  0.00     0.079 C 
HETATM   17  C   UNK N   1      24.573  19.246   3.781  0.00  0.00     0.158 A 
HETATM   18  N   UNK N   1      25.158  18.071   3.504  0.00  0.00    -0.337 N 
ATOM     19  HN  UNK N   1      24.713  17.227   3.146  1.00  0.00     0.168 HD
BRANCH  17  20
HETATM   20  C   UNK N   1      23.132  19.454   3.584  0.00  0.00     0.015 A 
HETATM   21  C   UNK N   1      22.186  18.623   4.195  0.00  0.00     0.016 A 
HETATM   22  C   UNK N   1      20.820  18.849   3.987  0.00  0.00     0.001 A 
HETATM   23  C   UNK N   1      20.397  19.903   3.169  0.00  0.00     0.000 A 
HETATM   24  C   UNK N   1      21.337  20.734   2.557  0.00  0.00     0.001 A 
HETATM   25  C   UNK N   1      22.698  20.510   2.764  0.00  0.00     0.016 A 
ENDBRANCH  17  20
ENDBRANCH  12  13
ENDBRANCH  11  12
ENDBRANCH  10  11
ENDBRANCH   1  10
BRANCH   4  26
HETATM   26  C   UNK N   1      32.824  16.350   9.250  0.00  0.00     0.083 C 
BRANCH  26  27
HETATM   27  C   UNK N   1      34.156  17.200   9.161  0.00  0.00     0.222 C 
BRANCH  27  28
HETATM   28  O   UNK N   1      35.139  17.038  10.172  0.00  0.00    -0.380 OA
HETATM   29  C   UNK N   1      34.966  15.844  10.885  0.00  0.00     0.202 C 
ENDBRANCH  27  28
BRANCH  27  30
HETATM   30  C   UNK N   1      34.625  18.207   8.115  0.00  0.00     0.170 C 
HETATM   31  O   UNK N   1      35.123  19.275   8.409  0.00  0.00    -0.648 OA
BRANCH  30  32
HETATM   32  O   UNK N   1      34.487  17.903   6.809  0.00  0.00    -0.774 OA
HETATM   33  H   UNK N   1      33.639  17.711   6.461  0.00  0.00     0.167 HD
ENDBRANCH  30  32
ENDBRANCH  27  30
ENDBRANCH  26  27
ENDBRANCH   4  26
TORSDOF 10
ENDMDL
MODEL 2
REMARK VINA RESULT:      -7.5      6.652     13.169
REMARK  10 active torsions:
REMARK  status: ('A' for Active; 'I' for Inactive)
REMARK    1  A    between atoms: C_1  and  O_10 
REMARK    2  A    between atoms: C_4  and  C_26 
REMARK    3  A    between atoms: O_10  and  C_11 
REMARK    4  A    between atoms: C_11  and  C_12 
REMARK    5  A    between atoms: C_12  and  C_13 
REMARK    6  A    between atoms: C_18  and  C_20 
REMARK    7  A    between atoms: C_26  and  C_27 
REMARK    8  A    between atoms: C_27  and  O_28 
REMARK    9  A    between atoms: C_27  and  C_29 
REMARK   10  A    between atoms: C_29  and  O_30 
ROOT
HETATM    1  C   UNK N   1      36.628  13.803  10.554  0.00  0.00     0.080 A 
HETATM    2  C   UNK N   1      36.417  13.959   9.173  0.00  0.00     0.015 A 
HETATM    3  C   UNK N   1      35.285  14.649   8.707  0.00  0.00     0.024 A 
HETATM    4  C   UNK N   1      34.326  15.204   9.572  0.00  0.00    -0.037 A 
HETATM    5  C   UNK N   1      34.544  15.045  10.925  0.00  0.00     0.011 A 
HETATM    6  C   UNK N   1      35.656  14.369  11.398  0.00  0.00     0.038 A 
HETATM    7  C   UNK N   1      37.260  13.477   8.134  0.00  0.00     0.023 A 
HETATM    8  C   UNK N   1      36.781  13.791   6.845  0.00  0.00     0.051 A 
HETATM    9  S   UNK N   1      35.356  14.640   7.060  0.00  0.00    -0.101 SA
ENDROOT
BRANCH   1  10
HETATM   10  O   UNK N   1      37.733  13.130  11.047  0.00  0.00    -0.350 OA
BRANCH  10  11
HETATM   11  C   UNK N   1      37.901  11.747  11.295  0.00  0.00     0.181 C 
BRANCH  11  12
HETATM   12  C   UNK N   1      37.514  11.389  12.716  0.00  0.00     0.086 C 
BRANCH  12  13
HETATM   13  C   UNK N   1      36.407  11.410  13.692  0.00  0.00     0.043 A 
HETATM   14  C   UNK N   1      35.056  11.169  13.591  0.00  0.00     0.074 A 
HETATM   15  O   UNK N   1      34.532  11.331  14.790  0.00  0.00    -0.296 OA
HETATM   16  C   UNK N   1      34.294  10.792  12.371  0.00  0.00     0.079 C 
HETATM   17  C   UNK N   1      35.516  11.661  15.606  0.00  0.00     0.158 A 
HETATM   18  N   UNK N   1      36.690  11.719  14.961  0.00  0.00    -0.337 N 
ATOM     19  HN  UNK N   1      37.602  11.950  15.354  1.00  0.00     0.168 HD
BRANCH  17  20
HETATM   20  C   UNK N   1      35.413  11.942  17.045  0.00  0.00     0.015 A 
HETATM   21  C   UNK N   1      35.523  10.921  17.996  0.00  0.00     0.016 A 
HETATM   22  C   UNK N   1      35.420  11.223  19.359  0.00  0.00     0.001 A 
HETATM   23  C   UNK N   1      35.207  12.543  19.774  0.00  0.00     0.000 A 
HETATM   24  C   UNK N   1      35.097  13.564  18.829  0.00  0.00     0.001 A 
HETATM   25  C   UNK N   1      35.200  13.264  17.471  0.00  0.00     0.016 A 
ENDBRANCH  17  20
ENDBRANCH  12  13
ENDBRANCH  11  12
ENDBRANCH  10  11
ENDBRANCH   1  10
BRANCH   4  26
HETATM   26  C   UNK N   1      33.113  15.939   9.054  0.00  0.00     0.083 C 
BRANCH  26  27
HETATM   27  C   UNK N   1      33.109  17.427   8.514  0.00  0.00     0.222 C 
BRANCH  27  28
HETATM   28  O   UNK N   1      31.943  18.216   8.695  0.00  0.00    -0.380 OA
HETATM   29  C   UNK N   1      30.819  17.639   8.089  0.00  0.00     0.202 C 
ENDBRANCH  27  28
BRANCH  27  30
HETATM   30  C   UNK N   1      34.198  18.232   7.812  0.00  0.00     0.170 C 
HETATM   31  O   UNK N   1      34.855  19.081   8.381  0.00  0.00    -0.648 OA
BRANCH  30  32
HETATM   32  O   UNK N   1      34.447  17.996   6.510  0.00  0.00    -0.774 OA
HETATM   33  H   UNK N   1      34.110  17.223   6.101  0.00  0.00     0.167 HD
ENDBRANCH  30  32
ENDBRANCH  27  30
ENDBRANCH  26  27
ENDBRANCH   4  26
TORSDOF 10
ENDMDL
MODEL 3
REMARK VINA RESULT:      -7.4      1.651      2.124
REMARK  10 active torsions:
REMARK  status: ('A' for Active; 'I' for Inactive)
REMARK    1  A    between atoms: C_1  and  O_10 
REMARK    2  A    between atoms: C_4  and  C_26 
REMARK    3  A    between atoms: O_10  and  C_11 
REMARK    4  A    between atoms: C_11  and  C_12 
REMARK    5  A    between atoms: C_12  and  C_13 
REMARK    6  A    between atoms: C_18  and  C_20 
REMARK    7  A    between atoms: C_26  and  C_27 
REMARK    8  A    between atoms: C_27  and  O_28 
REMARK    9  A    between atoms: C_27  and  C_29 
REMARK   10  A    between atoms: C_29  and  O_30 
ROOT
HETATM    1  C   UNK N   1      29.526  17.122   5.750  0.00  0.00     0.080 A 
HETATM    2  C   UNK N   1      29.355  17.610   7.057  0.00  0.00     0.015 A 
HETATM    3  C   UNK N   1      30.344  17.383   8.028  0.00  0.00     0.024 A 
HETATM    4  C   UNK N   1      31.526  16.672   7.756  0.00  0.00    -0.037 A 
HETATM    5  C   UNK N   1      31.683  16.198   6.470  0.00  0.00     0.011 A 
HETATM    6  C   UNK N   1      30.717  16.416   5.502  0.00  0.00     0.038 A 
HETATM    7  C   UNK N   1      28.240  18.349   7.539  0.00  0.00     0.023 A 
HETATM    8  C   UNK N   1      28.358  18.701   8.900  0.00  0.00     0.051 A 
HETATM    9  S   UNK N   1      29.821  18.085   9.426  0.00  0.00    -0.101 SA
ENDROOT
BRANCH   1  10
HETATM   10  O   UNK N   1      28.571  17.328   4.768  0.00  0.00    -0.350 OA
BRANCH  10  11
HETATM   11  C   UNK N   1      27.563  16.451   4.303  0.00  0.00     0.181 C 
BRANCH  11  12
HETATM   12  C   UNK N   1      26.311  16.549   5.152  0.00  0.00     0.086 C 
BRANCH  12  13
HETATM   13  C   UNK N   1      24.843  16.692   5.100  0.00  0.00     0.043 A 
HETATM   14  C   UNK N   1      23.808  16.032   5.725  0.00  0.00     0.074 A 
HETATM   15  O   UNK N   1      22.682  16.576   5.308  0.00  0.00    -0.296 OA
HETATM   16  C   UNK N   1      23.906  14.911   6.696  0.00  0.00     0.079 C 
HETATM   17  C   UNK N   1      22.999  17.535   4.458  0.00  0.00     0.158 A 
HETATM   18  N   UNK N   1      24.328  17.635   4.306  0.00  0.00    -0.337 N 
ATOM     19  HN  UNK N   1      24.836  18.289   3.712  1.00  0.00     0.168 HD
BRANCH  17  20
HETATM   20  C   UNK N   1      22.073  18.418   3.736  0.00  0.00     0.015 A 
HETATM   21  C   UNK N   1      20.744  18.046   3.505  0.00  0.00     0.016 A 
HETATM   22  C   UNK N   1      19.888  18.912   2.813  0.00  0.00     0.001 A 
HETATM   23  C   UNK N   1      20.356  20.147   2.352  0.00  0.00     0.000 A 
HETATM   24  C   UNK N   1      21.681  20.522   2.581  0.00  0.00     0.001 A 
HETATM   25  C   UNK N   1      22.535  19.661   3.270  0.00  0.00     0.016 A 
ENDBRANCH  17  20
ENDBRANCH  12  13
ENDBRANCH  11  12
ENDBRANCH  10  11
ENDBRANCH   1  10
BRANCH   4  26
HETATM   26  C   UNK N   1      32.577  16.435   8.813  0.00  0.00     0.083 C 
BRANCH  26  27
HETATM   27  C   UNK N   1      33.925  17.250   8.960  0.00  0.00     0.222 C 
BRANCH  27  28
HETATM   28  O   UNK N   1      34.715  17.060  10.124  0.00  0.00    -0.380 OA
HETATM   29  C   UNK N   1      35.457  15.873  10.067  0.00  0.00     0.202 C 
ENDBRANCH  27  28
BRANCH  27  30
HETATM   30  C   UNK N   1      34.592  18.247   8.017  0.00  0.00     0.170 C 
HETATM   31  O   UNK N   1      34.509  18.162   6.808  0.00  0.00    -0.648 OA
BRANCH  30  32
HETATM   32  O   UNK N   1      35.300  19.267   8.541  0.00  0.00    -0.774 OA
HETATM   33  H   UNK N   1      35.223  20.126   8.175  0.00  0.00     0.167 HD
ENDBRANCH  30  32
ENDBRANCH  27  30
ENDBRANCH  26  27
ENDBRANCH   4  26
TORSDOF 10
ENDMDL
MODEL 4
REMARK VINA RESULT:      -7.2      4.699      5.839
REMARK  10 active torsions:
REMARK  status: ('A' for Active; 'I' for Inactive)
REMARK    1  A    between atoms: C_1  and  O_10 
REMARK    2  A    between atoms: C_4  and  C_26 
REMARK    3  A    between atoms: O_10  and  C_11 
REMARK    4  A    between atoms: C_11  and  C_12 
REMARK    5  A    between atoms: C_12  and  C_13 
REMARK    6  A    between atoms: C_18  and  C_20 
REMARK    7  A    between atoms: C_26  and  C_27 
REMARK    8  A    between atoms: C_27  and  O_28 
REMARK    9  A    between atoms: C_27  and  C_29 
REMARK   10  A    between atoms: C_29  and  O_30 
ROOT
HETATM    1  C   UNK N   1      29.343  16.519   5.994  0.00  0.00     0.080 A 
HETATM    2  C   UNK N   1      29.284  17.210   7.217  0.00  0.00     0.015 A 
HETATM    3  C   UNK N   1      30.469  17.554   7.889  0.00  0.00     0.024 A 
HETATM    4  C   UNK N   1      31.744  17.234   7.392  0.00  0.00    -0.037 A 
HETATM    5  C   UNK N   1      31.789  16.557   6.191  0.00  0.00     0.011 A 
HETATM    6  C   UNK N   1      30.630  16.212   5.516  0.00  0.00     0.038 A 
HETATM    7  C   UNK N   1      28.103  17.626   7.891  0.00  0.00     0.023 A 
HETATM    8  C   UNK N   1      28.367  18.300   9.101  0.00  0.00     0.051 A 
HETATM    9  S   UNK N   1      30.030  18.344   9.269  0.00  0.00    -0.101 SA
ENDROOT
BRANCH   1  10
HETATM   10  O   UNK N   1      28.195  16.165   5.305  0.00  0.00    -0.350 OA
BRANCH  10  11
HETATM   11  C   UNK N   1      27.476  14.947   5.332  0.00  0.00     0.181 C 
BRANCH  11  12
HETATM   12  C   UNK N   1      26.362  14.987   6.360  0.00  0.00     0.086 C 
BRANCH  12  13
HETATM   13  C   UNK N   1      25.161  14.279   6.844  0.00  0.00     0.043 A 
HETATM   14  C   UNK N   1      24.009  13.844   6.227  0.00  0.00     0.074 A 
HETATM   15  O   UNK N   1      23.261  13.264   7.145  0.00  0.00    -0.296 OA
HETATM   16  C   UNK N   1      23.644  13.984   4.792  0.00  0.00     0.079 C 
HETATM   17  C   UNK N   1      23.918  13.334   8.288  0.00  0.00     0.158 A 
HETATM   18  N   UNK N   1      25.097  13.956   8.139  0.00  0.00    -0.337 N 
ATOM     19  HN  UNK N   1      25.795  14.142   8.858  1.00  0.00     0.168 HD
BRANCH  17  20
HETATM   20  C   UNK N   1      23.478  12.821   9.593  0.00  0.00     0.015 A 
HETATM   21  C   UNK N   1      22.120  12.727   9.917  0.00  0.00     0.016 A 
HETATM   22  C   UNK N   1      21.734  12.233  11.170  0.00  0.00     0.001 A 
HETATM   23  C   UNK N   1      22.702  11.834  12.098  0.00  0.00     0.000 A 
HETATM   24  C   UNK N   1      24.058  11.927  11.778  0.00  0.00     0.001 A 
HETATM   25  C   UNK N   1      24.443  12.418  10.531  0.00  0.00     0.016 A 
ENDBRANCH  17  20
ENDBRANCH  12  13
ENDBRANCH  11  12
ENDBRANCH  10  11
ENDBRANCH   1  10
BRANCH   4  26
HETATM   26  C   UNK N   1      33.006  17.609   8.129  0.00  0.00     0.083 C 
BRANCH  26  27
HETATM   27  C   UNK N   1      33.950  16.596   8.896  0.00  0.00     0.222 C 
BRANCH  27  28
HETATM   28  O   UNK N   1      34.062  15.267   8.412  0.00  0.00    -0.380 OA
HETATM   29  C   UNK N   1      35.340  14.999   7.903  0.00  0.00     0.202 C 
ENDBRANCH  27  28
BRANCH  27  30
HETATM   30  C   UNK N   1      34.838  16.798  10.120  0.00  0.00     0.170 C 
HETATM   31  O   UNK N   1      35.710  17.643  10.166  0.00  0.00    -0.648 OA
BRANCH  30  32
HETATM   32  O   UNK N   1      34.650  16.012  11.198  0.00  0.00    -0.774 OA
HETATM   33  H   UNK N   1      33.866  15.506  11.278  0.00  0.00     0.167 HD
ENDBRANCH  30  32
ENDBRANCH  27  30
ENDBRANCH  26  27
ENDBRANCH   4  26
TORSDOF 10
ENDMDL
MODEL 5
REMARK VINA RESULT:      -7.2      8.245     13.241
REMARK  10 active torsions:
REMARK  status: ('A' for Active; 'I' for Inactive)
REMARK    1  A    between atoms: C_1  and  O_10 
REMARK    2  A    between atoms: C_4  and  C_26 
REMARK    3  A    between atoms: O_10  and  C_11 
REMARK    4  A    between atoms: C_11  and  C_12 
REMARK    5  A    between atoms: C_12  and  C_13 
REMARK    6  A    between atoms: C_18  and  C_20 
REMARK    7  A    between atoms: C_26  and  C_27 
REMARK    8  A    between atoms: C_27  and  O_28 
REMARK    9  A    between atoms: C_27  and  C_29 
REMARK   10  A    between atoms: C_29  and  O_30 
ROOT
HETATM    1  C   UNK N   1      35.332  12.746  16.469  0.00  0.00     0.080 A 
HETATM    2  C   UNK N   1      35.387  11.343  16.539  0.00  0.00     0.015 A 
HETATM    3  C   UNK N   1      35.340  10.699  17.787  0.00  0.00     0.024 A 
HETATM    4  C   UNK N   1      35.239  11.401  19.000  0.00  0.00    -0.037 A 
HETATM    5  C   UNK N   1      35.185  12.777  18.919  0.00  0.00     0.011 A 
HETATM    6  C   UNK N   1      35.230  13.426  17.696  0.00  0.00     0.038 A 
HETATM    7  C   UNK N   1      35.490  10.450  15.438  0.00  0.00     0.023 A 
HETATM    8  C   UNK N   1      35.524   9.095  15.828  0.00  0.00     0.051 A 
HETATM    9  S   UNK N   1      35.426   9.078  17.497  0.00  0.00    -0.101 SA
ENDROOT
BRANCH   1  10
HETATM   10  O   UNK N   1      35.377  13.414  15.257  0.00  0.00    -0.350 OA
BRANCH  10  11
HETATM   11  C   UNK N   1      36.487  13.981  14.587  0.00  0.00     0.181 C 
BRANCH  11  12
HETATM   12  C   UNK N   1      36.069  14.651  13.294  0.00  0.00     0.086 C 
BRANCH  12  13
HETATM   13  C   UNK N   1      35.313  14.458  12.041  0.00  0.00     0.043 A 
HETATM   14  C   UNK N   1      34.966  13.343  11.311  0.00  0.00     0.074 A 
HETATM   15  O   UNK N   1      34.280  13.753  10.262  0.00  0.00    -0.296 OA
HETATM   16  C   UNK N   1      35.289  11.925  11.618  0.00  0.00     0.079 C 
HETATM   17  C   UNK N   1      34.201  15.069  10.334  0.00  0.00     0.158 A 
HETATM   18  N   UNK N   1      34.829  15.539  11.422  0.00  0.00    -0.337 N 
ATOM     19  HN  UNK N   1      34.919  16.512  11.714  1.00  0.00     0.168 HD
BRANCH  17  20
HETATM   20  C   UNK N   1      33.530  15.967   9.384  0.00  0.00     0.015 A 
HETATM   21  C   UNK N   1      34.135  17.152   8.951  0.00  0.00     0.016 A 
HETATM   22  C   UNK N   1      33.468  17.986   8.045  0.00  0.00     0.001 A 
HETATM   23  C   UNK N   1      32.198  17.637   7.571  0.00  0.00     0.000 A 
HETATM   24  C   UNK N   1      31.591  16.456   8.000  0.00  0.00     0.001 A 
HETATM   25  C   UNK N   1      32.255  15.625   8.903  0.00  0.00     0.016 A 
ENDBRANCH  17  20
ENDBRANCH  12  13
ENDBRANCH  11  12
ENDBRANCH  10  11
ENDBRANCH   1  10
BRANCH   4  26
HETATM   26  C   UNK N   1      35.193  10.692  20.332  0.00  0.00     0.083 C 
BRANCH  26  27
HETATM   27  C   UNK N   1      33.907  10.018  20.963  0.00  0.00     0.222 C 
BRANCH  27  28
HETATM   28  O   UNK N   1      33.508   8.738  20.497  0.00  0.00    -0.380 OA
HETATM   29  C   UNK N   1      34.370   7.725  20.939  0.00  0.00     0.202 C 
ENDBRANCH  27  28
BRANCH  27  30
HETATM   30  C   UNK N   1      32.970  10.503  22.065  0.00  0.00     0.170 C 
HETATM   31  O   UNK N   1      32.188   9.766  22.633  0.00  0.00    -0.648 OA
BRANCH  30  32
HETATM   32  O   UNK N   1      33.009  11.799  22.430  0.00  0.00    -0.774 OA
HETATM   33  H   UNK N   1      33.594  12.077  23.106  0.00  0.00     0.167 HD
ENDBRANCH  30  32
ENDBRANCH  27  30
ENDBRANCH  26  27
ENDBRANCH   4  26
TORSDOF 10
ENDMDL
MODEL 6
REMARK VINA RESULT:      -7.2      4.156      5.528
REMARK  10 active torsions:
REMARK  status: ('A' for Active; 'I' for Inactive)
REMARK    1  A    between atoms: C_1  and  O_10 
REMARK    2  A    between atoms: C_4  and  C_26 
REMARK    3  A    between atoms: O_10  and  C_11 
REMARK    4  A    between atoms: C_11  and  C_12 
REMARK    5  A    between atoms: C_12  and  C_13 
REMARK    6  A    between atoms: C_18  and  C_20 
REMARK    7  A    between atoms: C_26  and  C_27 
REMARK    8  A    between atoms: C_27  and  O_28 
REMARK    9  A    between atoms: C_27  and  C_29 
REMARK   10  A    between atoms: C_29  and  O_30 
ROOT
HETATM    1  C   UNK N   1      29.519  16.390   5.924  0.00  0.00     0.080 A 
HETATM    2  C   UNK N   1      30.515  15.398   5.916  0.00  0.00     0.015 A 
HETATM    3  C   UNK N   1      31.513  15.396   6.905  0.00  0.00     0.024 A 
HETATM    4  C   UNK N   1      31.572  16.359   7.926  0.00  0.00    -0.037 A 
HETATM    5  C   UNK N   1      30.589  17.327   7.924  0.00  0.00     0.011 A 
HETATM    6  C   UNK N   1      29.598  17.342   6.957  0.00  0.00     0.038 A 
HETATM    7  C   UNK N   1      30.638  14.338   4.977  0.00  0.00     0.023 A 
HETATM    8  C   UNK N   1      31.743  13.500   5.232  0.00  0.00     0.051 A 
HETATM    9  S   UNK N   1      32.499  14.111   6.593  0.00  0.00    -0.101 SA
ENDROOT
BRANCH   1  10
HETATM   10  O   UNK N   1      28.520  16.422   4.965  0.00  0.00    -0.350 OA
BRANCH  10  11
HETATM   11  C   UNK N   1      27.247  17.037   5.021  0.00  0.00     0.181 C 
BRANCH  11  12
HETATM   12  C   UNK N   1      26.340  16.340   6.016  0.00  0.00     0.086 C 
BRANCH  12  13
HETATM   13  C   UNK N   1      25.898  15.020   6.505  0.00  0.00     0.043 A 
HETATM   14  C   UNK N   1      26.133  13.730   6.083  0.00  0.00     0.074 A 
HETATM   15  O   UNK N   1      25.481  12.922   6.896  0.00  0.00    -0.296 OA
HETATM   16  C   UNK N   1      26.964  13.294   4.930  0.00  0.00     0.079 C 
HETATM   17  C   UNK N   1      24.864  13.675   7.787  0.00  0.00     0.158 A 
HETATM   18  N   UNK N   1      25.099  14.978   7.576  0.00  0.00    -0.337 N 
ATOM     19  HN  UNK N   1      24.746  15.767   8.116  1.00  0.00     0.168 HD
BRANCH  17  20
HETATM   20  C   UNK N   1      24.014  13.215   8.894  0.00  0.00     0.015 A 
HETATM   21  C   UNK N   1      24.535  12.449   9.942  0.00  0.00     0.016 A 
HETATM   22  C   UNK N   1      23.697  12.027  10.982  0.00  0.00     0.001 A 
HETATM   23  C   UNK N   1      22.340  12.370  10.977  0.00  0.00     0.000 A 
HETATM   24  C   UNK N   1      21.817  13.135   9.933  0.00  0.00     0.001 A 
HETATM   25  C   UNK N   1      22.650  13.555   8.897  0.00  0.00     0.016 A 
ENDBRANCH  17  20
ENDBRANCH  12  13
ENDBRANCH  11  12
ENDBRANCH  10  11
ENDBRANCH   1  10
BRANCH   4  26
HETATM   26  C   UNK N   1      32.655  16.343   8.978  0.00  0.00     0.083 C 
BRANCH  26  27
HETATM   27  C   UNK N   1      34.084  17.006   8.828  0.00  0.00     0.222 C 
BRANCH  27  28
HETATM   28  O   UNK N   1      35.163  16.483   9.588  0.00  0.00    -0.380 OA
HETATM   29  C   UNK N   1      34.717  15.721  10.676  0.00  0.00     0.202 C 
ENDBRANCH  27  28
BRANCH  27  30
HETATM   30  C   UNK N   1      34.558  18.158   7.946  0.00  0.00     0.170 C 
HETATM   31  O   UNK N   1      34.338  18.203   6.752  0.00  0.00    -0.648 OA
BRANCH  30  32
HETATM   32  O   UNK N   1      35.245  19.170   8.510  0.00  0.00    -0.774 OA
HETATM   33  H   UNK N   1      35.759  19.742   7.975  0.00  0.00     0.167 HD
ENDBRANCH  30  32
ENDBRANCH  27  30
ENDBRANCH  26  27
ENDBRANCH   4  26
TORSDOF 10
ENDMDL
MODEL 7
REMARK VINA RESULT:      -7.2      2.927     10.774
REMARK  10 active torsions:
REMARK  status: ('A' for Active; 'I' for Inactive)
REMARK    1  A    between atoms: C_1  and  O_10 
REMARK    2  A    between atoms: C_4  and  C_26 
REMARK    3  A    between atoms: O_10  and  C_11 
REMARK    4  A    between atoms: C_11  and  C_12 
REMARK    5  A    between atoms: C_12  and  C_13 
REMARK    6  A    between atoms: C_18  and  C_20 
REMARK    7  A    between atoms: C_26  and  C_27 
REMARK    8  A    between atoms: C_27  and  O_28 
REMARK    9  A    between atoms: C_27  and  C_29 
REMARK   10  A    between atoms: C_29  and  O_30 
ROOT
HETATM    1  C   UNK N   1      28.956  18.100   7.201  0.00  0.00     0.080 A 
HETATM    2  C   UNK N   1      29.006  17.447   5.958  0.00  0.00     0.015 A 
HETATM    3  C   UNK N   1      28.275  17.951   4.869  0.00  0.00     0.024 A 
HETATM    4  C   UNK N   1      27.475  19.103   4.959  0.00  0.00    -0.037 A 
HETATM    5  C   UNK N   1      27.434  19.736   6.184  0.00  0.00     0.011 A 
HETATM    6  C   UNK N   1      28.150  19.252   7.266  0.00  0.00     0.038 A 
HETATM    7  C   UNK N   1      29.748  16.273   5.655  0.00  0.00     0.023 A 
HETATM    8  C   UNK N   1      29.597  15.855   4.316  0.00  0.00     0.051 A 
HETATM    9  S   UNK N   1      28.562  16.950   3.590  0.00  0.00    -0.101 SA
ENDROOT
BRANCH   1  10
HETATM   10  O   UNK N   1      29.663  17.632   8.296  0.00  0.00    -0.350 OA
BRANCH  10  11
HETATM   11  C   UNK N   1      30.601  18.309   9.112  0.00  0.00     0.181 C 
BRANCH  11  12
HETATM   12  C   UNK N   1      32.008  18.171   8.566  0.00  0.00     0.086 C 
BRANCH  12  13
HETATM   13  C   UNK N   1      33.157  17.252   8.449  0.00  0.00     0.043 A 
HETATM   14  C   UNK N   1      33.937  16.847   7.389  0.00  0.00     0.074 A 
HETATM   15  O   UNK N   1      34.836  16.003   7.858  0.00  0.00    -0.296 OA
HETATM   16  C   UNK N   1      33.817  17.263   5.967  0.00  0.00     0.079 C 
HETATM   17  C   UNK N   1      34.626  15.886   9.156  0.00  0.00     0.158 A 
HETATM   18  N   UNK N   1      33.595  16.645   9.556  0.00  0.00    -0.337 N 
ATOM     19  HN  UNK N   1      33.225  16.738  10.502  1.00  0.00     0.168 HD
BRANCH  17  20
HETATM   20  C   UNK N   1      35.382  15.053  10.101  0.00  0.00     0.015 A 
HETATM   21  C   UNK N   1      36.594  14.457   9.738  0.00  0.00     0.016 A 
HETATM   22  C   UNK N   1      37.290  13.669  10.663  0.00  0.00     0.001 A 
HETATM   23  C   UNK N   1      36.776  13.475  11.951  0.00  0.00     0.000 A 
HETATM   24  C   UNK N   1      35.566  14.067  12.317  0.00  0.00     0.001 A 
HETATM   25  C   UNK N   1      34.873  14.853  11.396  0.00  0.00     0.016 A 
ENDBRANCH  17  20
ENDBRANCH  12  13
ENDBRANCH  11  12
ENDBRANCH  10  11
ENDBRANCH   1  10
BRANCH   4  26
HETATM   26  C   UNK N   1      26.694  19.627   3.779  0.00  0.00     0.083 C 
BRANCH  26  27
HETATM   27  C   UNK N   1      25.119  19.769   3.716  0.00  0.00     0.222 C 
BRANCH  27  28
HETATM   28  O   UNK N   1      24.333  19.090   4.684  0.00  0.00    -0.380 OA
HETATM   29  C   UNK N   1      24.143  17.741   4.353  0.00  0.00     0.202 C 
ENDBRANCH  27  28
BRANCH  27  30
HETATM   30  C   UNK N   1      24.229  20.567   2.767  0.00  0.00     0.170 C 
HETATM   31  O   UNK N   1      23.252  21.182   3.146  0.00  0.00    -0.648 OA
BRANCH  30  32
HETATM   32  O   UNK N   1      24.537  20.598   1.456  0.00  0.00    -0.774 OA
HETATM   33  H   UNK N   1      25.361  20.265   1.161  0.00  0.00     0.167 HD
ENDBRANCH  30  32
ENDBRANCH  27  30
ENDBRANCH  26  27
ENDBRANCH   4  26
TORSDOF 10
ENDMDL
MODEL 8
REMARK VINA RESULT:      -7.1      5.692     12.571
REMARK  10 active torsions:
REMARK  status: ('A' for Active; 'I' for Inactive)
REMARK    1  A    between atoms: C_1  and  O_10 
REMARK    2  A    between atoms: C_4  and  C_26 
REMARK    3  A    between atoms: O_10  and  C_11 
REMARK    4  A    between atoms: C_11  and  C_12 
REMARK    5  A    between atoms: C_12  and  C_13 
REMARK    6  A    between atoms: C_18  and  C_20 
REMARK    7  A    between atoms: C_26  and  C_27 
REMARK    8  A    between atoms: C_27  and  O_28 
REMARK    9  A    between atoms: C_27  and  C_29 
REMARK   10  A    between atoms: C_29  and  O_30 
ROOT
HETATM    1  C   UNK N   1      34.452  16.139   9.131  0.00  0.00     0.080 A 
HETATM    2  C   UNK N   1      34.833  15.480   7.950  0.00  0.00     0.015 A 
HETATM    3  C   UNK N   1      34.370  15.940   6.706  0.00  0.00     0.024 A 
HETATM    4  C   UNK N   1      33.524  17.054   6.576  0.00  0.00    -0.037 A 
HETATM    5  C   UNK N   1      33.157  17.694   7.742  0.00  0.00     0.011 A 
HETATM    6  C   UNK N   1      33.605  17.253   8.975  0.00  0.00     0.038 A 
HETATM    7  C   UNK N   1      35.677  14.339   7.860  0.00  0.00     0.023 A 
HETATM    8  C   UNK N   1      35.877  13.904   6.533  0.00  0.00     0.051 A 
HETATM    9  S   UNK N   1      35.005  14.944   5.555  0.00  0.00    -0.101 SA
ENDROOT
BRANCH   1  10
HETATM   10  O   UNK N   1      34.889  15.713  10.374  0.00  0.00    -0.350 OA
BRANCH  10  11
HETATM   11  C   UNK N   1      36.098  16.008  11.047  0.00  0.00     0.181 C 
BRANCH  11  12
HETATM   12  C   UNK N   1      36.197  15.256  12.359  0.00  0.00     0.086 C 
BRANCH  12  13
HETATM   13  C   UNK N   1      35.783  14.027  13.064  0.00  0.00     0.043 A 
HETATM   14  C   UNK N   1      35.282  12.818  12.636  0.00  0.00     0.074 A 
HETATM   15  O   UNK N   1      35.083  12.070  13.704  0.00  0.00    -0.296 OA
HETATM   16  C   UNK N   1      35.005  12.398  11.237  0.00  0.00     0.079 C 
HETATM   17  C   UNK N   1      35.444  12.783  14.755  0.00  0.00     0.158 A 
HETATM   18  N   UNK N   1      35.882  13.999  14.396  0.00  0.00    -0.337 N 
ATOM     19  HN  UNK N   1      36.219  14.742  15.008  1.00  0.00     0.168 HD
BRANCH  17  20
HETATM   20  C   UNK N   1      35.400  12.365  16.163  0.00  0.00     0.015 A 
HETATM   21  C   UNK N   1      35.509  11.018  16.526  0.00  0.00     0.016 A 
HETATM   22  C   UNK N   1      35.463  10.654  17.877  0.00  0.00     0.001 A 
HETATM   23  C   UNK N   1      35.309  11.632  18.866  0.00  0.00     0.000 A 
HETATM   24  C   UNK N   1      35.200  12.977  18.508  0.00  0.00     0.001 A 
HETATM   25  C   UNK N   1      35.246  13.341  17.162  0.00  0.00     0.016 A 
ENDBRANCH  17  20
ENDBRANCH  12  13
ENDBRANCH  11  12
ENDBRANCH  10  11
ENDBRANCH   1  10
BRANCH   4  26
HETATM   26  C   UNK N   1      33.034  17.533   5.231  0.00  0.00     0.083 C 
BRANCH  26  27
HETATM   27  C   UNK N   1      31.673  17.101   4.548  0.00  0.00     0.222 C 
BRANCH  27  28
HETATM   28  O   UNK N   1      31.718  16.239   3.421  0.00  0.00    -0.380 OA
HETATM   29  C   UNK N   1      32.958  16.290   2.770  0.00  0.00     0.202 C 
ENDBRANCH  27  28
BRANCH  27  30
HETATM   30  C   UNK N   1      30.230  17.437   4.908  0.00  0.00     0.170 C 
HETATM   31  O   UNK N   1      29.630  16.876   5.804  0.00  0.00    -0.648 OA
BRANCH  30  32
HETATM   32  O   UNK N   1      29.590  18.396   4.211  0.00  0.00    -0.774 OA
HETATM   33  H   UNK N   1      28.657  18.372   4.131  0.00  0.00     0.167 HD
ENDBRANCH  30  32
ENDBRANCH  27  30
ENDBRANCH  26  27
ENDBRANCH   4  26
TORSDOF 10
ENDMDL
MODEL 9
REMARK VINA RESULT:      -7.1      2.372      3.586
REMARK  10 active torsions:
REMARK  status: ('A' for Active; 'I' for Inactive)
REMARK    1  A    between atoms: C_1  and  O_10 
REMARK    2  A    between atoms: C_4  and  C_26 
REMARK    3  A    between atoms: O_10  and  C_11 
REMARK    4  A    between atoms: C_11  and  C_12 
REMARK    5  A    between atoms: C_12  and  C_13 
REMARK    6  A    between atoms: C_18  and  C_20 
REMARK    7  A    between atoms: C_26  and  C_27 
REMARK    8  A    between atoms: C_27  and  O_28 
REMARK    9  A    between atoms: C_27  and  C_29 
REMARK   10  A    between atoms: C_29  and  O_30 
ROOT
HETATM    1  C   UNK N   1      28.591  18.634   7.526  0.00  0.00     0.080 A 
HETATM    2  C   UNK N   1      29.203  17.671   6.704  0.00  0.00     0.015 A 
HETATM    3  C   UNK N   1      30.384  17.037   7.123  0.00  0.00     0.024 A 
HETATM    4  C   UNK N   1      31.004  17.321   8.352  0.00  0.00    -0.037 A 
HETATM    5  C   UNK N   1      30.394  18.267   9.150  0.00  0.00     0.011 A 
HETATM    6  C   UNK N   1      29.229  18.900   8.751  0.00  0.00     0.038 A 
HETATM    7  C   UNK N   1      28.743  17.239   5.430  0.00  0.00     0.023 A 
HETATM    8  C   UNK N   1      29.572  16.259   4.848  0.00  0.00     0.051 A 
HETATM    9  S   UNK N   1      30.817  15.983   5.930  0.00  0.00    -0.101 SA
ENDROOT
BRANCH   1  10
HETATM   10  O   UNK N   1      27.426  19.278   7.144  0.00  0.00    -0.350 OA
BRANCH  10  11
HETATM   11  C   UNK N   1      27.265  20.440   6.353  0.00  0.00     0.181 C 
BRANCH  11  12
HETATM   12  C   UNK N   1      26.302  20.198   5.207  0.00  0.00     0.086 C 
BRANCH  12  13
HETATM   13  C   UNK N   1      25.183  19.352   4.748  0.00  0.00     0.043 A 
HETATM   14  C   UNK N   1      24.231  19.498   3.765  0.00  0.00     0.074 A 
HETATM   15  O   UNK N   1      23.467  18.424   3.789  0.00  0.00    -0.296 OA
HETATM   16  C   UNK N   1      24.065  20.643   2.831  0.00  0.00     0.079 C 
HETATM   17  C   UNK N   1      23.923  17.639   4.748  0.00  0.00     0.158 A 
HETATM   18  N   UNK N   1      24.984  18.181   5.362  0.00  0.00    -0.337 N 
ATOM     19  HN  UNK N   1      25.524  17.786   6.132  1.00  0.00     0.168 HD
BRANCH  17  20
HETATM   20  C   UNK N   1      23.388  16.329   5.146  0.00  0.00     0.015 A 
HETATM   21  C   UNK N   1      22.329  15.734   4.452  0.00  0.00     0.016 A 
HETATM   22  C   UNK N   1      21.844  14.484   4.858  0.00  0.00     0.001 A 
HETATM   23  C   UNK N   1      22.415  13.829   5.955  0.00  0.00     0.000 A 
HETATM   24  C   UNK N   1      23.472  14.420   6.650  0.00  0.00     0.001 A 
HETATM   25  C   UNK N   1      23.956  15.665   6.246  0.00  0.00     0.016 A 
ENDBRANCH  17  20
ENDBRANCH  12  13
ENDBRANCH  11  12
ENDBRANCH  10  11
ENDBRANCH   1  10
BRANCH   4  26
HETATM   26  C   UNK N   1      32.275  16.632   8.785  0.00  0.00     0.083 C 
BRANCH  26  27
HETATM   27  C   UNK N   1      33.735  17.038   8.328  0.00  0.00     0.222 C 
BRANCH  27  28
HETATM   28  O   UNK N   1      34.636  17.551   9.298  0.00  0.00    -0.380 OA
HETATM   29  C   UNK N   1      35.032  16.570  10.217  0.00  0.00     0.202 C 
ENDBRANCH  27  28
BRANCH  27  30
HETATM   30  C   UNK N   1      34.409  16.955   6.962  0.00  0.00     0.170 C 
HETATM   31  O   UNK N   1      35.132  16.032   6.642  0.00  0.00    -0.648 OA
BRANCH  30  32
HETATM   32  O   UNK N   1      34.194  17.940   6.068  0.00  0.00    -0.774 OA
HETATM   33  H   UNK N   1      33.839  18.760   6.351  0.00  0.00     0.167 HD
ENDBRANCH  30  32
ENDBRANCH  27  30
ENDBRANCH  26  27
ENDBRANCH   4  26
TORSDOF 10
ENDMDL
