MODEL 1
REMARK VINA RESULT:      -6.1      0.000      0.000
REMARK  5 active torsions:
REMARK  status: ('A' for Active; 'I' for Inactive)
REMARK    1  A    between atoms: C_15  and  C_3 
REMARK    2  A    between atoms: C_14  and  C_13 
REMARK    3  A    between atoms: N_18  and  C_13 
REMARK    4  A    between atoms: C_17  and  C_14 
REMARK    5  A    between atoms: C_17  and  C_16 
ROOT
HETATM    1  C   UNK N   1      28.423  17.776   8.527  0.00  0.00     0.165 C 
HETATM    2  O   UNK N   1      27.519  17.214   9.125  0.00  0.00    -0.292 OA
ENDROOT
BRANCH   1   3
HETATM    3  C   UNK N   1      29.794  17.808   9.203  0.00  0.00     0.085 C 
HETATM    4  C   UNK N   1      30.506  19.152   9.243  0.00  0.00     0.020 C 
BRANCH   3   5
HETATM    5  C   UNK N   1      30.740  16.720   8.689  0.00  0.00     0.284 C 
BRANCH   5   6
HETATM    6  N   UNK N   1      31.687  17.299   7.742  0.00  0.00     0.089 N 
HETATM    7  C   UNK N   1      33.049  17.025   8.197  0.00  0.00     0.272 C 
HETATM    8  C   UNK N   1      34.048  17.695   7.250  0.00  0.00     0.030 C 
HETATM    9  C   UNK N   1      33.844  17.181   5.825  0.00  0.00     0.003 C 
HETATM   10  C   UNK N   1      32.385  17.327   5.404  0.00  0.00     0.030 C 
HETATM   11  C   UNK N   1      31.494  16.656   6.443  0.00  0.00     0.272 C 
ENDBRANCH   5   6
ENDBRANCH   3   5
ENDBRANCH   1   3
BRANCH   1  12
HETATM   12  C   UNK N   1      28.095  18.464   7.233  0.00  0.00     0.010 A 
HETATM   13  C   UNK N   1      27.681  19.802   7.178  0.00  0.00     0.015 A 
HETATM   14  C   UNK N   1      27.322  20.398   5.969  0.00  0.00     0.008 A 
HETATM   15  C   UNK N   1      27.360  19.664   4.783  0.00  0.00    -0.059 A 
HETATM   16  C   UNK N   1      27.783  18.326   4.818  0.00  0.00     0.008 A 
HETATM   17  C   UNK N   1      28.147  17.733   6.033  0.00  0.00     0.015 A 
BRANCH  15  18
HETATM   18  C   UNK N   1      26.932  20.337   3.511  0.00  0.00     0.034 C 
HETATM   19  C   UNK N   1      25.469  20.122   3.155  0.00  0.00     0.010 C 
ENDBRANCH  15  18
ENDBRANCH   1  12
TORSDOF 5
ENDMDL
MODEL 2
REMARK VINA RESULT:      -6.0     10.948     13.711
REMARK  5 active torsions:
REMARK  status: ('A' for Active; 'I' for Inactive)
REMARK    1  A    between atoms: C_15  and  C_3 
REMARK    2  A    between atoms: C_14  and  C_13 
REMARK    3  A    between atoms: N_18  and  C_13 
REMARK    4  A    between atoms: C_17  and  C_14 
REMARK    5  A    between atoms: C_17  and  C_16 
ROOT
HETATM    1  C   UNK N   1      29.306  23.025  -2.928  0.00  0.00     0.165 C 
HETATM    2  O   UNK N   1      28.813  22.933  -1.815  0.00  0.00    -0.292 OA
ENDROOT
BRANCH   1   3
HETATM    3  C   UNK N   1      28.656  24.005  -3.903  0.00  0.00     0.085 C 
HETATM    4  C   UNK N   1      29.531  25.138  -4.421  0.00  0.00     0.020 C 
BRANCH   3   5
HETATM    5  C   UNK N   1      27.318  24.554  -3.398  0.00  0.00     0.284 C 
BRANCH   5   6
HETATM    6  N   UNK N   1      26.829  25.575  -4.318  0.00  0.00     0.089 N 
HETATM    7  C   UNK N   1      25.844  24.977  -5.218  0.00  0.00     0.272 C 
HETATM    8  C   UNK N   1      25.380  26.022  -6.235  0.00  0.00     0.030 C 
HETATM    9  C   UNK N   1      24.783  27.229  -5.512  0.00  0.00     0.003 C 
HETATM   10  C   UNK N   1      25.754  27.762  -4.463  0.00  0.00     0.030 C 
HETATM   11  C   UNK N   1      26.168  26.622  -3.539  0.00  0.00     0.272 C 
ENDBRANCH   5   6
ENDBRANCH   3   5
ENDBRANCH   1   3
BRANCH   1  12
HETATM   12  C   UNK N   1      30.445  22.108  -3.274  0.00  0.00     0.010 A 
HETATM   13  C   UNK N   1      31.668  22.138  -2.590  0.00  0.00     0.015 A 
HETATM   14  C   UNK N   1      32.730  21.318  -2.972  0.00  0.00     0.008 A 
HETATM   15  C   UNK N   1      32.595  20.452  -4.058  0.00  0.00    -0.059 A 
HETATM   16  C   UNK N   1      31.374  20.400  -4.747  0.00  0.00     0.008 A 
HETATM   17  C   UNK N   1      30.308  21.221  -4.357  0.00  0.00     0.015 A 
BRANCH  15  18
HETATM   18  C   UNK N   1      33.777  19.613  -4.453  0.00  0.00     0.034 C 
HETATM   19  C   UNK N   1      35.112  20.336  -4.359  0.00  0.00     0.010 C 
ENDBRANCH  15  18
ENDBRANCH   1  12
TORSDOF 5
ENDMDL
MODEL 3
REMARK VINA RESULT:      -5.9     10.045     13.585
REMARK  5 active torsions:
REMARK  status: ('A' for Active; 'I' for Inactive)
REMARK    1  A    between atoms: C_15  and  C_3 
REMARK    2  A    between atoms: C_14  and  C_13 
REMARK    3  A    between atoms: N_18  and  C_13 
REMARK    4  A    between atoms: C_17  and  C_14 
REMARK    5  A    between atoms: C_17  and  C_16 
ROOT
HETATM    1  C   UNK N   1      35.304  13.071  15.639  0.00  0.00     0.165 C 
HETATM    2  O   UNK N   1      34.199  13.024  15.123  0.00  0.00    -0.292 OA
ENDROOT
BRANCH   1   3
HETATM    3  C   UNK N   1      36.417  13.755  14.846  0.00  0.00     0.085 C 
HETATM    4  C   UNK N   1      37.133  14.912  15.529  0.00  0.00     0.020 C 
BRANCH   3   5
HETATM    5  C   UNK N   1      35.987  14.156  13.432  0.00  0.00     0.284 C 
BRANCH   5   6
HETATM    6  N   UNK N   1      36.862  13.518  12.454  0.00  0.00     0.089 N 
HETATM    7  C   UNK N   1      36.494  12.109  12.330  0.00  0.00     0.272 C 
HETATM    8  C   UNK N   1      37.455  11.414  11.362  0.00  0.00     0.030 C 
HETATM    9  C   UNK N   1      37.413  12.102   9.998  0.00  0.00     0.003 C 
HETATM   10  C   UNK N   1      37.646  13.602  10.144  0.00  0.00     0.030 C 
HETATM   11  C   UNK N   1      36.656  14.165  11.159  0.00  0.00     0.272 C 
ENDBRANCH   5   6
ENDBRANCH   3   5
ENDBRANCH   1   3
BRANCH   1  12
HETATM   12  C   UNK N   1      35.499  12.379  16.958  0.00  0.00     0.010 A 
HETATM   13  C   UNK N   1      35.933  11.050  17.052  0.00  0.00     0.015 A 
HETATM   14  C   UNK N   1      36.046  10.412  18.287  0.00  0.00     0.008 A 
HETATM   15  C   UNK N   1      35.716  11.089  19.462  0.00  0.00    -0.059 A 
HETATM   16  C   UNK N   1      35.290  12.424  19.388  0.00  0.00     0.008 A 
HETATM   17  C   UNK N   1      35.184  13.063  18.146  0.00  0.00     0.015 A 
BRANCH  15  18
HETATM   18  C   UNK N   1      35.820  10.350  20.766  0.00  0.00     0.034 C 
HETATM   19  C   UNK N   1      37.240  10.220  21.294  0.00  0.00     0.010 C 
ENDBRANCH  15  18
ENDBRANCH   1  12
TORSDOF 5
ENDMDL
MODEL 4
REMARK VINA RESULT:      -5.8      1.869      5.469
REMARK  5 active torsions:
REMARK  status: ('A' for Active; 'I' for Inactive)
REMARK    1  A    between atoms: C_15  and  C_3 
REMARK    2  A    between atoms: C_14  and  C_13 
REMARK    3  A    between atoms: N_18  and  C_13 
REMARK    4  A    between atoms: C_17  and  C_14 
REMARK    5  A    between atoms: C_17  and  C_16 
ROOT
HETATM    1  C   UNK N   1      30.842  17.119   8.160  0.00  0.00     0.165 C 
HETATM    2  O   UNK N   1      31.048  16.330   9.069  0.00  0.00    -0.292 OA
ENDROOT
BRANCH   1   3
HETATM    3  C   UNK N   1      29.846  18.247   8.427  0.00  0.00     0.085 C 
HETATM    4  C   UNK N   1      29.647  18.655   9.880  0.00  0.00     0.020 C 
BRANCH   3   5
HETATM    5  C   UNK N   1      28.493  18.026   7.747  0.00  0.00     0.284 C 
BRANCH   5   6
HETATM    6  N   UNK N   1      28.383  18.894   6.579  0.00  0.00     0.089 N 
HETATM    7  C   UNK N   1      27.801  18.136   5.472  0.00  0.00     0.272 C 
HETATM    8  C   UNK N   1      27.753  19.016   4.220  0.00  0.00     0.030 C 
HETATM    9  C   UNK N   1      26.933  20.276   4.498  0.00  0.00     0.003 C 
HETATM   10  C   UNK N   1      27.446  20.988   5.746  0.00  0.00     0.030 C 
HETATM   11  C   UNK N   1      27.483  19.999   6.906  0.00  0.00     0.272 C 
ENDBRANCH   5   6
ENDBRANCH   3   5
ENDBRANCH   1   3
BRANCH   1  12
HETATM   12  C   UNK N   1      31.507  16.864   6.838  0.00  0.00     0.010 A 
HETATM   13  C   UNK N   1      32.689  17.512   6.454  0.00  0.00     0.015 A 
HETATM   14  C   UNK N   1      33.251  17.303   5.195  0.00  0.00     0.008 A 
HETATM   15  C   UNK N   1      32.637  16.444   4.283  0.00  0.00    -0.059 A 
HETATM   16  C   UNK N   1      31.459  15.777   4.654  0.00  0.00     0.008 A 
HETATM   17  C   UNK N   1      30.901  15.986   5.921  0.00  0.00     0.015 A 
BRANCH  15  18
HETATM   18  C   UNK N   1      33.261  16.277   2.927  0.00  0.00     0.034 C 
HETATM   19  C   UNK N   1      33.730  14.861   2.629  0.00  0.00     0.010 C 
ENDBRANCH  15  18
ENDBRANCH   1  12
TORSDOF 5
ENDMDL
MODEL 5
REMARK VINA RESULT:      -5.8     10.920     13.047
REMARK  5 active torsions:
REMARK  status: ('A' for Active; 'I' for Inactive)
REMARK    1  A    between atoms: C_15  and  C_3 
REMARK    2  A    between atoms: C_14  and  C_13 
REMARK    3  A    between atoms: N_18  and  C_13 
REMARK    4  A    between atoms: C_17  and  C_14 
REMARK    5  A    between atoms: C_17  and  C_16 
ROOT
HETATM    1  C   UNK N   1      30.079  23.038  -2.660  0.00  0.00     0.165 C 
HETATM    2  O   UNK N   1      30.433  23.140  -1.495  0.00  0.00    -0.292 OA
ENDROOT
BRANCH   1   3
HETATM    3  C   UNK N   1      30.733  21.937  -3.494  0.00  0.00     0.085 C 
HETATM    4  C   UNK N   1      32.050  21.377  -2.977  0.00  0.00     0.020 C 
BRANCH   3   5
HETATM    5  C   UNK N   1      30.855  22.301  -4.976  0.00  0.00     0.284 C 
BRANCH   5   6
HETATM    6  N   UNK N   1      29.819  21.610  -5.738  0.00  0.00     0.089 N 
HETATM    7  C   UNK N   1      29.081  22.585  -6.537  0.00  0.00     0.272 C 
HETATM    8  C   UNK N   1      27.943  21.881  -7.281  0.00  0.00     0.030 C 
HETATM    9  C   UNK N   1      28.507  20.773  -8.172  0.00  0.00     0.003 C 
HETATM   10  C   UNK N   1      29.404  19.839  -7.365  0.00  0.00     0.030 C 
HETATM   11  C   UNK N   1      30.466  20.663  -6.645  0.00  0.00     0.272 C 
ENDBRANCH   5   6
ENDBRANCH   3   5
ENDBRANCH   1   3
BRANCH   1  12
HETATM   12  C   UNK N   1      29.108  24.051  -3.195  0.00  0.00     0.010 A 
HETATM   13  C   UNK N   1      27.725  23.829  -3.213  0.00  0.00     0.015 A 
HETATM   14  C   UNK N   1      26.851  24.760  -3.773  0.00  0.00     0.008 A 
HETATM   15  C   UNK N   1      27.343  25.937  -4.339  0.00  0.00    -0.059 A 
HETATM   16  C   UNK N   1      28.725  26.181  -4.319  0.00  0.00     0.008 A 
HETATM   17  C   UNK N   1      29.599  25.246  -3.751  0.00  0.00     0.015 A 
BRANCH  15  18
HETATM   18  C   UNK N   1      26.367  26.895  -4.960  0.00  0.00     0.034 C 
HETATM   19  C   UNK N   1      25.160  26.225  -5.599  0.00  0.00     0.010 C 
ENDBRANCH  15  18
ENDBRANCH   1  12
TORSDOF 5
ENDMDL
MODEL 6
REMARK VINA RESULT:      -5.8      2.568      6.474
REMARK  5 active torsions:
REMARK  status: ('A' for Active; 'I' for Inactive)
REMARK    1  A    between atoms: C_15  and  C_3 
REMARK    2  A    between atoms: C_14  and  C_13 
REMARK    3  A    between atoms: N_18  and  C_13 
REMARK    4  A    between atoms: C_17  and  C_14 
REMARK    5  A    between atoms: C_17  and  C_16 
ROOT
HETATM    1  C   UNK N   1      29.499  16.689   3.640  0.00  0.00     0.165 C 
HETATM    2  O   UNK N   1      29.668  16.434   2.458  0.00  0.00    -0.292 OA
ENDROOT
BRANCH   1   3
HETATM    3  C   UNK N   1      28.057  16.797   4.133  0.00  0.00     0.085 C 
HETATM    4  C   UNK N   1      27.133  15.633   3.803  0.00  0.00     0.020 C 
BRANCH   3   5
HETATM    5  C   UNK N   1      27.393  18.125   3.760  0.00  0.00     0.284 C 
BRANCH   5   6
HETATM    6  N   UNK N   1      27.683  19.123   4.784  0.00  0.00     0.089 N 
HETATM    7  C   UNK N   1      26.764  20.249   4.629  0.00  0.00     0.272 C 
HETATM    8  C   UNK N   1      27.110  21.335   5.651  0.00  0.00     0.030 C 
HETATM    9  C   UNK N   1      27.029  20.766   7.068  0.00  0.00     0.003 C 
HETATM   10  C   UNK N   1      27.870  19.500   7.188  0.00  0.00     0.030 C 
HETATM   11  C   UNK N   1      27.457  18.519   6.096  0.00  0.00     0.272 C 
ENDBRANCH   5   6
ENDBRANCH   3   5
ENDBRANCH   1   3
BRANCH   1  12
HETATM   12  C   UNK N   1      30.711  16.965   4.484  0.00  0.00     0.010 A 
HETATM   13  C   UNK N   1      31.952  17.305   3.928  0.00  0.00     0.015 A 
HETATM   14  C   UNK N   1      33.076  17.495   4.732  0.00  0.00     0.008 A 
HETATM   15  C   UNK N   1      32.986  17.341   6.116  0.00  0.00    -0.059 A 
HETATM   16  C   UNK N   1      31.749  17.012   6.691  0.00  0.00     0.008 A 
HETATM   17  C   UNK N   1      30.621  16.828   5.881  0.00  0.00     0.015 A 
BRANCH  15  18
HETATM   18  C   UNK N   1      34.231  17.522   6.937  0.00  0.00     0.034 C 
HETATM   19  C   UNK N   1      34.035  18.375   8.182  0.00  0.00     0.010 C 
ENDBRANCH  15  18
ENDBRANCH   1  12
TORSDOF 5
ENDMDL
MODEL 7
REMARK VINA RESULT:      -5.8      2.193      6.985
REMARK  5 active torsions:
REMARK  status: ('A' for Active; 'I' for Inactive)
REMARK    1  A    between atoms: C_15  and  C_3 
REMARK    2  A    between atoms: C_14  and  C_13 
REMARK    3  A    between atoms: N_18  and  C_13 
REMARK    4  A    between atoms: C_17  and  C_14 
REMARK    5  A    between atoms: C_17  and  C_16 
ROOT
HETATM    1  C   UNK N   1      30.713  17.134   7.622  0.00  0.00     0.165 C 
HETATM    2  O   UNK N   1      30.513  16.636   6.525  0.00  0.00    -0.292 OA
ENDROOT
BRANCH   1   3
HETATM    3  C   UNK N   1      29.683  18.142   8.129  0.00  0.00     0.085 C 
HETATM    4  C   UNK N   1      29.534  18.268   9.638  0.00  0.00     0.020 C 
BRANCH   3   5
HETATM    5  C   UNK N   1      28.311  17.981   7.471  0.00  0.00     0.284 C 
BRANCH   5   6
HETATM    6  N   UNK N   1      28.168  18.949   6.388  0.00  0.00     0.089 N 
HETATM    7  C   UNK N   1      27.418  18.337   5.293  0.00  0.00     0.272 C 
HETATM    8  C   UNK N   1      27.330  19.319   4.122  0.00  0.00     0.030 C 
HETATM    9  C   UNK N   1      26.657  20.615   4.575  0.00  0.00     0.003 C 
HETATM   10  C   UNK N   1      27.348  21.175   5.814  0.00  0.00     0.030 C 
HETATM   11  C   UNK N   1      27.407  20.093   6.887  0.00  0.00     0.272 C 
ENDBRANCH   5   6
ENDBRANCH   3   5
ENDBRANCH   1   3
BRANCH   1  12
HETATM   12  C   UNK N   1      31.988  16.786   8.334  0.00  0.00     0.010 A 
HETATM   13  C   UNK N   1      33.073  17.671   8.408  0.00  0.00     0.015 A 
HETATM   14  C   UNK N   1      34.268  17.299   9.022  0.00  0.00     0.008 A 
HETATM   15  C   UNK N   1      34.412  16.024   9.571  0.00  0.00    -0.059 A 
HETATM   16  C   UNK N   1      33.332  15.129   9.516  0.00  0.00     0.008 A 
HETATM   17  C   UNK N   1      32.131  15.508   8.904  0.00  0.00     0.015 A 
BRANCH  15  18
HETATM   18  C   UNK N   1      35.729  15.657  10.192  0.00  0.00     0.034 C 
HETATM   19  C   UNK N   1      35.719  15.649  11.713  0.00  0.00     0.010 C 
ENDBRANCH  15  18
ENDBRANCH   1  12
TORSDOF 5
ENDMDL
MODEL 8
REMARK VINA RESULT:      -5.7      9.038     12.623
REMARK  5 active torsions:
REMARK  status: ('A' for Active; 'I' for Inactive)
REMARK    1  A    between atoms: C_15  and  C_3 
REMARK    2  A    between atoms: C_14  and  C_13 
REMARK    3  A    between atoms: N_18  and  C_13 
REMARK    4  A    between atoms: C_17  and  C_14 
REMARK    5  A    between atoms: C_17  and  C_16 
ROOT
HETATM    1  C   UNK N   1      35.894  13.172  14.884  0.00  0.00     0.165 C 
HETATM    2  O   UNK N   1      36.767  14.001  14.675  0.00  0.00    -0.292 OA
ENDROOT
BRANCH   1   3
HETATM    3  C   UNK N   1      34.967  12.826  13.720  0.00  0.00     0.085 C 
HETATM    4  C   UNK N   1      34.310  11.454  13.753  0.00  0.00     0.020 C 
BRANCH   3   5
HETATM    5  C   UNK N   1      35.605  13.077  12.350  0.00  0.00     0.284 C 
BRANCH   5   6
HETATM    6  N   UNK N   1      34.977  14.234  11.721  0.00  0.00     0.089 N 
HETATM    7  C   UNK N   1      35.974  15.291  11.559  0.00  0.00     0.272 C 
HETATM    8  C   UNK N   1      35.307  16.536  10.970  0.00  0.00     0.030 C 
HETATM    9  C   UNK N   1      34.660  16.198   9.627  0.00  0.00     0.003 C 
HETATM   10  C   UNK N   1      33.733  14.995   9.765  0.00  0.00     0.030 C 
HETATM   11  C   UNK N   1      34.501  13.840  10.396  0.00  0.00     0.272 C 
ENDBRANCH   5   6
ENDBRANCH   3   5
ENDBRANCH   1   3
BRANCH   1  12
HETATM   12  C   UNK N   1      35.748  12.637  16.279  0.00  0.00     0.010 A 
HETATM   13  C   UNK N   1      35.995  11.294  16.598  0.00  0.00     0.015 A 
HETATM   14  C   UNK N   1      35.790  10.809  17.890  0.00  0.00     0.008 A 
HETATM   15  C   UNK N   1      35.324  11.657  18.895  0.00  0.00    -0.059 A 
HETATM   16  C   UNK N   1      35.083  13.007  18.596  0.00  0.00     0.008 A 
HETATM   17  C   UNK N   1      35.294  13.492  17.300  0.00  0.00     0.015 A 
BRANCH  15  18
HETATM   18  C   UNK N   1      35.087  11.083  20.262  0.00  0.00     0.034 C 
HETATM   19  C   UNK N   1      34.356   9.749  20.257  0.00  0.00     0.010 C 
ENDBRANCH  15  18
ENDBRANCH   1  12
TORSDOF 5
ENDMDL
MODEL 9
REMARK VINA RESULT:      -5.7      3.236      7.917
REMARK  5 active torsions:
REMARK  status: ('A' for Active; 'I' for Inactive)
REMARK    1  A    between atoms: C_15  and  C_3 
REMARK    2  A    between atoms: C_14  and  C_13 
REMARK    3  A    between atoms: N_18  and  C_13 
REMARK    4  A    between atoms: C_17  and  C_14 
REMARK    5  A    between atoms: C_17  and  C_16 
ROOT
HETATM    1  C   UNK N   1      34.194  17.119   7.294  0.00  0.00     0.165 C 
HETATM    2  O   UNK N   1      34.553  18.280   7.178  0.00  0.00    -0.292 OA
ENDROOT
BRANCH   1   3
HETATM    3  C   UNK N   1      33.160  16.603   6.294  0.00  0.00     0.085 C 
HETATM    4  C   UNK N   1      32.829  17.515   5.121  0.00  0.00     0.020 C 
BRANCH   3   5
HETATM    5  C   UNK N   1      31.875  16.107   6.962  0.00  0.00     0.284 C 
BRANCH   5   6
HETATM    6  N   UNK N   1      31.023  17.245   7.292  0.00  0.00     0.089 N 
HETATM    7  C   UNK N   1      29.659  16.968   6.844  0.00  0.00     0.272 C 
HETATM    8  C   UNK N   1      28.775  18.187   7.118  0.00  0.00     0.030 C 
HETATM    9  C   UNK N   1      28.792  18.523   8.609  0.00  0.00     0.003 C 
HETATM   10  C   UNK N   1      30.226  18.662   9.112  0.00  0.00     0.030 C 
HETATM   11  C   UNK N   1      31.009  17.406   8.746  0.00  0.00     0.272 C 
ENDBRANCH   5   6
ENDBRANCH   3   5
ENDBRANCH   1   3
BRANCH   1  12
HETATM   12  C   UNK N   1      34.724  16.328   8.456  0.00  0.00     0.010 A 
HETATM   13  C   UNK N   1      34.826  16.866   9.746  0.00  0.00     0.015 A 
HETATM   14  C   UNK N   1      35.380  16.131  10.794  0.00  0.00     0.008 A 
HETATM   15  C   UNK N   1      35.855  14.837  10.573  0.00  0.00    -0.059 A 
HETATM   16  C   UNK N   1      35.750  14.278   9.290  0.00  0.00     0.008 A 
HETATM   17  C   UNK N   1      35.188  15.018   8.242  0.00  0.00     0.015 A 
BRANCH  15  18
HETATM   18  C   UNK N   1      36.474  14.096  11.723  0.00  0.00     0.034 C 
HETATM   19  C   UNK N   1      35.608  14.054  12.973  0.00  0.00     0.010 C 
ENDBRANCH  15  18
ENDBRANCH   1  12
TORSDOF 5
ENDMDL
