REMARK  3 active torsions:
REMARK  status: ('A' for Active; 'I' for Inactive)
REMARK    1  A    between atoms: C_6  and  C_5 
REMARK    2  A    between atoms: C_12  and  C_5 
REMARK    3  A    between atoms: C_13  and  C_6 
ROOT
HETATM    1  C   UNK N   1       4.909   1.667  -0.081  0.00  0.00     0.001 A 
HETATM    2  C   UNK N   1       4.922   3.076   0.035  0.00  0.00     0.002 A 
HETATM    3  C   UNK N   1       3.689   0.972  -0.131  0.00  0.00     0.014 A 
HETATM    4  C   UNK N   1       3.713   3.798   0.104  0.00  0.00     0.030 A 
HETATM    5  C   UNK N   1       0.443   2.486   0.031  0.00  0.00     0.096 A 
HETATM    6  C   UNK N   1       1.207   1.325  -0.078  0.00  0.00    -0.030 A 
HETATM    7  C   UNK N   1       2.515   1.719  -0.059  0.00  0.00    -0.002 A 
HETATM    8  C   UNK N   1       2.525   3.076   0.055  0.00  0.00     0.042 A 
HETATM    9  N   UNK N   1       1.269   3.563   0.111  0.00  0.00    -0.365 N 
HETATM   10  H   UNK N   1       1.003   4.508   0.193  0.00  0.00     0.165 HD
ENDROOT
BRANCH   6  11
HETATM   11  C   UNK N   1       0.760  -0.091  -0.210  0.00  0.00     0.041 C 
BRANCH  11  12
HETATM   12  C   UNK N   1      -0.701  -0.358   0.116  0.00  0.00     0.009 C 
BRANCH  12  13
HETATM   13  C   UNK N   1      -1.032  -1.795  -0.279  0.00  0.00    -0.011 C 
HETATM   14  C   UNK N   1      -2.464  -2.154   0.099  0.00  0.00     0.024 C 
HETATM   15  C   UNK N   1      -2.740  -3.601  -0.318  0.00  0.00     0.114 C 
HETATM   16  N   UNK N   1      -1.804  -4.514   0.340  0.00  0.00    -0.421 N 
HETATM   17  C   UNK N   1      -0.445  -4.202  -0.098  0.00  0.00     0.114 C 
HETATM   18  H   UNK N   1      -2.059  -5.250   0.999  0.00  0.00     0.153 HD
HETATM   19  C   UNK N   1      -0.069  -2.799   0.360  0.00  0.00     0.024 C 
ENDBRANCH  12  13
ENDBRANCH  11  12
ENDBRANCH   6  11
TORSDOF 3
