MODEL 1
REMARK VINA RESULT:      -7.1      0.000      0.000
REMARK  3 active torsions:
REMARK  status: ('A' for Active; 'I' for Inactive)
REMARK    1  A    between atoms: C_19  and  C_12 
REMARK    2  A    between atoms: O_22  and  C_12 
REMARK    3  A    between atoms: C_18  and  C_19 
ROOT
HETATM    1  C   UNK N   1      28.294  27.044  -4.296  0.00  0.00     0.016 C 
HETATM    2  C   UNK N   1      28.255  23.244  -6.179  0.00  0.00     0.016 C 
HETATM    3  C   UNK N   1      27.984  28.327  -7.107  0.00  0.00     0.006 C 
HETATM    4  C   UNK N   1      27.395  27.147  -7.882  0.00  0.00     0.006 C 
HETATM    5  C   UNK N   1      27.601  24.197  -8.904  0.00  0.00     0.006 C 
HETATM    6  C   UNK N   1      27.172  22.732  -9.075  0.00  0.00     0.013 C 
HETATM    7  C   UNK N   1      26.380  29.050  -3.029  0.00  0.00     0.079 C 
HETATM    8  C   UNK N   1      26.236  24.968  -4.849  0.00  0.00     0.006 C 
HETATM    9  C   UNK N   1      25.955  27.830  -3.856  0.00  0.00     0.017 C 
HETATM   10  C   UNK N   1      25.862  23.683  -5.620  0.00  0.00     0.011 C 
HETATM   11  C   UNK N   1      27.752  29.846  -5.150  0.00  0.00     0.083 C 
HETATM   12  C   UNK N   1      27.126  28.657  -5.882  0.00  0.00     0.001 C 
HETATM   13  C   UNK N   1      27.235  30.065  -3.750  0.00  0.00     0.127 C 
HETATM   14  C   UNK N   1      27.326  25.921  -6.971  0.00  0.00    -0.005 C 
HETATM   15  C   UNK N   1      26.803  24.668  -7.704  0.00  0.00    -0.001 C 
HETATM   16  C   UNK N   1      26.398  26.220  -5.757  0.00  0.00    -0.002 C 
HETATM   17  C   UNK N   1      26.591  22.270  -7.726  0.00  0.00     0.066 C 
HETATM   18  C   UNK N   1      26.956  27.430  -4.948  0.00  0.00    -0.036 C 
HETATM   19  C   UNK N   1      26.847  23.455  -6.773  0.00  0.00    -0.030 C 
HETATM   20  O   UNK N   1      27.587  31.063  -3.147  0.00  0.00    -0.298 OA
ENDROOT
BRANCH  17  21
HETATM   21  C   UNK N   1      25.148  21.845  -7.881  0.00  0.00     0.154 C 
HETATM   22  O   UNK N   1      24.376  22.484  -8.577  0.00  0.00    -0.295 OA
BRANCH  21  23
HETATM   23  C   UNK N   1      24.656  20.620  -7.168  0.00  0.00     0.242 C 
BRANCH  23  24
HETATM   24  O   UNK N   1      23.587  20.951  -6.332  0.00  0.00    -0.394 OA
HETATM   25  H   UNK N   1      22.682  20.614  -6.431  0.00  0.00     0.209 HD
ENDBRANCH  23  24
ENDBRANCH  21  23
ENDBRANCH  17  21
TORSDOF 3
ENDMDL
MODEL 2
REMARK VINA RESULT:      -7.1      3.508      6.857
REMARK  3 active torsions:
REMARK  status: ('A' for Active; 'I' for Inactive)
REMARK    1  A    between atoms: C_19  and  C_12 
REMARK    2  A    between atoms: O_22  and  C_12 
REMARK    3  A    between atoms: C_18  and  C_19 
ROOT
HETATM    1  C   UNK N   1      30.073  21.746  -3.526  0.00  0.00     0.016 C 
HETATM    2  C   UNK N   1      26.687  24.295  -3.358  0.00  0.00     0.016 C 
HETATM    3  C   UNK N   1      29.395  21.211  -6.509  0.00  0.00     0.006 C 
HETATM    4  C   UNK N   1      28.546  22.444  -6.821  0.00  0.00     0.006 C 
HETATM    5  C   UNK N   1      26.045  24.234  -6.247  0.00  0.00     0.006 C 
HETATM    6  C   UNK N   1      25.285  25.517  -5.880  0.00  0.00     0.013 C 
HETATM    7  C   UNK N   1      33.065  21.861  -4.094  0.00  0.00     0.079 C 
HETATM    8  C   UNK N   1      29.601  24.672  -3.786  0.00  0.00     0.006 C 
HETATM    9  C   UNK N   1      32.073  22.997  -4.371  0.00  0.00     0.017 C 
HETATM   10  C   UNK N   1      28.574  25.811  -3.969  0.00  0.00     0.011 C 
HETATM   11  C   UNK N   1      31.580  20.352  -5.685  0.00  0.00     0.083 C 
HETATM   12  C   UNK N   1      30.770  21.617  -5.971  0.00  0.00     0.001 C 
HETATM   13  C   UNK N   1      32.804  20.568  -4.830  0.00  0.00     0.127 C 
HETATM   14  C   UNK N   1      28.363  23.274  -5.550  0.00  0.00    -0.005 C 
HETATM   15  C   UNK N   1      27.458  24.504  -5.771  0.00  0.00    -0.001 C 
HETATM   16  C   UNK N   1      29.752  23.754  -5.032  0.00  0.00    -0.002 C 
HETATM   17  C   UNK N   1      26.098  26.228  -4.783  0.00  0.00     0.066 C 
HETATM   18  C   UNK N   1      30.655  22.524  -4.717  0.00  0.00    -0.036 C 
HETATM   19  C   UNK N   1      27.234  25.239  -4.448  0.00  0.00    -0.030 C 
HETATM   20  O   UNK N   1      33.570  19.637  -4.661  0.00  0.00    -0.298 OA
ENDROOT
BRANCH  17  21
HETATM   21  C   UNK N   1      26.531  27.602  -5.241  0.00  0.00     0.154 C 
HETATM   22  O   UNK N   1      26.987  27.777  -6.359  0.00  0.00    -0.295 OA
BRANCH  21  23
HETATM   23  C   UNK N   1      26.400  28.769  -4.308  0.00  0.00     0.242 C 
BRANCH  23  24
HETATM   24  O   UNK N   1      25.475  28.475  -3.303  0.00  0.00    -0.394 OA
HETATM   25  H   UNK N   1      25.007  29.138  -2.770  0.00  0.00     0.209 HD
ENDBRANCH  23  24
ENDBRANCH  21  23
ENDBRANCH  17  21
TORSDOF 3
ENDMDL
MODEL 3
REMARK VINA RESULT:      -7.0     15.761     17.798
REMARK  3 active torsions:
REMARK  status: ('A' for Active; 'I' for Inactive)
REMARK    1  A    between atoms: C_19  and  C_12 
REMARK    2  A    between atoms: O_22  and  C_12 
REMARK    3  A    between atoms: C_18  and  C_19 
ROOT
HETATM    1  C   UNK N   1      29.860  17.467   4.832  0.00  0.00     0.016 C 
HETATM    2  C   UNK N   1      33.812  17.553   6.371  0.00  0.00     0.016 C 
HETATM    3  C   UNK N   1      30.087  14.371   4.704  0.00  0.00     0.006 C 
HETATM    4  C   UNK N   1      31.206  14.138   5.720  0.00  0.00     0.006 C 
HETATM    5  C   UNK N   1      34.142  14.628   6.685  0.00  0.00     0.006 C 
HETATM    6  C   UNK N   1      35.252  15.079   7.646  0.00  0.00     0.013 C 
HETATM    7  C   UNK N   1      26.972  17.344   5.798  0.00  0.00     0.079 C 
HETATM    8  C   UNK N   1      31.083  17.596   7.541  0.00  0.00     0.006 C 
HETATM    9  C   UNK N   1      28.205  17.109   6.679  0.00  0.00     0.017 C 
HETATM   10  C   UNK N   1      32.359  17.449   8.398  0.00  0.00     0.011 C 
HETATM   11  C   UNK N   1      27.837  15.349   4.285  0.00  0.00     0.083 C 
HETATM   12  C   UNK N   1      28.930  15.151   5.337  0.00  0.00     0.001 C 
HETATM   13  C   UNK N   1      26.803  16.388   4.641  0.00  0.00     0.127 C 
HETATM   14  C   UNK N   1      31.725  15.484   6.227  0.00  0.00    -0.005 C 
HETATM   15  C   UNK N   1      32.905  15.331   7.209  0.00  0.00    -0.001 C 
HETATM   16  C   UNK N   1      30.574  16.257   6.937  0.00  0.00    -0.002 C 
HETATM   17  C   UNK N   1      34.768  16.374   8.322  0.00  0.00     0.066 C 
HETATM   18  C   UNK N   1      29.403  16.501   5.938  0.00  0.00    -0.036 C 
HETATM   19  C   UNK N   1      33.443  16.707   7.607  0.00  0.00    -0.030 C 
HETATM   20  O   UNK N   1      25.832  16.516   3.918  0.00  0.00    -0.298 OA
ENDROOT
BRANCH  17  21
HETATM   21  C   UNK N   1      34.684  16.197   9.822  0.00  0.00     0.154 C 
HETATM   22  O   UNK N   1      35.000  17.100  10.580  0.00  0.00    -0.295 OA
BRANCH  21  23
HETATM   23  C   UNK N   1      34.206  14.893  10.387  0.00  0.00     0.242 C 
BRANCH  23  24
HETATM   24  O   UNK N   1      32.979  15.072  11.031  0.00  0.00    -0.394 OA
HETATM   25  H   UNK N   1      32.460  15.892  11.017  0.00  0.00     0.209 HD
ENDBRANCH  23  24
ENDBRANCH  21  23
ENDBRANCH  17  21
TORSDOF 3
ENDMDL
MODEL 4
REMARK VINA RESULT:      -7.0     26.756     28.469
REMARK  3 active torsions:
REMARK  status: ('A' for Active; 'I' for Inactive)
REMARK    1  A    between atoms: C_19  and  C_12 
REMARK    2  A    between atoms: O_22  and  C_12 
REMARK    3  A    between atoms: C_18  and  C_19 
ROOT
HETATM    1  C   UNK N   1      36.586   9.653  18.339  0.00  0.00     0.016 C 
HETATM    2  C   UNK N   1      37.733  11.598  14.749  0.00  0.00     0.016 C 
HETATM    3  C   UNK N   1      35.477  12.376  19.340  0.00  0.00     0.006 C 
HETATM    4  C   UNK N   1      35.279  13.097  18.006  0.00  0.00     0.006 C 
HETATM    5  C   UNK N   1      36.441  14.200  15.318  0.00  0.00     0.006 C 
HETATM    6  C   UNK N   1      36.570  14.348  13.794  0.00  0.00     0.013 C 
HETATM    7  C   UNK N   1      34.236   8.115  19.522  0.00  0.00     0.079 C 
HETATM    8  C   UNK N   1      35.397   9.991  15.633  0.00  0.00     0.006 C 
HETATM    9  C   UNK N   1      34.197   8.909  18.211  0.00  0.00     0.017 C 
HETATM   10  C   UNK N   1      35.437  10.737  14.281  0.00  0.00     0.011 C 
HETATM   11  C   UNK N   1      34.939  10.373  20.715  0.00  0.00     0.083 C 
HETATM   12  C   UNK N   1      34.716  11.047  19.360  0.00  0.00     0.001 C 
HETATM   13  C   UNK N   1      34.555   8.915  20.763  0.00  0.00     0.127 C 
HETATM   14  C   UNK N   1      35.785  12.212  16.866  0.00  0.00    -0.005 C 
HETATM   15  C   UNK N   1      35.679  12.900  15.490  0.00  0.00    -0.001 C 
HETATM   16  C   UNK N   1      34.969  10.885  16.831  0.00  0.00    -0.002 C 
HETATM   17  C   UNK N   1      36.374  12.948  13.185  0.00  0.00     0.066 C 
HETATM   18  C   UNK N   1      35.132  10.126  18.183  0.00  0.00    -0.036 C 
HETATM   19  C   UNK N   1      36.286  12.008  14.405  0.00  0.00    -0.030 C 
HETATM   20  O   UNK N   1      34.582   8.339  21.836  0.00  0.00    -0.298 OA
ENDROOT
BRANCH  17  21
HETATM   21  C   UNK N   1      35.185  12.931  12.250  0.00  0.00     0.154 C 
HETATM   22  O   UNK N   1      34.265  13.721  12.390  0.00  0.00    -0.295 OA
BRANCH  21  23
HETATM   23  C   UNK N   1      35.135  11.929  11.135  0.00  0.00     0.242 C 
BRANCH  23  24
HETATM   24  O   UNK N   1      33.914  11.250  11.157  0.00  0.00    -0.394 OA
HETATM   25  H   UNK N   1      33.703  10.508  11.746  0.00  0.00     0.209 HD
ENDBRANCH  23  24
ENDBRANCH  21  23
ENDBRANCH  17  21
TORSDOF 3
ENDMDL
MODEL 5
REMARK VINA RESULT:      -6.8      4.269      7.065
REMARK  3 active torsions:
REMARK  status: ('A' for Active; 'I' for Inactive)
REMARK    1  A    between atoms: C_19  and  C_12 
REMARK    2  A    between atoms: O_22  and  C_12 
REMARK    3  A    between atoms: C_18  and  C_19 
ROOT
HETATM    1  C   UNK N   1      32.698  22.894  -5.351  0.00  0.00     0.016 C 
HETATM    2  C   UNK N   1      29.322  25.318  -6.193  0.00  0.00     0.016 C 
HETATM    3  C   UNK N   1      31.380  22.181  -2.631  0.00  0.00     0.006 C 
HETATM    4  C   UNK N   1      29.917  22.493  -2.947  0.00  0.00     0.006 C 
HETATM    5  C   UNK N   1      27.707  24.517  -3.845  0.00  0.00     0.006 C 
HETATM    6  C   UNK N   1      26.567  25.063  -4.719  0.00  0.00     0.013 C 
HETATM    7  C   UNK N   1      33.696  20.043  -5.762  0.00  0.00     0.079 C 
HETATM    8  C   UNK N   1      30.152  22.544  -6.849  0.00  0.00     0.006 C 
HETATM    9  C   UNK N   1      32.258  20.516  -6.006  0.00  0.00     0.017 C 
HETATM   10  C   UNK N   1      28.740  23.090  -7.157  0.00  0.00     0.011 C 
HETATM   11  C   UNK N   1      33.409  20.887  -3.268  0.00  0.00     0.083 C 
HETATM   12  C   UNK N   1      31.951  21.171  -3.632  0.00  0.00     0.001 C 
HETATM   13  C   UNK N   1      34.204  20.198  -4.348  0.00  0.00     0.127 C 
HETATM   14  C   UNK N   1      29.811  23.071  -4.358  0.00  0.00    -0.005 C 
HETATM   15  C   UNK N   1      28.368  23.475  -4.726  0.00  0.00    -0.001 C 
HETATM   16  C   UNK N   1      30.322  22.025  -5.394  0.00  0.00    -0.002 C 
HETATM   17  C   UNK N   1      26.920  24.732  -6.181  0.00  0.00     0.066 C 
HETATM   18  C   UNK N   1      31.809  21.666  -5.096  0.00  0.00    -0.036 C 
HETATM   19  C   UNK N   1      28.339  24.133  -6.106  0.00  0.00    -0.030 C 
HETATM   20  O   UNK N   1      35.334  19.823  -4.092  0.00  0.00    -0.298 OA
ENDROOT
BRANCH  17  21
HETATM   21  C   UNK N   1      25.860  23.850  -6.801  0.00  0.00     0.154 C 
HETATM   22  O   UNK N   1      25.308  22.978  -6.150  0.00  0.00    -0.295 OA
BRANCH  21  23
HETATM   23  C   UNK N   1      25.481  24.048  -8.239  0.00  0.00     0.242 C 
BRANCH  23  24
HETATM   24  O   UNK N   1      24.442  23.181  -8.583  0.00  0.00    -0.394 OA
HETATM   25  H   UNK N   1      24.426  22.229  -8.391  0.00  0.00     0.209 HD
ENDBRANCH  23  24
ENDBRANCH  21  23
ENDBRANCH  17  21
TORSDOF 3
ENDMDL
MODEL 6
REMARK VINA RESULT:      -6.8      3.130      6.786
REMARK  3 active torsions:
REMARK  status: ('A' for Active; 'I' for Inactive)
REMARK    1  A    between atoms: C_19  and  C_12 
REMARK    2  A    between atoms: O_22  and  C_12 
REMARK    3  A    between atoms: C_18  and  C_19 
ROOT
HETATM    1  C   UNK N   1      29.249  22.351  -5.766  0.00  0.00     0.016 C 
HETATM    2  C   UNK N   1      26.446  25.493  -6.270  0.00  0.00     0.016 C 
HETATM    3  C   UNK N   1      31.509  24.429  -6.236  0.00  0.00     0.006 C 
HETATM    4  C   UNK N   1      30.768  25.721  -5.890  0.00  0.00     0.006 C 
HETATM    5  C   UNK N   1      28.404  27.710  -6.387  0.00  0.00     0.006 C 
HETATM    6  C   UNK N   1      27.159  28.536  -6.030  0.00  0.00     0.013 C 
HETATM    7  C   UNK N   1      30.823  20.946  -3.566  0.00  0.00     0.079 C 
HETATM    8  C   UNK N   1      27.747  24.169  -3.952  0.00  0.00     0.006 C 
HETATM    9  C   UNK N   1      30.048  22.258  -3.392  0.00  0.00     0.017 C 
HETATM   10  C   UNK N   1      26.885  25.443  -3.813  0.00  0.00     0.011 C 
HETATM   11  C   UNK N   1      32.208  22.168  -5.464  0.00  0.00     0.083 C 
HETATM   12  C   UNK N   1      31.446  23.435  -5.072  0.00  0.00     0.001 C 
HETATM   13  C   UNK N   1      31.941  20.976  -4.581  0.00  0.00     0.127 C 
HETATM   14  C   UNK N   1      29.305  25.403  -5.580  0.00  0.00    -0.005 C 
HETATM   15  C   UNK N   1      28.473  26.669  -5.287  0.00  0.00    -0.001 C 
HETATM   16  C   UNK N   1      29.224  24.449  -4.351  0.00  0.00    -0.002 C 
HETATM   17  C   UNK N   1      26.290  27.667  -5.102  0.00  0.00     0.066 C 
HETATM   18  C   UNK N   1      29.983  23.123  -4.658  0.00  0.00    -0.036 C 
HETATM   19  C   UNK N   1      27.004  26.300  -5.079  0.00  0.00    -0.030 C 
HETATM   20  O   UNK N   1      32.603  19.966  -4.747  0.00  0.00    -0.298 OA
ENDROOT
BRANCH  17  21
HETATM   21  C   UNK N   1      26.101  28.338  -3.760  0.00  0.00     0.154 C 
HETATM   22  O   UNK N   1      25.326  27.885  -2.934  0.00  0.00    -0.295 OA
BRANCH  21  23
HETATM   23  C   UNK N   1      26.878  29.580  -3.438  0.00  0.00     0.242 C 
BRANCH  23  24
HETATM   24  O   UNK N   1      26.031  30.691  -3.452  0.00  0.00    -0.394 OA
HETATM   25  H   UNK N   1      25.155  30.725  -3.034  0.00  0.00     0.209 HD
ENDBRANCH  23  24
ENDBRANCH  21  23
ENDBRANCH  17  21
TORSDOF 3
ENDMDL
MODEL 7
REMARK VINA RESULT:      -6.7     16.168     17.800
REMARK  3 active torsions:
REMARK  status: ('A' for Active; 'I' for Inactive)
REMARK    1  A    between atoms: C_19  and  C_12 
REMARK    2  A    between atoms: O_22  and  C_12 
REMARK    3  A    between atoms: C_18  and  C_19 
ROOT
HETATM    1  C   UNK N   1      35.452  14.883   8.184  0.00  0.00     0.016 C 
HETATM    2  C   UNK N   1      34.057  14.915   4.179  0.00  0.00     0.016 C 
HETATM    3  C   UNK N   1      34.646  17.877   8.381  0.00  0.00     0.006 C 
HETATM    4  C   UNK N   1      33.620  17.957   7.249  0.00  0.00     0.006 C 
HETATM    5  C   UNK N   1      32.882  17.631   4.226  0.00  0.00     0.006 C 
HETATM    6  C   UNK N   1      32.115  17.081   3.015  0.00  0.00     0.013 C 
HETATM    7  C   UNK N   1      34.459  14.299  11.006  0.00  0.00     0.079 C 
HETATM    8  C   UNK N   1      32.921  14.136   6.810  0.00  0.00     0.006 C 
HETATM    9  C   UNK N   1      33.563  14.437   9.770  0.00  0.00     0.017 C 
HETATM   10  C   UNK N   1      32.075  14.204   5.520  0.00  0.00     0.011 C 
HETATM   11  C   UNK N   1      35.313  16.754  10.499  0.00  0.00     0.083 C 
HETATM   12  C   UNK N   1      34.263  16.787   9.387  0.00  0.00     0.001 C 
HETATM   13  C   UNK N   1      35.274  15.519  11.364  0.00  0.00     0.127 C 
HETATM   14  C   UNK N   1      33.547  16.611   6.528  0.00  0.00    -0.005 C 
HETATM   15  C   UNK N   1      32.579  16.634   5.328  0.00  0.00    -0.001 C 
HETATM   16  C   UNK N   1      33.088  15.506   7.526  0.00  0.00    -0.002 C 
HETATM   17  C   UNK N   1      31.853  15.588   3.284  0.00  0.00     0.066 C 
HETATM   18  C   UNK N   1      34.102  15.402   8.706  0.00  0.00    -0.036 C 
HETATM   19  C   UNK N   1      32.620  15.295   4.590  0.00  0.00    -0.030 C 
HETATM   20  O   UNK N   1      35.990  15.472  12.348  0.00  0.00    -0.298 OA
ENDROOT
BRANCH  17  21
HETATM   21  C   UNK N   1      30.369  15.300   3.309  0.00  0.00     0.154 C 
HETATM   22  O   UNK N   1      29.591  16.055   3.871  0.00  0.00    -0.295 OA
BRANCH  21  23
HETATM   23  C   UNK N   1      29.843  14.068   2.635  0.00  0.00     0.242 C 
BRANCH  23  24
HETATM   24  O   UNK N   1      28.754  14.394   1.823  0.00  0.00    -0.394 OA
HETATM   25  H   UNK N   1      28.629  15.250   1.382  0.00  0.00     0.209 HD
ENDBRANCH  23  24
ENDBRANCH  21  23
ENDBRANCH  17  21
TORSDOF 3
ENDMDL
MODEL 8
REMARK VINA RESULT:      -6.6      3.525      4.806
REMARK  3 active torsions:
REMARK  status: ('A' for Active; 'I' for Inactive)
REMARK    1  A    between atoms: C_19  and  C_12 
REMARK    2  A    between atoms: O_22  and  C_12 
REMARK    3  A    between atoms: C_18  and  C_19 
ROOT
HETATM    1  C   UNK N   1      28.728  28.131  -5.343  0.00  0.00     0.016 C 
HETATM    2  C   UNK N   1      30.877  24.570  -6.174  0.00  0.00     0.016 C 
HETATM    3  C   UNK N   1      26.169  26.396  -5.048  0.00  0.00     0.006 C 
HETATM    4  C   UNK N   1      26.796  25.032  -4.757  0.00  0.00     0.006 C 
HETATM    5  C   UNK N   1      28.677  22.676  -5.595  0.00  0.00     0.006 C 
HETATM    6  C   UNK N   1      29.852  21.695  -5.462  0.00  0.00     0.013 C 
HETATM    7  C   UNK N   1      27.953  29.903  -2.988  0.00  0.00     0.079 C 
HETATM    8  C   UNK N   1      30.382  26.230  -3.762  0.00  0.00     0.006 C 
HETATM    9  C   UNK N   1      28.567  28.503  -2.870  0.00  0.00     0.017 C 
HETATM   10  C   UNK N   1      31.076  24.851  -3.702  0.00  0.00     0.011 C 
HETATM   11  C   UNK N   1      25.990  28.783  -4.368  0.00  0.00     0.083 C 
HETATM   12  C   UNK N   1      26.652  27.444  -4.040  0.00  0.00     0.001 C 
HETATM   13  C   UNK N   1      26.623  29.978  -3.699  0.00  0.00     0.127 C 
HETATM   14  C   UNK N   1      28.319  25.142  -4.838  0.00  0.00    -0.005 C 
HETATM   15  C   UNK N   1      29.023  23.786  -4.622  0.00  0.00    -0.001 C 
HETATM   16  C   UNK N   1      28.829  26.152  -3.768  0.00  0.00    -0.002 C 
HETATM   17  C   UNK N   1      31.032  22.481  -4.861  0.00  0.00     0.066 C 
HETATM   18  C   UNK N   1      28.199  27.555  -4.019  0.00  0.00    -0.036 C 
HETATM   19  C   UNK N   1      30.533  23.940  -4.809  0.00  0.00    -0.030 C 
HETATM   20  O   UNK N   1      26.080  31.062  -3.806  0.00  0.00    -0.298 OA
ENDROOT
BRANCH  17  21
HETATM   21  C   UNK N   1      31.459  21.880  -3.541  0.00  0.00     0.154 C 
HETATM   22  O   UNK N   1      30.664  21.743  -2.625  0.00  0.00    -0.295 OA
BRANCH  21  23
HETATM   23  C   UNK N   1      32.882  21.446  -3.352  0.00  0.00     0.242 C 
BRANCH  23  24
HETATM   24  O   UNK N   1      33.084  21.027  -2.034  0.00  0.00    -0.394 OA
HETATM   25  H   UNK N   1      33.611  20.256  -1.772  0.00  0.00     0.209 HD
ENDBRANCH  23  24
ENDBRANCH  21  23
ENDBRANCH  17  21
TORSDOF 3
ENDMDL
MODEL 9
REMARK VINA RESULT:      -6.5     15.651     18.250
REMARK  3 active torsions:
REMARK  status: ('A' for Active; 'I' for Inactive)
REMARK    1  A    between atoms: C_19  and  C_12 
REMARK    2  A    between atoms: O_22  and  C_12 
REMARK    3  A    between atoms: C_18  and  C_19 
ROOT
HETATM    1  C   UNK N   1      22.241  11.864   8.108  0.00  0.00     0.016 C 
HETATM    2  C   UNK N   1      21.871  13.203   4.101  0.00  0.00     0.016 C 
HETATM    3  C   UNK N   1      24.958  13.363   8.250  0.00  0.00     0.006 C 
HETATM    4  C   UNK N   1      24.772  14.371   7.115  0.00  0.00     0.006 C 
HETATM    5  C   UNK N   1      24.228  14.992   4.097  0.00  0.00     0.006 C 
HETATM    6  C   UNK N   1      23.490  15.599   2.894  0.00  0.00     0.013 C 
HETATM    7  C   UNK N   1      21.484  12.705  10.938  0.00  0.00     0.079 C 
HETATM    8  C   UNK N   1      20.887  14.134   6.743  0.00  0.00     0.006 C 
HETATM    9  C   UNK N   1      21.383  13.601   9.697  0.00  0.00     0.017 C 
HETATM   10  C   UNK N   1      20.730  14.965   5.450  0.00  0.00     0.011 C 
HETATM   11  C   UNK N   1      24.063  12.459  10.389  0.00  0.00     0.083 C 
HETATM   12  C   UNK N   1      23.825  13.480   9.275  0.00  0.00     0.001 C 
HETATM   13  C   UNK N   1      22.869  12.207  11.275  0.00  0.00     0.127 C 
HETATM   14  C   UNK N   1      23.436  14.117   6.418  0.00  0.00    -0.005 C 
HETATM   15  C   UNK N   1      23.207  15.055   5.216  0.00  0.00    -0.001 C 
HETATM   16  C   UNK N   1      22.270  14.304   7.434  0.00  0.00    -0.002 C 
HETATM   17  C   UNK N   1      21.983  15.498   3.190  0.00  0.00     0.066 C 
HETATM   18  C   UNK N   1      22.431  13.302   8.617  0.00  0.00    -0.036 C 
HETATM   19  C   UNK N   1      21.903  14.691   4.502  0.00  0.00    -0.030 C 
HETATM   20  O   UNK N   1      23.012  11.506  12.261  0.00  0.00    -0.298 OA
ENDROOT
BRANCH  17  21
HETATM   21  C   UNK N   1      21.349  16.871   3.218  0.00  0.00     0.154 C 
HETATM   22  O   UNK N   1      21.877  17.796   3.814  0.00  0.00    -0.295 OA
BRANCH  21  23
HETATM   23  C   UNK N   1      20.050  17.101   2.503  0.00  0.00     0.242 C 
BRANCH  23  24
HETATM   24  O   UNK N   1      19.048  17.421   3.422  0.00  0.00    -0.394 OA
HETATM   25  H   UNK N   1      19.113  18.121   4.091  0.00  0.00     0.209 HD
ENDBRANCH  23  24
ENDBRANCH  21  23
ENDBRANCH  17  21
TORSDOF 3
ENDMDL
