MODEL 1
REMARK VINA RESULT:      -6.5      0.000      0.000
REMARK  6 active torsions:
REMARK  status: ('A' for Active; 'I' for Inactive)
REMARK    1  A    between atoms: C_7  and  C_6 
REMARK    2  A    between atoms: N_15  and  C_6 
REMARK    3  A    between atoms: C_12  and  C_8 
REMARK    4  A    between atoms: N_15  and  C_10 
REMARK    5  A    between atoms: S_25  and  C_11 
REMARK    6  A    between atoms: S_25  and  N_14 
ROOT
HETATM    1  C   UNK N   1      31.200  17.435   8.227  0.00  0.00     0.044 A 
HETATM    2  C   UNK N   1      31.670  16.947   5.523  0.00  0.00     0.055 A 
HETATM    3  C   UNK N   1      32.504  17.168   7.799  0.00  0.00     0.038 A 
HETATM    4  C   UNK N   1      30.371  17.185   5.960  0.00  0.00     0.059 A 
HETATM    5  C   UNK N   1      32.739  16.956   6.426  0.00  0.00     0.044 A 
HETATM    6  C   UNK N   1      30.139  17.463   7.318  0.00  0.00     0.102 A 
HETATM    7 Cl   UNK N   1      29.076  17.195   4.773  0.00  0.00    -0.083 Cl
ENDROOT
BRANCH   3   8
HETATM    8  C   UNK N   1      33.612  17.204   8.787  0.00  0.00     0.146 A 
HETATM    9  N   UNK N   1      33.707  16.392   9.853  0.00  0.00    -0.271 N 
HETATM   10  N   UNK N   1      34.809  16.767  10.486  0.00  0.00    -0.225 N 
ATOM     11  HN  UNK N   1      33.066  15.644  10.119  1.00  0.00     0.190 HD
HETATM   12  N   UNK N   1      35.373  17.771   9.834  0.00  0.00    -0.005 NA
HETATM   13  H   UNK N   1      35.156  16.362  11.314  0.00  0.00     0.205 HD
HETATM   14  N   UNK N   1      34.645  18.065   8.768  0.00  0.00    -0.266 N 
ATOM     15  HN  UNK N   1      34.830  18.793   8.077  1.00  0.00     0.186 HD
ENDBRANCH   3   8
BRANCH   5  16
HETATM   16  N   UNK N   1      34.059  16.822   5.957  0.00  0.00    -0.384 N 
HETATM   17  H   UNK N   1      34.664  17.596   6.019  0.00  0.00     0.160 HD
BRANCH  16  18
HETATM   18  C   UNK N   1      34.559  15.601   5.391  0.00  0.00     0.166 C 
BRANCH  18  19
HETATM   19  C   UNK N   1      34.695  14.636   6.497  0.00  0.00    -0.000 A 
HETATM   20  C   UNK N   1      35.776  14.554   7.360  0.00  0.00     0.017 A 
HETATM   21  C   UNK N   1      35.686  13.440   8.239  0.00  0.00     0.008 A 
HETATM   22  C   UNK N   1      34.540  12.651   8.053  0.00  0.00     0.050 A 
HETATM   23  S   UNK N   1      33.692  13.365   6.821  0.00  0.00    -0.105 SA
ENDBRANCH  18  19
ENDBRANCH  16  18
ENDBRANCH   5  16
BRANCH   6  24
HETATM   24  S   UNK N   1      28.529  17.987   7.893  0.00  0.00     0.258 S 
HETATM   25  O   UNK N   1      28.124  19.321   7.246  0.00  0.00    -0.201 OA
HETATM   26  O   UNK N   1      28.546  18.375   9.379  0.00  0.00    -0.201 OA
BRANCH  24  27
HETATM   27  N   UNK N   1      27.129  16.934   7.697  0.00  0.00    -0.324 N 
HETATM   28  H   UNK N   1      26.923  16.025   7.284  0.00  0.00     0.169 HD
HETATM   29  H   UNK N   1      26.293  17.350   8.109  0.00  0.00     0.169 HD
ENDBRANCH  24  27
ENDBRANCH   6  24
TORSDOF 6
ENDMDL
MODEL 2
REMARK VINA RESULT:      -6.4      6.088      8.428
REMARK  6 active torsions:
REMARK  status: ('A' for Active; 'I' for Inactive)
REMARK    1  A    between atoms: C_7  and  C_6 
REMARK    2  A    between atoms: N_15  and  C_6 
REMARK    3  A    between atoms: C_12  and  C_8 
REMARK    4  A    between atoms: N_15  and  C_10 
REMARK    5  A    between atoms: S_25  and  C_11 
REMARK    6  A    between atoms: S_25  and  N_14 
ROOT
HETATM    1  C   UNK N   1      23.962  19.534   3.876  0.00  0.00     0.044 A 
HETATM    2  C   UNK N   1      23.469  16.811   4.210  0.00  0.00     0.055 A 
HETATM    3  C   UNK N   1      25.000  18.700   4.305  0.00  0.00     0.038 A 
HETATM    4  C   UNK N   1      22.434  17.650   3.812  0.00  0.00     0.059 A 
HETATM    5  C   UNK N   1      24.752  17.320   4.439  0.00  0.00     0.044 A 
HETATM    6  C   UNK N   1      22.691  19.017   3.612  0.00  0.00     0.102 A 
HETATM    7 Cl   UNK N   1      20.853  16.945   3.507  0.00  0.00    -0.083 Cl
ENDROOT
BRANCH   3   8
HETATM    8  C   UNK N   1      26.351  19.279   4.519  0.00  0.00     0.146 A 
HETATM    9  N   UNK N   1      27.363  19.194   3.640  0.00  0.00    -0.271 N 
HETATM   10  N   UNK N   1      28.387  19.804   4.219  0.00  0.00    -0.225 N 
ATOM     11  HN  UNK N   1      27.347  18.753   2.720  1.00  0.00     0.190 HD
HETATM   12  N   UNK N   1      28.019  20.249   5.410  0.00  0.00    -0.005 NA
HETATM   13  H   UNK N   1      29.283  19.909   3.826  0.00  0.00     0.205 HD
HETATM   14  N   UNK N   1      26.752  19.935   5.623  0.00  0.00    -0.266 N 
ATOM     15  HN  UNK N   1      26.195  20.146   6.452  1.00  0.00     0.186 HD
ENDBRANCH   3   8
BRANCH   5  16
HETATM   16  N   UNK N   1      25.815  16.446   4.736  0.00  0.00    -0.384 N 
HETATM   17  H   UNK N   1      26.386  16.129   3.999  0.00  0.00     0.160 HD
BRANCH  16  18
HETATM   18  C   UNK N   1      26.100  15.999   6.069  0.00  0.00     0.166 C 
BRANCH  18  19
HETATM   19  C   UNK N   1      27.488  16.395   6.370  0.00  0.00    -0.000 A 
HETATM   20  C   UNK N   1      27.893  17.111   7.485  0.00  0.00     0.017 A 
HETATM   21  C   UNK N   1      29.271  17.460   7.436  0.00  0.00     0.008 A 
HETATM   22  C   UNK N   1      29.934  17.024   6.278  0.00  0.00     0.050 A 
HETATM   23  S   UNK N   1      28.795  16.226   5.375  0.00  0.00    -0.105 SA
ENDBRANCH  18  19
ENDBRANCH  16  18
ENDBRANCH   5  16
BRANCH   6  24
HETATM   24  S   UNK N   1      21.458  20.096   2.895  0.00  0.00     0.258 S 
HETATM   25  O   UNK N   1      22.052  21.481   2.595  0.00  0.00    -0.201 OA
HETATM   26  O   UNK N   1      20.356  20.460   3.901  0.00  0.00    -0.201 OA
BRANCH  24  27
HETATM   27  N   UNK N   1      20.613  19.625   1.421  0.00  0.00    -0.324 N 
HETATM   28  H   UNK N   1      19.867  19.992   0.831  0.00  0.00     0.169 HD
HETATM   29  H   UNK N   1      20.969  18.740   1.058  0.00  0.00     0.169 HD
ENDBRANCH  24  27
ENDBRANCH   6  24
TORSDOF 6
ENDMDL
MODEL 3
REMARK VINA RESULT:      -6.4      1.531      2.189
REMARK  6 active torsions:
REMARK  status: ('A' for Active; 'I' for Inactive)
REMARK    1  A    between atoms: C_7  and  C_6 
REMARK    2  A    between atoms: N_15  and  C_6 
REMARK    3  A    between atoms: C_12  and  C_8 
REMARK    4  A    between atoms: N_15  and  C_10 
REMARK    5  A    between atoms: S_25  and  C_11 
REMARK    6  A    between atoms: S_25  and  N_14 
ROOT
HETATM    1  C   UNK N   1      31.126  17.543   8.257  0.00  0.00     0.044 A 
HETATM    2  C   UNK N   1      31.420  17.084   5.524  0.00  0.00     0.055 A 
HETATM    3  C   UNK N   1      32.406  17.323   7.737  0.00  0.00     0.038 A 
HETATM    4  C   UNK N   1      30.148  17.275   6.053  0.00  0.00     0.059 A 
HETATM    5  C   UNK N   1      32.550  17.125   6.350  0.00  0.00     0.044 A 
HETATM    6  C   UNK N   1      30.004  17.539   7.426  0.00  0.00     0.102 A 
HETATM    7 Cl   UNK N   1      28.773  17.245   4.960  0.00  0.00    -0.083 Cl
ENDROOT
BRANCH   3   8
HETATM    8  C   UNK N   1      33.578  17.393   8.645  0.00  0.00     0.146 A 
HETATM    9  N   UNK N   1      33.761  16.601   9.714  0.00  0.00    -0.271 N 
HETATM   10  N   UNK N   1      34.898  17.003  10.263  0.00  0.00    -0.225 N 
ATOM     11  HN  UNK N   1      33.152  15.848  10.037  1.00  0.00     0.190 HD
HETATM   12  N   UNK N   1      35.398  18.004   9.557  0.00  0.00    -0.005 NA
HETATM   13  H   UNK N   1      35.308  16.618  11.071  0.00  0.00     0.205 HD
HETATM   14  N   UNK N   1      34.594  18.269   8.540  0.00  0.00    -0.266 N 
ATOM     15  HN  UNK N   1      34.718  18.988   7.826  1.00  0.00     0.186 HD
ENDBRANCH   3   8
BRANCH   5  16
HETATM   16  N   UNK N   1      33.837  17.039   5.788  0.00  0.00    -0.384 N 
HETATM   17  H   UNK N   1      34.243  17.852   5.407  0.00  0.00     0.160 HD
BRANCH  16  18
HETATM   18  C   UNK N   1      34.582  15.813   5.745  0.00  0.00     0.166 C 
BRANCH  18  19
HETATM   19  C   UNK N   1      33.929  14.945   4.748  0.00  0.00    -0.000 A 
HETATM   20  C   UNK N   1      33.801  15.232   3.399  0.00  0.00     0.017 A 
HETATM   21  C   UNK N   1      33.008  14.272   2.712  0.00  0.00     0.008 A 
HETATM   22  C   UNK N   1      32.513  13.244   3.530  0.00  0.00     0.050 A 
HETATM   23  S   UNK N   1      33.078  13.564   5.055  0.00  0.00    -0.105 SA
ENDBRANCH  18  19
ENDBRANCH  16  18
ENDBRANCH   5  16
BRANCH   6  24
HETATM   24  S   UNK N   1      28.421  18.004   8.117  0.00  0.00     0.258 S 
HETATM   25  O   UNK N   1      28.545  18.290   9.622  0.00  0.00    -0.201 OA
HETATM   26  O   UNK N   1      27.427  16.834   8.121  0.00  0.00    -0.201 OA
BRANCH  24  27
HETATM   27  N   UNK N   1      27.532  19.377   7.458  0.00  0.00    -0.324 N 
HETATM   28  H   UNK N   1      26.881  19.555   6.694  0.00  0.00     0.169 HD
HETATM   29  H   UNK N   1      27.720  20.228   7.988  0.00  0.00     0.169 HD
ENDBRANCH  24  27
ENDBRANCH   6  24
TORSDOF 6
ENDMDL
MODEL 4
REMARK VINA RESULT:      -6.1     15.213     17.626
REMARK  6 active torsions:
REMARK  status: ('A' for Active; 'I' for Inactive)
REMARK    1  A    between atoms: C_7  and  C_6 
REMARK    2  A    between atoms: N_15  and  C_6 
REMARK    3  A    between atoms: C_12  and  C_8 
REMARK    4  A    between atoms: N_15  and  C_10 
REMARK    5  A    between atoms: S_25  and  C_11 
REMARK    6  A    between atoms: S_25  and  N_14 
ROOT
HETATM    1  C   UNK N   1      28.098  22.778  -6.196  0.00  0.00     0.044 A 
HETATM    2  C   UNK N   1      27.809  24.749  -4.246  0.00  0.00     0.055 A 
HETATM    3  C   UNK N   1      26.843  23.362  -5.997  0.00  0.00     0.038 A 
HETATM    4  C   UNK N   1      29.048  24.143  -4.430  0.00  0.00     0.059 A 
HETATM    5  C   UNK N   1      26.712  24.381  -5.034  0.00  0.00     0.044 A 
HETATM    6  C   UNK N   1      29.201  23.173  -5.435  0.00  0.00     0.102 A 
HETATM    7 Cl   UNK N   1      30.395  24.672  -3.433  0.00  0.00    -0.083 Cl
ENDROOT
BRANCH   3   8
HETATM    8  C   UNK N   1      25.710  22.955  -6.867  0.00  0.00     0.146 A 
HETATM    9  N   UNK N   1      24.865  21.946  -6.594  0.00  0.00    -0.271 N 
HETATM   10  N   UNK N   1      24.031  21.895  -7.622  0.00  0.00    -0.225 N 
ATOM     11  HN  UNK N   1      24.866  21.346  -5.769  1.00  0.00     0.190 HD
HETATM   12  N   UNK N   1      24.348  22.838  -8.495  0.00  0.00    -0.005 NA
HETATM   13  H   UNK N   1      23.290  21.255  -7.722  0.00  0.00     0.205 HD
HETATM   14  N   UNK N   1      25.394  23.515  -8.048  0.00  0.00    -0.266 N 
ATOM     15  HN  UNK N   1      25.862  24.298  -8.505  1.00  0.00     0.186 HD
ENDBRANCH   3   8
BRANCH   5  16
HETATM   16  N   UNK N   1      25.494  25.075  -4.913  0.00  0.00    -0.384 N 
HETATM   17  H   UNK N   1      24.841  24.771  -4.241  0.00  0.00     0.160 HD
BRANCH  16  18
HETATM   18  C   UNK N   1      25.165  26.208  -5.730  0.00  0.00     0.166 C 
BRANCH  18  19
HETATM   19  C   UNK N   1      25.869  27.371  -5.159  0.00  0.00    -0.000 A 
HETATM   20  C   UNK N   1      25.542  28.001  -3.969  0.00  0.00     0.017 A 
HETATM   21  C   UNK N   1      26.313  29.173  -3.744  0.00  0.00     0.008 A 
HETATM   22  C   UNK N   1      27.234  29.461  -4.763  0.00  0.00     0.050 A 
HETATM   23  S   UNK N   1      27.058  28.256  -5.888  0.00  0.00    -0.105 SA
ENDBRANCH  18  19
ENDBRANCH  16  18
ENDBRANCH   5  16
BRANCH   6  24
HETATM   24  S   UNK N   1      30.813  22.522  -5.856  0.00  0.00     0.258 S 
HETATM   25  O   UNK N   1      30.709  21.507  -7.005  0.00  0.00    -0.201 OA
HETATM   26  O   UNK N   1      31.390  21.643  -4.738  0.00  0.00    -0.201 OA
BRANCH  24  27
HETATM   27  N   UNK N   1      32.118  23.613  -6.319  0.00  0.00    -0.324 N 
HETATM   28  H   UNK N   1      32.531  24.480  -5.978  0.00  0.00     0.169 HD
HETATM   29  H   UNK N   1      32.591  23.286  -7.163  0.00  0.00     0.169 HD
ENDBRANCH  24  27
ENDBRANCH   6  24
TORSDOF 6
ENDMDL
MODEL 5
REMARK VINA RESULT:      -6.1     12.910     14.805
REMARK  6 active torsions:
REMARK  status: ('A' for Active; 'I' for Inactive)
REMARK    1  A    between atoms: C_7  and  C_6 
REMARK    2  A    between atoms: N_15  and  C_6 
REMARK    3  A    between atoms: C_12  and  C_8 
REMARK    4  A    between atoms: N_15  and  C_10 
REMARK    5  A    between atoms: S_25  and  C_11 
REMARK    6  A    between atoms: S_25  and  N_14 
ROOT
HETATM    1  C   UNK N   1      45.824  19.967   3.433  0.00  0.00     0.044 A 
HETATM    2  C   UNK N   1      43.688  18.259   2.896  0.00  0.00     0.055 A 
HETATM    3  C   UNK N   1      44.552  20.510   3.229  0.00  0.00     0.038 A 
HETATM    4  C   UNK N   1      44.962  17.728   3.072  0.00  0.00     0.059 A 
HETATM    5  C   UNK N   1      43.471  19.639   2.992  0.00  0.00     0.044 A 
HETATM    6  C   UNK N   1      46.032  18.586   3.375  0.00  0.00     0.102 A 
HETATM    7 Cl   UNK N   1      45.163  15.985   2.974  0.00  0.00    -0.083 Cl
ENDROOT
BRANCH   3   8
HETATM    8  C   UNK N   1      44.363  21.977   3.356  0.00  0.00     0.146 A 
HETATM    9  N   UNK N   1      43.689  22.574   4.354  0.00  0.00    -0.271 N 
HETATM   10  N   UNK N   1      43.728  23.870   4.082  0.00  0.00    -0.225 N 
ATOM     11  HN  UNK N   1      43.242  22.124   5.153  1.00  0.00     0.190 HD
HETATM   12  N   UNK N   1      44.401  24.065   2.960  0.00  0.00    -0.005 NA
HETATM   13  H   UNK N   1      43.319  24.579   4.630  0.00  0.00     0.205 HD
HETATM   14  N   UNK N   1      44.809  22.899   2.485  0.00  0.00    -0.266 N 
ATOM     15  HN  UNK N   1      45.350  22.735   1.635  1.00  0.00     0.186 HD
ENDBRANCH   3   8
BRANCH   5  16
HETATM   16  N   UNK N   1      42.163  20.153   2.920  0.00  0.00    -0.384 N 
HETATM   17  H   UNK N   1      41.726  20.453   3.750  0.00  0.00     0.160 HD
BRANCH  16  18
HETATM   18  C   UNK N   1      41.440  20.259   1.685  0.00  0.00     0.166 C 
BRANCH  18  19
HETATM   19  C   UNK N   1      41.583  21.650   1.219  0.00  0.00    -0.000 A 
HETATM   20  C   UNK N   1      41.015  22.760   1.824  0.00  0.00     0.017 A 
HETATM   21  C   UNK N   1      41.215  23.951   1.074  0.00  0.00     0.008 A 
HETATM   22  C   UNK N   1      41.931  23.766  -0.120  0.00  0.00     0.050 A 
HETATM   23  S   UNK N   1      42.285  22.148  -0.191  0.00  0.00    -0.105 SA
ENDBRANCH  18  19
ENDBRANCH  16  18
ENDBRANCH   5  16
BRANCH   6  24
HETATM   24  S   UNK N   1      47.638  17.940   3.822  0.00  0.00     0.258 S 
HETATM   25  O   UNK N   1      47.622  17.376   5.251  0.00  0.00    -0.201 OA
HETATM   26  O   UNK N   1      48.690  19.051   3.956  0.00  0.00    -0.201 OA
BRANCH  24  27
HETATM   27  N   UNK N   1      48.398  16.688   2.840  0.00  0.00    -0.324 N 
HETATM   28  H   UNK N   1      49.221  16.089   2.890  0.00  0.00     0.169 HD
HETATM   29  H   UNK N   1      47.867  16.515   1.986  0.00  0.00     0.169 HD
ENDBRANCH  24  27
ENDBRANCH   6  24
TORSDOF 6
ENDMDL
MODEL 6
REMARK VINA RESULT:      -6.1      4.357      6.289
REMARK  6 active torsions:
REMARK  status: ('A' for Active; 'I' for Inactive)
REMARK    1  A    between atoms: C_7  and  C_6 
REMARK    2  A    between atoms: N_15  and  C_6 
REMARK    3  A    between atoms: C_12  and  C_8 
REMARK    4  A    between atoms: N_15  and  C_10 
REMARK    5  A    between atoms: S_25  and  C_11 
REMARK    6  A    between atoms: S_25  and  N_14 
ROOT
HETATM    1  C   UNK N   1      34.472  14.978  10.597  0.00  0.00     0.044 A 
HETATM    2  C   UNK N   1      33.875  12.637   9.207  0.00  0.00     0.055 A 
HETATM    3  C   UNK N   1      33.690  15.052   9.440  0.00  0.00     0.038 A 
HETATM    4  C   UNK N   1      34.677  12.573  10.342  0.00  0.00     0.059 A 
HETATM    5  C   UNK N   1      33.364  13.862   8.762  0.00  0.00     0.044 A 
HETATM    6  C   UNK N   1      34.951  13.749  11.061  0.00  0.00     0.102 A 
HETATM    7 Cl   UNK N   1      35.261  11.002  10.869  0.00  0.00    -0.083 Cl
ENDROOT
BRANCH   3   8
HETATM    8  C   UNK N   1      33.153  16.370   9.013  0.00  0.00     0.146 A 
HETATM    9  N   UNK N   1      31.892  16.781   9.223  0.00  0.00    -0.271 N 
HETATM   10  N   UNK N   1      31.815  17.982   8.669  0.00  0.00    -0.225 N 
ATOM     11  HN  UNK N   1      31.149  16.276   9.707  1.00  0.00     0.190 HD
HETATM   12  N   UNK N   1      32.985  18.300   8.139  0.00  0.00    -0.005 NA
HETATM   13  H   UNK N   1      31.012  18.552   8.653  0.00  0.00     0.205 HD
HETATM   14  N   UNK N   1      33.840  17.310   8.340  0.00  0.00    -0.266 N 
ATOM     15  HN  UNK N   1      34.816  17.268   8.045  1.00  0.00     0.186 HD
ENDBRANCH   3   8
BRANCH   5  16
HETATM   16  N   UNK N   1      32.467  13.899   7.678  0.00  0.00    -0.384 N 
HETATM   17  H   UNK N   1      31.505  14.003   7.863  0.00  0.00     0.160 HD
BRANCH  16  18
HETATM   18  C   UNK N   1      32.898  13.791   6.314  0.00  0.00     0.166 C 
BRANCH  18  19
HETATM   19  C   UNK N   1      32.607  15.084   5.666  0.00  0.00    -0.000 A 
HETATM   20  C   UNK N   1      33.548  15.918   5.085  0.00  0.00     0.017 A 
HETATM   21  C   UNK N   1      32.991  17.155   4.661  0.00  0.00     0.008 A 
HETATM   22  C   UNK N   1      31.617  17.287   4.921  0.00  0.00     0.050 A 
HETATM   23  S   UNK N   1      31.157  15.873   5.656  0.00  0.00    -0.105 SA
ENDBRANCH  18  19
ENDBRANCH  16  18
ENDBRANCH   5  16
BRANCH   6  24
HETATM   24  S   UNK N   1      35.791  13.696  12.638  0.00  0.00     0.258 S 
HETATM   25  O   UNK N   1      34.852  13.183  13.741  0.00  0.00    -0.201 OA
HETATM   26  O   UNK N   1      36.121  15.100  13.164  0.00  0.00    -0.201 OA
BRANCH  24  27
HETATM   27  N   UNK N   1      37.275  12.762  12.824  0.00  0.00    -0.324 N 
HETATM   28  H   UNK N   1      38.129  12.808  13.379  0.00  0.00     0.169 HD
HETATM   29  H   UNK N   1      37.282  11.951  12.204  0.00  0.00     0.169 HD
ENDBRANCH  24  27
ENDBRANCH   6  24
TORSDOF 6
ENDMDL
MODEL 7
REMARK VINA RESULT:      -6.0      4.583      6.621
REMARK  6 active torsions:
REMARK  status: ('A' for Active; 'I' for Inactive)
REMARK    1  A    between atoms: C_7  and  C_6 
REMARK    2  A    between atoms: N_15  and  C_6 
REMARK    3  A    between atoms: C_12  and  C_8 
REMARK    4  A    between atoms: N_15  and  C_10 
REMARK    5  A    between atoms: S_25  and  C_11 
REMARK    6  A    between atoms: S_25  and  N_14 
ROOT
HETATM    1  C   UNK N   1      34.766  14.924  11.037  0.00  0.00     0.044 A 
HETATM    2  C   UNK N   1      36.682  14.288   9.115  0.00  0.00     0.055 A 
HETATM    3  C   UNK N   1      34.566  15.331   9.714  0.00  0.00     0.038 A 
HETATM    4  C   UNK N   1      36.888  13.911  10.439  0.00  0.00     0.059 A 
HETATM    5  C   UNK N   1      35.521  14.976   8.742  0.00  0.00     0.044 A 
HETATM    6  C   UNK N   1      35.907  14.204  11.401  0.00  0.00     0.102 A 
HETATM    7 Cl   UNK N   1      38.348  13.020  10.838  0.00  0.00    -0.083 Cl
ENDROOT
BRANCH   3   8
HETATM    8  C   UNK N   1      33.313  16.043   9.358  0.00  0.00     0.146 A 
HETATM    9  N   UNK N   1      33.243  17.346   9.036  0.00  0.00    -0.271 N 
HETATM   10  N   UNK N   1      31.959  17.589   8.820  0.00  0.00    -0.225 N 
ATOM     11  HN  UNK N   1      34.017  18.008   8.971  1.00  0.00     0.190 HD
HETATM   12  N   UNK N   1      31.263  16.478   9.000  0.00  0.00    -0.005 NA
HETATM   13  H   UNK N   1      31.580  18.461   8.565  0.00  0.00     0.205 HD
HETATM   14  N   UNK N   1      32.084  15.497   9.338  0.00  0.00    -0.266 N 
ATOM     15  HN  UNK N   1      31.836  14.527   9.540  1.00  0.00     0.186 HD
ENDBRANCH   3   8
BRANCH   5  16
HETATM   16  N   UNK N   1      35.274  15.255   7.386  0.00  0.00    -0.384 N 
HETATM   17  H   UNK N   1      35.694  16.049   6.981  0.00  0.00     0.160 HD
BRANCH  16  18
HETATM   18  C   UNK N   1      34.433  14.430   6.566  0.00  0.00     0.166 C 
BRANCH  18  19
HETATM   19  C   UNK N   1      33.468  15.323   5.900  0.00  0.00    -0.000 A 
HETATM   20  C   UNK N   1      33.722  16.627   5.508  0.00  0.00     0.017 A 
HETATM   21  C   UNK N   1      32.562  17.283   5.014  0.00  0.00     0.008 A 
HETATM   22  C   UNK N   1      31.402  16.492   5.032  0.00  0.00     0.050 A 
HETATM   23  S   UNK N   1      31.863  15.025   5.649  0.00  0.00    -0.105 SA
ENDBRANCH  18  19
ENDBRANCH  16  18
ENDBRANCH   5  16
BRANCH   6  24
HETATM   24  S   UNK N   1      36.020  13.557  13.064  0.00  0.00     0.258 S 
HETATM   25  O   UNK N   1      36.543  12.112  13.055  0.00  0.00    -0.201 OA
HETATM   26  O   UNK N   1      34.637  13.365  13.704  0.00  0.00    -0.201 OA
BRANCH  24  27
HETATM   27  N   UNK N   1      36.988  14.391  14.279  0.00  0.00    -0.324 N 
HETATM   28  H   UNK N   1      36.872  15.166  14.932  0.00  0.00     0.169 HD
HETATM   29  H   UNK N   1      37.924  13.989  14.346  0.00  0.00     0.169 HD
ENDBRANCH  24  27
ENDBRANCH   6  24
TORSDOF 6
ENDMDL
MODEL 8
REMARK VINA RESULT:      -5.9     16.150     17.592
REMARK  6 active torsions:
REMARK  status: ('A' for Active; 'I' for Inactive)
REMARK    1  A    between atoms: C_7  and  C_6 
REMARK    2  A    between atoms: N_15  and  C_6 
REMARK    3  A    between atoms: C_12  and  C_8 
REMARK    4  A    between atoms: N_15  and  C_10 
REMARK    5  A    between atoms: S_25  and  C_11 
REMARK    6  A    between atoms: S_25  and  N_14 
ROOT
HETATM    1  C   UNK N   1      25.905  24.217  -5.850  0.00  0.00     0.044 A 
HETATM    2  C   UNK N   1      28.626  23.611  -5.821  0.00  0.00     0.055 A 
HETATM    3  C   UNK N   1      26.780  25.043  -5.136  0.00  0.00     0.038 A 
HETATM    4  C   UNK N   1      27.746  22.778  -6.505  0.00  0.00     0.059 A 
HETATM    5  C   UNK N   1      28.158  24.750  -5.155  0.00  0.00     0.044 A 
HETATM    6  C   UNK N   1      26.380  23.102  -6.546  0.00  0.00     0.102 A 
HETATM    7 Cl   UNK N   1      28.399  21.383  -7.351  0.00  0.00    -0.083 Cl
ENDROOT
BRANCH   3   8
HETATM    8  C   UNK N   1      26.244  26.250  -4.458  0.00  0.00     0.146 A 
HETATM    9  N   UNK N   1      25.636  27.269  -5.087  0.00  0.00    -0.271 N 
HETATM   10  N   UNK N   1      25.341  28.145  -4.138  0.00  0.00    -0.225 N 
ATOM     11  HN  UNK N   1      25.440  27.351  -6.085  1.00  0.00     0.190 HD
HETATM   12  N   UNK N   1      25.752  27.684  -2.968  0.00  0.00    -0.005 NA
HETATM   13  H   UNK N   1      24.887  29.008  -4.280  0.00  0.00     0.205 HD
HETATM   14  N   UNK N   1      26.321  26.501  -3.139  0.00  0.00    -0.266 N 
ATOM     15  HN  UNK N   1      26.731  25.904  -2.420  1.00  0.00     0.186 HD
ENDBRANCH   3   8
BRANCH   5  16
HETATM   16  N   UNK N   1      29.069  25.642  -4.560  0.00  0.00    -0.384 N 
HETATM   17  H   UNK N   1      29.125  25.676  -3.577  0.00  0.00     0.160 HD
BRANCH  16  18
HETATM   18  C   UNK N   1      29.920  26.506  -5.327  0.00  0.00     0.166 C 
BRANCH  18  19
HETATM   19  C   UNK N   1      29.247  27.815  -5.407  0.00  0.00    -0.000 A 
HETATM   20  C   UNK N   1      28.744  28.388  -6.564  0.00  0.00     0.017 A 
HETATM   21  C   UNK N   1      28.271  29.712  -6.355  0.00  0.00     0.008 A 
HETATM   22  C   UNK N   1      28.416  30.173  -5.037  0.00  0.00     0.050 A 
HETATM   23  S   UNK N   1      29.113  28.927  -4.194  0.00  0.00    -0.105 SA
ENDBRANCH  18  19
ENDBRANCH  16  18
ENDBRANCH   5  16
BRANCH   6  24
HETATM   24  S   UNK N   1      25.243  22.191  -7.584  0.00  0.00     0.258 S 
HETATM   25  O   UNK N   1      24.445  23.144  -8.488  0.00  0.00    -0.201 OA
HETATM   26  O   UNK N   1      24.114  21.542  -6.772  0.00  0.00    -0.201 OA
BRANCH  24  27
HETATM   27  N   UNK N   1      25.839  20.926  -8.658  0.00  0.00    -0.324 N 
HETATM   28  H   UNK N   1      26.685  20.367  -8.765  0.00  0.00     0.169 HD
HETATM   29  H   UNK N   1      25.146  20.688  -9.368  0.00  0.00     0.169 HD
ENDBRANCH  24  27
ENDBRANCH   6  24
TORSDOF 6
ENDMDL
MODEL 9
REMARK VINA RESULT:      -5.9     14.144     16.096
REMARK  6 active torsions:
REMARK  status: ('A' for Active; 'I' for Inactive)
REMARK    1  A    between atoms: C_7  and  C_6 
REMARK    2  A    between atoms: N_15  and  C_6 
REMARK    3  A    between atoms: C_12  and  C_8 
REMARK    4  A    between atoms: N_15  and  C_10 
REMARK    5  A    between atoms: S_25  and  C_11 
REMARK    6  A    between atoms: S_25  and  N_14 
ROOT
HETATM    1  C   UNK N   1      25.907  23.992  -5.910  0.00  0.00     0.044 A 
HETATM    2  C   UNK N   1      28.611  23.408  -6.254  0.00  0.00     0.055 A 
HETATM    3  C   UNK N   1      26.865  24.830  -5.330  0.00  0.00     0.038 A 
HETATM    4  C   UNK N   1      27.652  22.563  -6.804  0.00  0.00     0.059 A 
HETATM    5  C   UNK N   1      28.229  24.548  -5.537  0.00  0.00     0.044 A 
HETATM    6  C   UNK N   1      26.290  22.876  -6.658  0.00  0.00     0.102 A 
HETATM    7 Cl   UNK N   1      28.194  21.166  -7.722  0.00  0.00    -0.083 Cl
ENDROOT
BRANCH   3   8
HETATM    8  C   UNK N   1      26.417  26.038  -4.592  0.00  0.00     0.146 A 
HETATM    9  N   UNK N   1      26.041  27.189  -5.174  0.00  0.00    -0.271 N 
HETATM   10  N   UNK N   1      25.750  28.011  -4.176  0.00  0.00    -0.225 N 
ATOM     11  HN  UNK N   1      25.989  27.389  -6.173  1.00  0.00     0.190 HD
HETATM   12  N   UNK N   1      25.939  27.390  -3.023  0.00  0.00    -0.005 NA
HETATM   13  H   UNK N   1      25.441  28.941  -4.276  0.00  0.00     0.205 HD
HETATM   14  N   UNK N   1      26.356  26.156  -3.253  0.00  0.00    -0.266 N 
ATOM     15  HN  UNK N   1      26.584  25.442  -2.560  1.00  0.00     0.186 HD
ENDBRANCH   3   8
BRANCH   5  16
HETATM   16  N   UNK N   1      29.206  25.451  -5.079  0.00  0.00    -0.384 N 
HETATM   17  H   UNK N   1      29.578  26.107  -5.713  0.00  0.00     0.160 HD
BRANCH  16  18
HETATM   18  C   UNK N   1      29.680  25.457  -3.725  0.00  0.00     0.166 C 
BRANCH  18  19
HETATM   19  C   UNK N   1      30.554  24.280  -3.569  0.00  0.00    -0.000 A 
HETATM   20  C   UNK N   1      31.673  24.005  -4.338  0.00  0.00     0.017 A 
HETATM   21  C   UNK N   1      32.236  22.733  -4.045  0.00  0.00     0.008 A 
HETATM   22  C   UNK N   1      31.548  22.014  -3.054  0.00  0.00     0.050 A 
HETATM   23  S   UNK N   1      30.286  22.981  -2.584  0.00  0.00    -0.105 SA
ENDBRANCH  18  19
ENDBRANCH  16  18
ENDBRANCH   5  16
BRANCH   6  24
HETATM   24  S   UNK N   1      25.029  21.948  -7.523  0.00  0.00     0.258 S 
HETATM   25  O   UNK N   1      24.178  22.875  -8.405  0.00  0.00    -0.201 OA
HETATM   26  O   UNK N   1      23.964  21.392  -6.567  0.00  0.00    -0.201 OA
BRANCH  24  27
HETATM   27  N   UNK N   1      25.477  20.600  -8.567  0.00  0.00    -0.324 N 
HETATM   28  H   UNK N   1      25.608  20.431  -9.564  0.00  0.00     0.169 HD
HETATM   29  H   UNK N   1      25.651  19.754  -8.024  0.00  0.00     0.169 HD
ENDBRANCH  24  27
ENDBRANCH   6  24
TORSDOF 6
ENDMDL
