MODEL 1
REMARK VINA RESULT:      -6.5      0.000      0.000
REMARK  8 active torsions:
REMARK  status: ('A' for Active; 'I' for Inactive)
REMARK    1  A    between atoms: C_2  and  C_16 
REMARK    2  A    between atoms: C_4  and  O_15 
REMARK    3  A    between atoms: C_5  and  O_23 
REMARK    4  A    between atoms: C_9  and  C_6 
REMARK    5  A    between atoms: C_8  and  C_7 
REMARK    6  A    between atoms: C_16  and  C_17 
REMARK    7  A    between atoms: C_17  and  C_18 
REMARK    8  A    between atoms: C_18  and  C_19 
ROOT
HETATM    1  C   UNK N   1      35.401  16.664  10.095  0.00  0.00     0.044 A 
HETATM    2  C   UNK N   1      35.061  15.428  10.641  0.00  0.00    -0.053 A 
HETATM    3  C   UNK N   1      33.851  14.833  10.299  0.00  0.00     0.044 A 
HETATM    4  C   UNK N   1      32.971  15.461   9.412  0.00  0.00     0.075 A 
HETATM    5  C   UNK N   1      34.535  17.319   9.217  0.00  0.00     0.075 A 
HETATM    6  C   UNK N   1      33.300  16.730   8.849  0.00  0.00     0.017 A 
ENDROOT
BRANCH   6   7
HETATM    7  C   UNK N   1      32.354  17.478   7.895  0.00  0.00     0.055 C 
HETATM    8  C   UNK N   1      31.121  18.046   8.581  0.00  0.00    -0.014 C 
HETATM    9  C   UNK N   1      29.871  17.854   8.129  0.00  0.00    -0.087 C 
HETATM   10  C   UNK N   1      29.601  17.065   6.883  0.00  0.00     0.034 C 
HETATM   11  C   UNK N   1      28.724  18.426   8.885  0.00  0.00     0.043 C 
HETATM   12  C   UNK N   1      30.762  17.193   5.914  0.00  0.00     0.014 C 
HETATM   13  C   UNK N   1      32.038  16.692   6.587  0.00  0.00     0.026 C 
BRANCH  13  14
HETATM   14  C   UNK N   1      33.155  16.741   5.583  0.00  0.00    -0.088 C 
HETATM   15  C   UNK N   1      33.153  17.639   4.592  0.00  0.00     0.014 C 
HETATM   16  C   UNK N   1      34.251  15.735   5.653  0.00  0.00     0.043 C 
ENDBRANCH  13  14
ENDBRANCH   6   7
BRANCH   4  17
HETATM   17  O   UNK N   1      31.821  14.833   9.114  0.00  0.00    -0.360 OA
HETATM   18  H   UNK N   1      31.096  14.817   9.708  0.00  0.00     0.217 HD
ENDBRANCH   4  17
BRANCH   5  19
HETATM   19  O   UNK N   1      34.892  18.525   8.754  0.00  0.00    -0.360 OA
HETATM   20  H   UNK N   1      34.586  18.980   7.995  0.00  0.00     0.217 HD
ENDBRANCH   5  19
BRANCH   2  21
HETATM   21  C   UNK N   1      35.974  14.746  11.603  0.00  0.00     0.039 C 
BRANCH  21  22
HETATM   22  C   UNK N   1      35.294  13.526  12.208  0.00  0.00     0.005 C 
BRANCH  22  23
HETATM   23  C   UNK N   1      35.740  13.324  13.641  0.00  0.00    -0.000 C 
BRANCH  23  24
HETATM   24  C   UNK N   1      36.490  14.553  14.119  0.00  0.00    -0.005 C 
HETATM   25  C   UNK N   1      36.946  14.348  15.546  0.00  0.00     0.005 C 
ENDBRANCH  23  24
ENDBRANCH  22  23
ENDBRANCH  21  22
ENDBRANCH   2  21
TORSDOF 8
ENDMDL
MODEL 2
REMARK VINA RESULT:      -6.5     14.354     17.520
REMARK  8 active torsions:
REMARK  status: ('A' for Active; 'I' for Inactive)
REMARK    1  A    between atoms: C_2  and  C_16 
REMARK    2  A    between atoms: C_4  and  O_15 
REMARK    3  A    between atoms: C_5  and  O_23 
REMARK    4  A    between atoms: C_9  and  C_6 
REMARK    5  A    between atoms: C_8  and  C_7 
REMARK    6  A    between atoms: C_16  and  C_17 
REMARK    7  A    between atoms: C_17  and  C_18 
REMARK    8  A    between atoms: C_18  and  C_19 
ROOT
HETATM    1  C   UNK N   1      30.508  24.220  -4.341  0.00  0.00     0.044 A 
HETATM    2  C   UNK N   1      30.024  23.483  -3.262  0.00  0.00    -0.053 A 
HETATM    3  C   UNK N   1      28.697  23.620  -2.872  0.00  0.00     0.044 A 
HETATM    4  C   UNK N   1      27.839  24.493  -3.550  0.00  0.00     0.075 A 
HETATM    5  C   UNK N   1      29.676  25.108  -5.028  0.00  0.00     0.075 A 
HETATM    6  C   UNK N   1      28.319  25.261  -4.652  0.00  0.00     0.017 A 
ENDROOT
BRANCH   6   7
HETATM    7  C   UNK N   1      27.427  26.258  -5.412  0.00  0.00     0.055 C 
HETATM    8  C   UNK N   1      27.435  27.658  -4.817  0.00  0.00    -0.014 C 
HETATM    9  C   UNK N   1      26.317  28.346  -4.535  0.00  0.00    -0.087 C 
HETATM   10  C   UNK N   1      24.957  27.777  -4.811  0.00  0.00     0.034 C 
HETATM   11  C   UNK N   1      26.425  29.701  -3.928  0.00  0.00     0.043 C 
HETATM   12  C   UNK N   1      25.007  26.838  -6.001  0.00  0.00     0.014 C 
HETATM   13  C   UNK N   1      26.000  25.713  -5.713  0.00  0.00     0.026 C 
BRANCH  13  14
HETATM   14  C   UNK N   1      25.966  24.745  -6.863  0.00  0.00    -0.088 C 
HETATM   15  C   UNK N   1      25.881  25.177  -8.126  0.00  0.00     0.014 C 
HETATM   16  C   UNK N   1      25.966  23.281  -6.591  0.00  0.00     0.043 C 
ENDBRANCH  13  14
ENDBRANCH   6   7
BRANCH   4  17
HETATM   17  O   UNK N   1      26.565  24.578  -3.131  0.00  0.00    -0.360 OA
HETATM   18  H   UNK N   1      26.143  25.402  -2.989  0.00  0.00     0.217 HD
ENDBRANCH   4  17
BRANCH   5  19
HETATM   19  O   UNK N   1      30.203  25.824  -6.030  0.00  0.00    -0.360 OA
HETATM   20  H   UNK N   1      31.079  26.141  -6.132  0.00  0.00     0.217 HD
ENDBRANCH   5  19
BRANCH   2  21
HETATM   21  C   UNK N   1      30.924  22.559  -2.511  0.00  0.00     0.039 C 
BRANCH  21  22
HETATM   22  C   UNK N   1      31.710  21.682  -3.475  0.00  0.00     0.005 C 
BRANCH  22  23
HETATM   23  C   UNK N   1      30.818  20.607  -4.063  0.00  0.00    -0.000 C 
BRANCH  23  24
HETATM   24  C   UNK N   1      30.960  20.598  -5.573  0.00  0.00    -0.005 C 
HETATM   25  C   UNK N   1      29.703  21.154  -6.205  0.00  0.00     0.005 C 
ENDBRANCH  23  24
ENDBRANCH  22  23
ENDBRANCH  21  22
ENDBRANCH   2  21
TORSDOF 8
ENDMDL
MODEL 3
REMARK VINA RESULT:      -6.3      8.053     12.013
REMARK  8 active torsions:
REMARK  status: ('A' for Active; 'I' for Inactive)
REMARK    1  A    between atoms: C_2  and  C_16 
REMARK    2  A    between atoms: C_4  and  O_15 
REMARK    3  A    between atoms: C_5  and  O_23 
REMARK    4  A    between atoms: C_9  and  C_6 
REMARK    5  A    between atoms: C_8  and  C_7 
REMARK    6  A    between atoms: C_16  and  C_17 
REMARK    7  A    between atoms: C_17  and  C_18 
REMARK    8  A    between atoms: C_18  and  C_19 
ROOT
HETATM    1  C   UNK N   1      24.199  20.202   3.255  0.00  0.00     0.044 A 
HETATM    2  C   UNK N   1      25.358  19.594   3.732  0.00  0.00    -0.053 A 
HETATM    3  C   UNK N   1      25.264  18.449   4.517  0.00  0.00     0.044 A 
HETATM    4  C   UNK N   1      24.017  17.900   4.832  0.00  0.00     0.075 A 
HETATM    5  C   UNK N   1      22.941  19.681   3.565  0.00  0.00     0.075 A 
HETATM    6  C   UNK N   1      22.819  18.513   4.358  0.00  0.00     0.017 A 
ENDROOT
BRANCH   6   7
HETATM    7  C   UNK N   1      21.423  17.968   4.703  0.00  0.00     0.055 C 
HETATM    8  C   UNK N   1      21.106  18.004   6.190  0.00  0.00    -0.014 C 
HETATM    9  C   UNK N   1      20.633  16.946   6.869  0.00  0.00    -0.087 C 
HETATM   10  C   UNK N   1      20.364  15.636   6.191  0.00  0.00     0.034 C 
HETATM   11  C   UNK N   1      20.379  17.070   8.330  0.00  0.00     0.043 C 
HETATM   12  C   UNK N   1      19.974  15.861   4.742  0.00  0.00     0.014 C 
HETATM   13  C   UNK N   1      21.102  16.603   4.026  0.00  0.00     0.026 C 
BRANCH  13  14
HETATM   14  C   UNK N   1      20.736  16.734   2.574  0.00  0.00    -0.088 C 
HETATM   15  C   UNK N   1      19.945  17.723   2.148  0.00  0.00     0.014 C 
HETATM   16  C   UNK N   1      21.212  15.711   1.601  0.00  0.00     0.043 C 
ENDBRANCH  13  14
ENDBRANCH   6   7
BRANCH   4  17
HETATM   17  O   UNK N   1      23.990  16.789   5.589  0.00  0.00    -0.360 OA
HETATM   18  H   UNK N   1      24.398  16.753   6.432  0.00  0.00     0.217 HD
ENDBRANCH   4  17
BRANCH   5  19
HETATM   19  O   UNK N   1      21.857  20.329   3.116  0.00  0.00    -0.360 OA
HETATM   20  H   UNK N   1      21.333  20.973   3.549  0.00  0.00     0.217 HD
ENDBRANCH   5  19
BRANCH   2  21
HETATM   21  C   UNK N   1      26.699  20.171   3.425  0.00  0.00     0.039 C 
BRANCH  21  22
HETATM   22  C   UNK N   1      27.577  20.167   4.668  0.00  0.00     0.005 C 
BRANCH  22  23
HETATM   23  C   UNK N   1      27.148  21.260   5.625  0.00  0.00    -0.000 C 
BRANCH  23  24
HETATM   24  C   UNK N   1      26.992  20.684   7.019  0.00  0.00    -0.005 C 
HETATM   25  C   UNK N   1      27.881  19.470   7.170  0.00  0.00     0.005 C 
ENDBRANCH  23  24
ENDBRANCH  22  23
ENDBRANCH  21  22
ENDBRANCH   2  21
TORSDOF 8
ENDMDL
MODEL 4
REMARK VINA RESULT:      -6.3     14.052     17.234
REMARK  8 active torsions:
REMARK  status: ('A' for Active; 'I' for Inactive)
REMARK    1  A    between atoms: C_2  and  C_16 
REMARK    2  A    between atoms: C_4  and  O_15 
REMARK    3  A    between atoms: C_5  and  O_23 
REMARK    4  A    between atoms: C_9  and  C_6 
REMARK    5  A    between atoms: C_8  and  C_7 
REMARK    6  A    between atoms: C_16  and  C_17 
REMARK    7  A    between atoms: C_17  and  C_18 
REMARK    8  A    between atoms: C_18  and  C_19 
ROOT
HETATM    1  C   UNK N   1      28.964  23.298  -2.672  0.00  0.00     0.044 A 
HETATM    2  C   UNK N   1      30.094  22.988  -3.425  0.00  0.00    -0.053 A 
HETATM    3  C   UNK N   1      30.139  23.327  -4.773  0.00  0.00     0.044 A 
HETATM    4  C   UNK N   1      29.061  23.977  -5.382  0.00  0.00     0.075 A 
HETATM    5  C   UNK N   1      27.869  23.935  -3.258  0.00  0.00     0.075 A 
HETATM    6  C   UNK N   1      27.893  24.296  -4.628  0.00  0.00     0.017 A 
ENDROOT
BRANCH   6   7
HETATM    7  C   UNK N   1      26.668  24.980  -5.257  0.00  0.00     0.055 C 
HETATM    8  C   UNK N   1      26.064  24.203  -6.417  0.00  0.00    -0.014 C 
HETATM    9  C   UNK N   1      25.784  24.754  -7.609  0.00  0.00    -0.087 C 
HETATM   10  C   UNK N   1      26.037  26.208  -7.878  0.00  0.00     0.034 C 
HETATM   11  C   UNK N   1      25.220  23.905  -8.693  0.00  0.00     0.043 C 
HETATM   12  C   UNK N   1      25.895  27.015  -6.600  0.00  0.00     0.014 C 
HETATM   13  C   UNK N   1      26.886  26.492  -5.562  0.00  0.00     0.026 C 
BRANCH  13  14
HETATM   14  C   UNK N   1      26.794  27.362  -4.339  0.00  0.00    -0.088 C 
HETATM   15  C   UNK N   1      25.610  27.743  -3.851  0.00  0.00     0.014 C 
HETATM   16  C   UNK N   1      28.042  27.858  -3.696  0.00  0.00     0.043 C 
ENDBRANCH  13  14
ENDBRANCH   6   7
BRANCH   4  17
HETATM   17  O   UNK N   1      29.165  24.285  -6.687  0.00  0.00    -0.360 OA
HETATM   18  H   UNK N   1      28.582  24.889  -7.102  0.00  0.00     0.217 HD
ENDBRANCH   4  17
BRANCH   5  19
HETATM   19  O   UNK N   1      26.790  24.172  -2.498  0.00  0.00    -0.360 OA
HETATM   20  H   UNK N   1      26.470  24.987  -2.166  0.00  0.00     0.217 HD
ENDBRANCH   5  19
BRANCH   2  21
HETATM   21  C   UNK N   1      31.250  22.279  -2.803  0.00  0.00     0.039 C 
BRANCH  21  22
HETATM   22  C   UNK N   1      31.804  21.228  -3.755  0.00  0.00     0.005 C 
BRANCH  22  23
HETATM   23  C   UNK N   1      33.220  21.577  -4.166  0.00  0.00    -0.000 C 
BRANCH  23  24
HETATM   24  C   UNK N   1      34.195  20.644  -3.475  0.00  0.00    -0.005 C 
HETATM   25  C   UNK N   1      34.044  19.246  -4.033  0.00  0.00     0.005 C 
ENDBRANCH  23  24
ENDBRANCH  22  23
ENDBRANCH  21  22
ENDBRANCH   2  21
TORSDOF 8
ENDMDL
MODEL 5
REMARK VINA RESULT:      -6.2      3.385      6.215
REMARK  8 active torsions:
REMARK  status: ('A' for Active; 'I' for Inactive)
REMARK    1  A    between atoms: C_2  and  C_16 
REMARK    2  A    between atoms: C_4  and  O_15 
REMARK    3  A    between atoms: C_5  and  O_23 
REMARK    4  A    between atoms: C_9  and  C_6 
REMARK    5  A    between atoms: C_8  and  C_7 
REMARK    6  A    between atoms: C_16  and  C_17 
REMARK    7  A    between atoms: C_17  and  C_18 
REMARK    8  A    between atoms: C_18  and  C_19 
ROOT
HETATM    1  C   UNK N   1      36.072  13.576  15.178  0.00  0.00     0.044 A 
HETATM    2  C   UNK N   1      35.323  12.447  15.500  0.00  0.00    -0.053 A 
HETATM    3  C   UNK N   1      34.658  11.751  14.497  0.00  0.00     0.044 A 
HETATM    4  C   UNK N   1      34.732  12.172  13.165  0.00  0.00     0.075 A 
HETATM    5  C   UNK N   1      36.153  14.025  13.858  0.00  0.00     0.075 A 
HETATM    6  C   UNK N   1      35.489  13.330  12.817  0.00  0.00     0.017 A 
ENDROOT
BRANCH   6   7
HETATM    7  C   UNK N   1      35.577  13.854  11.374  0.00  0.00     0.055 C 
HETATM    8  C   UNK N   1      34.333  14.604  10.922  0.00  0.00    -0.014 C 
HETATM    9  C   UNK N   1      33.692  14.345   9.771  0.00  0.00    -0.087 C 
HETATM   10  C   UNK N   1      34.180  13.288   8.824  0.00  0.00     0.034 C 
HETATM   11  C   UNK N   1      32.466  15.114   9.426  0.00  0.00     0.043 C 
HETATM   12  C   UNK N   1      35.687  13.148   8.918  0.00  0.00     0.014 C 
HETATM   13  C   UNK N   1      36.071  12.787  10.353  0.00  0.00     0.026 C 
BRANCH  13  14
HETATM   14  C   UNK N   1      37.556  12.562  10.404  0.00  0.00    -0.088 C 
HETATM   15  C   UNK N   1      38.065  11.420  10.878  0.00  0.00     0.014 C 
HETATM   16  C   UNK N   1      38.480  13.650   9.977  0.00  0.00     0.043 C 
ENDBRANCH  13  14
ENDBRANCH   6   7
BRANCH   4  17
HETATM   17  O   UNK N   1      34.073  11.454  12.239  0.00  0.00    -0.360 OA
HETATM   18  H   UNK N   1      33.621  11.860  11.526  0.00  0.00     0.217 HD
ENDBRANCH   4  17
BRANCH   5  19
HETATM   19  O   UNK N   1      36.852  15.141  13.608  0.00  0.00    -0.360 OA
HETATM   20  H   UNK N   1      37.220  15.754  14.214  0.00  0.00     0.217 HD
ENDBRANCH   5  19
BRANCH   2  21
HETATM   21  C   UNK N   1      35.213  11.988  16.916  0.00  0.00     0.039 C 
BRANCH  21  22
HETATM   22  C   UNK N   1      35.083  13.181  17.852  0.00  0.00     0.005 C 
BRANCH  22  23
HETATM   23  C   UNK N   1      35.238  12.745  19.294  0.00  0.00    -0.000 C 
BRANCH  23  24
HETATM   24  C   UNK N   1      35.328  11.232  19.361  0.00  0.00    -0.005 C 
HETATM   25  C   UNK N   1      36.423  10.829  20.323  0.00  0.00     0.005 C 
ENDBRANCH  23  24
ENDBRANCH  22  23
ENDBRANCH  21  22
ENDBRANCH   2  21
TORSDOF 8
ENDMDL
MODEL 6
REMARK VINA RESULT:      -6.1      4.120      6.844
REMARK  8 active torsions:
REMARK  status: ('A' for Active; 'I' for Inactive)
REMARK    1  A    between atoms: C_2  and  C_16 
REMARK    2  A    between atoms: C_4  and  O_15 
REMARK    3  A    between atoms: C_5  and  O_23 
REMARK    4  A    between atoms: C_9  and  C_6 
REMARK    5  A    between atoms: C_8  and  C_7 
REMARK    6  A    between atoms: C_16  and  C_17 
REMARK    7  A    between atoms: C_17  and  C_18 
REMARK    8  A    between atoms: C_18  and  C_19 
ROOT
HETATM    1  C   UNK N   1      29.654  17.675   8.573  0.00  0.00     0.044 A 
HETATM    2  C   UNK N   1      30.640  17.172   7.727  0.00  0.00    -0.053 A 
HETATM    3  C   UNK N   1      30.421  17.139   6.354  0.00  0.00     0.044 A 
HETATM    4  C   UNK N   1      29.220  17.606   5.811  0.00  0.00     0.075 A 
HETATM    5  C   UNK N   1      28.441  18.136   8.058  0.00  0.00     0.075 A 
HETATM    6  C   UNK N   1      28.196  18.118   6.663  0.00  0.00     0.017 A 
ENDROOT
BRANCH   6   7
HETATM    7  C   UNK N   1      26.845  18.613   6.120  0.00  0.00     0.055 C 
HETATM    8  C   UNK N   1      26.072  17.553   5.351  0.00  0.00    -0.014 C 
HETATM    9  C   UNK N   1      25.550  17.760   4.131  0.00  0.00    -0.087 C 
HETATM   10  C   UNK N   1      25.681  19.083   3.438  0.00  0.00     0.034 C 
HETATM   11  C   UNK N   1      24.832  16.651   3.445  0.00  0.00     0.043 C 
HETATM   12  C   UNK N   1      25.743  20.209   4.453  0.00  0.00     0.014 C 
HETATM   13  C   UNK N   1      26.933  19.983   5.383  0.00  0.00     0.026 C 
BRANCH  13  14
HETATM   14  C   UNK N   1      27.032  21.154   6.320  0.00  0.00    -0.088 C 
HETATM   15  C   UNK N   1      28.104  21.953   6.315  0.00  0.00     0.014 C 
HETATM   16  C   UNK N   1      25.948  21.394   7.313  0.00  0.00     0.043 C 
ENDBRANCH  13  14
ENDBRANCH   6   7
BRANCH   4  17
HETATM   17  O   UNK N   1      29.069  17.554   4.477  0.00  0.00    -0.360 OA
HETATM   18  H   UNK N   1      28.471  16.960   4.067  0.00  0.00     0.217 HD
ENDBRANCH   4  17
BRANCH   5  19
HETATM   19  O   UNK N   1      27.510  18.570   8.919  0.00  0.00    -0.360 OA
HETATM   20  H   UNK N   1      26.902  18.073   9.430  0.00  0.00     0.217 HD
ENDBRANCH   5  19
BRANCH   2  21
HETATM   21  C   UNK N   1      31.923  16.651   8.283  0.00  0.00     0.039 C 
BRANCH  21  22
HETATM   22  C   UNK N   1      32.869  17.800   8.604  0.00  0.00     0.005 C 
BRANCH  22  23
HETATM   23  C   UNK N   1      33.833  18.031   7.459  0.00  0.00    -0.000 C 
BRANCH  23  24
HETATM   24  C   UNK N   1      34.189  16.704   6.818  0.00  0.00    -0.005 C 
HETATM   25  C   UNK N   1      33.863  16.748   5.342  0.00  0.00     0.005 C 
ENDBRANCH  23  24
ENDBRANCH  22  23
ENDBRANCH  21  22
ENDBRANCH   2  21
TORSDOF 8
ENDMDL
MODEL 7
REMARK VINA RESULT:      -6.1     13.948     17.226
REMARK  8 active torsions:
REMARK  status: ('A' for Active; 'I' for Inactive)
REMARK    1  A    between atoms: C_2  and  C_16 
REMARK    2  A    between atoms: C_4  and  O_15 
REMARK    3  A    between atoms: C_5  and  O_23 
REMARK    4  A    between atoms: C_9  and  C_6 
REMARK    5  A    between atoms: C_8  and  C_7 
REMARK    6  A    between atoms: C_16  and  C_17 
REMARK    7  A    between atoms: C_17  and  C_18 
REMARK    8  A    between atoms: C_18  and  C_19 
ROOT
HETATM    1  C   UNK N   1      28.722  23.648  -2.887  0.00  0.00     0.044 A 
HETATM    2  C   UNK N   1      30.040  23.461  -3.299  0.00  0.00    -0.053 A 
HETATM    3  C   UNK N   1      30.538  24.195  -4.371  0.00  0.00     0.044 A 
HETATM    4  C   UNK N   1      29.730  25.119  -5.041  0.00  0.00     0.075 A 
HETATM    5  C   UNK N   1      27.890  24.555  -3.547  0.00  0.00     0.075 A 
HETATM    6  C   UNK N   1      28.376  25.317  -4.638  0.00  0.00     0.017 A 
ENDROOT
BRANCH   6   7
HETATM    7  C   UNK N   1      27.437  26.296  -5.361  0.00  0.00     0.055 C 
HETATM    8  C   UNK N   1      27.437  27.695  -4.763  0.00  0.00    -0.014 C 
HETATM    9  C   UNK N   1      26.316  28.359  -4.438  0.00  0.00    -0.087 C 
HETATM   10  C   UNK N   1      24.959  27.763  -4.665  0.00  0.00     0.034 C 
HETATM   11  C   UNK N   1      26.418  29.714  -3.831  0.00  0.00     0.043 C 
HETATM   12  C   UNK N   1      24.985  26.827  -5.859  0.00  0.00     0.014 C 
HETATM   13  C   UNK N   1      26.011  25.723  -5.611  0.00  0.00     0.026 C 
BRANCH  13  14
HETATM   14  C   UNK N   1      25.955  24.757  -6.762  0.00  0.00    -0.088 C 
HETATM   15  C   UNK N   1      25.888  25.191  -8.025  0.00  0.00     0.014 C 
HETATM   16  C   UNK N   1      25.911  23.293  -6.491  0.00  0.00     0.043 C 
ENDBRANCH  13  14
ENDBRANCH   6   7
BRANCH   4  17
HETATM   17  O   UNK N   1      30.270  25.802  -6.065  0.00  0.00    -0.360 OA
HETATM   18  H   UNK N   1      30.856  25.401  -6.676  0.00  0.00     0.217 HD
ENDBRANCH   4  17
BRANCH   5  19
HETATM   19  O   UNK N   1      26.618  24.664  -3.138  0.00  0.00    -0.360 OA
HETATM   20  H   UNK N   1      25.829  24.498  -3.614  0.00  0.00     0.217 HD
ENDBRANCH   5  19
BRANCH   2  21
HETATM   21  C   UNK N   1      30.916  22.469  -2.612  0.00  0.00     0.039 C 
BRANCH  21  22
HETATM   22  C   UNK N   1      31.392  21.409  -3.596  0.00  0.00     0.005 C 
BRANCH  22  23
HETATM   23  C   UNK N   1      32.841  21.645  -3.972  0.00  0.00    -0.000 C 
BRANCH  23  24
HETATM   24  C   UNK N   1      33.732  20.718  -3.169  0.00  0.00    -0.005 C 
HETATM   25  C   UNK N   1      34.009  19.462  -3.965  0.00  0.00     0.005 C 
ENDBRANCH  23  24
ENDBRANCH  22  23
ENDBRANCH  21  22
ENDBRANCH   2  21
TORSDOF 8
ENDMDL
MODEL 8
REMARK VINA RESULT:      -6.0     14.440     17.907
REMARK  8 active torsions:
REMARK  status: ('A' for Active; 'I' for Inactive)
REMARK    1  A    between atoms: C_2  and  C_16 
REMARK    2  A    between atoms: C_4  and  O_15 
REMARK    3  A    between atoms: C_5  and  O_23 
REMARK    4  A    between atoms: C_9  and  C_6 
REMARK    5  A    between atoms: C_8  and  C_7 
REMARK    6  A    between atoms: C_16  and  C_17 
REMARK    7  A    between atoms: C_17  and  C_18 
REMARK    8  A    between atoms: C_18  and  C_19 
ROOT
HETATM    1  C   UNK N   1      28.414  23.715  -3.115  0.00  0.00     0.044 A 
HETATM    2  C   UNK N   1      29.804  23.642  -3.174  0.00  0.00    -0.053 A 
HETATM    3  C   UNK N   1      30.513  24.583  -3.912  0.00  0.00     0.044 A 
HETATM    4  C   UNK N   1      29.847  25.604  -4.598  0.00  0.00     0.075 A 
HETATM    5  C   UNK N   1      27.722  24.716  -3.800  0.00  0.00     0.075 A 
HETATM    6  C   UNK N   1      28.423  25.690  -4.554  0.00  0.00     0.017 A 
ENDROOT
BRANCH   6   7
HETATM    7  C   UNK N   1      27.640  26.772  -5.315  0.00  0.00     0.055 C 
HETATM    8  C   UNK N   1      27.781  26.677  -6.827  0.00  0.00    -0.014 C 
HETATM    9  C   UNK N   1      28.106  27.722  -7.605  0.00  0.00    -0.087 C 
HETATM   10  C   UNK N   1      28.338  29.086  -7.027  0.00  0.00     0.034 C 
HETATM   11  C   UNK N   1      28.248  27.525  -9.073  0.00  0.00     0.043 C 
HETATM   12  C   UNK N   1      27.496  29.283  -5.780  0.00  0.00     0.014 C 
HETATM   13  C   UNK N   1      27.857  28.209  -4.755  0.00  0.00     0.026 C 
BRANCH  13  14
HETATM   14  C   UNK N   1      27.081  28.477  -3.495  0.00  0.00    -0.088 C 
HETATM   15  C   UNK N   1      25.803  28.101  -3.379  0.00  0.00     0.014 C 
HETATM   16  C   UNK N   1      27.725  29.226  -2.381  0.00  0.00     0.043 C 
ENDBRANCH  13  14
ENDBRANCH   6   7
BRANCH   4  17
HETATM   17  O   UNK N   1      30.587  26.488  -5.289  0.00  0.00    -0.360 OA
HETATM   18  H   UNK N   1      31.333  26.912  -4.912  0.00  0.00     0.217 HD
ENDBRANCH   4  17
BRANCH   5  19
HETATM   19  O   UNK N   1      26.383  24.715  -3.744  0.00  0.00    -0.360 OA
HETATM   20  H   UNK N   1      25.764  24.598  -4.437  0.00  0.00     0.217 HD
ENDBRANCH   5  19
BRANCH   2  21
HETATM   21  C   UNK N   1      30.537  22.552  -2.467  0.00  0.00     0.039 C 
BRANCH  21  22
HETATM   22  C   UNK N   1      30.453  21.254  -3.258  0.00  0.00     0.005 C 
BRANCH  22  23
HETATM   23  C   UNK N   1      31.754  20.991  -3.987  0.00  0.00    -0.000 C 
BRANCH  23  24
HETATM   24  C   UNK N   1      31.470  20.697  -5.447  0.00  0.00    -0.005 C 
HETATM   25  C   UNK N   1      30.027  21.026  -5.761  0.00  0.00     0.005 C 
ENDBRANCH  23  24
ENDBRANCH  22  23
ENDBRANCH  21  22
ENDBRANCH   2  21
TORSDOF 8
ENDMDL
MODEL 9
REMARK VINA RESULT:      -5.9      4.270      7.308
REMARK  8 active torsions:
REMARK  status: ('A' for Active; 'I' for Inactive)
REMARK    1  A    between atoms: C_2  and  C_16 
REMARK    2  A    between atoms: C_4  and  O_15 
REMARK    3  A    between atoms: C_5  and  O_23 
REMARK    4  A    between atoms: C_9  and  C_6 
REMARK    5  A    between atoms: C_8  and  C_7 
REMARK    6  A    between atoms: C_16  and  C_17 
REMARK    7  A    between atoms: C_17  and  C_18 
REMARK    8  A    between atoms: C_18  and  C_19 
ROOT
HETATM    1  C   UNK N   1      28.697  18.785   7.638  0.00  0.00     0.044 A 
HETATM    2  C   UNK N   1      29.732  17.858   7.731  0.00  0.00    -0.053 A 
HETATM    3  C   UNK N   1      29.797  16.803   6.827  0.00  0.00     0.044 A 
HETATM    4  C   UNK N   1      28.833  16.661   5.824  0.00  0.00     0.075 A 
HETATM    5  C   UNK N   1      27.714  18.660   6.654  0.00  0.00     0.075 A 
HETATM    6  C   UNK N   1      27.761  17.597   5.718  0.00  0.00     0.017 A 
ENDROOT
BRANCH   6   7
HETATM    7  C   UNK N   1      26.658  17.468   4.655  0.00  0.00     0.055 C 
HETATM    8  C   UNK N   1      26.546  18.681   3.744  0.00  0.00    -0.014 C 
HETATM    9  C   UNK N   1      25.386  19.309   3.490  0.00  0.00    -0.087 C 
HETATM   10  C   UNK N   1      24.093  18.836   4.085  0.00  0.00     0.034 C 
HETATM   11  C   UNK N   1      25.381  20.507   2.606  0.00  0.00     0.043 C 
HETATM   12  C   UNK N   1      24.128  17.335   4.302  0.00  0.00     0.014 C 
HETATM   13  C   UNK N   1      25.292  16.987   5.229  0.00  0.00     0.026 C 
BRANCH  13  14
HETATM   14  C   UNK N   1      25.253  15.510   5.505  0.00  0.00    -0.088 C 
HETATM   15  C   UNK N   1      25.224  15.043   6.758  0.00  0.00     0.014 C 
HETATM   16  C   UNK N   1      25.309  14.548   4.369  0.00  0.00     0.043 C 
ENDBRANCH  13  14
ENDBRANCH   6   7
BRANCH   4  17
HETATM   17  O   UNK N   1      28.952  15.625   4.977  0.00  0.00    -0.360 OA
HETATM   18  H   UNK N   1      28.233  15.057   4.782  0.00  0.00     0.217 HD
ENDBRANCH   4  17
BRANCH   5  19
HETATM   19  O   UNK N   1      26.716  19.555   6.635  0.00  0.00    -0.360 OA
HETATM   20  H   UNK N   1      26.413  20.085   5.926  0.00  0.00     0.217 HD
ENDBRANCH   5  19
BRANCH   2  21
HETATM   21  C   UNK N   1      30.763  17.978   8.803  0.00  0.00     0.039 C 
BRANCH  21  22
HETATM   22  C   UNK N   1      32.026  17.222   8.412  0.00  0.00     0.005 C 
BRANCH  22  23
HETATM   23  C   UNK N   1      33.151  18.190   8.107  0.00  0.00    -0.000 C 
BRANCH  23  24
HETATM   24  C   UNK N   1      34.071  17.587   7.063  0.00  0.00    -0.005 C 
HETATM   25  C   UNK N   1      33.331  17.445   5.752  0.00  0.00     0.005 C 
ENDBRANCH  23  24
ENDBRANCH  22  23
ENDBRANCH  21  22
ENDBRANCH   2  21
TORSDOF 8
ENDMDL
