MODEL 1
REMARK VINA RESULT:      -6.6      0.000      0.000
REMARK  2 active torsions:
REMARK  status: ('A' for Active; 'I' for Inactive)
REMARK    1  A    between atoms: O_1  and  C_11 
REMARK    2  A    between atoms: N_5  and  N_7 
REMARK       I    between atoms: N_7  and  C_18 
REMARK       I    between atoms: N_8  and  C_18 
ROOT
HETATM    1  O   UNK N   1      34.474  13.519  11.857  0.00  0.00    -0.286 OA
HETATM    2  N   UNK N   1      32.960  16.294   8.272  0.00  0.00    -0.382 N 
HETATM    3  N   UNK N   1      36.489  15.460  12.431  0.00  0.00    -0.293 N 
ATOM      4  HN  UNK N   1      37.179  16.198  12.572  1.00  0.00     0.187 HD
HETATM    5  C   UNK N   1      34.759  16.887   9.633  0.00  0.00     0.001 A 
HETATM    6  C   UNK N   1      33.755  15.896   9.365  0.00  0.00     0.042 A 
HETATM    7  C   UNK N   1      34.561  17.958   8.638  0.00  0.00     0.171 A 
HETATM    8  C   UNK N   1      35.627  15.578  11.478  0.00  0.00     0.099 A 
HETATM    9  C   UNK N   1      35.663  16.786  10.615  0.00  0.00     0.047 A 
HETATM   10  C   UNK N   1      34.570  14.539  11.193  0.00  0.00     0.202 A 
HETATM   11  C   UNK N   1      33.626  14.769  10.075  0.00  0.00     0.087 A 
HETATM   12  C   UNK N   1      33.372  17.579   7.727  0.00  0.00     0.159 A 
HETATM   13  C   UNK N   1      31.862  15.525   7.744  0.00  0.00     0.150 C 
ENDROOT
BRANCH   3  14
HETATM   14  N   UNK N   1      36.502  14.365  13.260  0.00  0.00    -0.251 N 
HETATM   15  C   UNK N   1      36.811  14.472  14.569  0.00  0.00     0.332 C 
HETATM   16  O   UNK N   1      37.090  15.557  15.055  0.00  0.00    -0.246 OA
HETATM   17  N   UNK N   1      36.812  13.371  15.344  0.00  0.00    -0.351 N 
HETATM   18  H   UNK N   1      36.587  12.495  14.954  0.00  0.00     0.160 HD
HETATM   19  H   UNK N   1      37.036  13.442  16.299  0.00  0.00     0.160 HD
HETATM   20  H   UNK N   1      36.281  13.480  12.890  0.00  0.00     0.191 HD
ENDBRANCH   3  14
BRANCH   7  21
HETATM   21  O   UNK N   1      35.327  19.118   8.541  0.00  0.00    -0.389 OA
HETATM   22  H   UNK N   1      35.022  19.938   8.961  0.00  0.00     0.210 HD
ENDBRANCH   7  21
TORSDOF 2
ENDMDL
MODEL 2
REMARK VINA RESULT:      -6.3      1.861      5.921
REMARK  2 active torsions:
REMARK  status: ('A' for Active; 'I' for Inactive)
REMARK    1  A    between atoms: O_1  and  C_11 
REMARK    2  A    between atoms: N_5  and  N_7 
REMARK       I    between atoms: N_7  and  C_18 
REMARK       I    between atoms: N_8  and  C_18 
ROOT
HETATM    1  O   UNK N   1      33.827  14.500   9.292  0.00  0.00    -0.286 OA
HETATM    2  N   UNK N   1      35.668  12.320  13.127  0.00  0.00    -0.382 N 
HETATM    3  N   UNK N   1      34.874  16.972  10.268  0.00  0.00    -0.293 N 
ATOM      4  HN  UNK N   1      35.279  17.812  10.682  1.00  0.00     0.187 HD
HETATM    5  C   UNK N   1      35.896  14.614  12.768  0.00  0.00     0.001 A 
HETATM    6  C   UNK N   1      35.359  13.384  12.257  0.00  0.00     0.042 A 
HETATM    7  C   UNK N   1      36.575  14.275  14.033  0.00  0.00     0.171 A 
HETATM    8  C   UNK N   1      35.015  15.841  10.875  0.00  0.00     0.099 A 
HETATM    9  C   UNK N   1      35.762  15.797  12.157  0.00  0.00     0.047 A 
HETATM   10  C   UNK N   1      34.453  14.547  10.340  0.00  0.00     0.202 A 
HETATM   11  C   UNK N   1      34.670  13.302  11.112  0.00  0.00     0.087 A 
HETATM   12  C   UNK N   1      36.434  12.757  14.285  0.00  0.00     0.159 A 
HETATM   13  C   UNK N   1      35.277  10.951  12.907  0.00  0.00     0.150 C 
ENDROOT
BRANCH   3  14
HETATM   14  N   UNK N   1      34.194  17.073   9.079  0.00  0.00    -0.251 N 
HETATM   15  C   UNK N   1      34.400  18.101   8.231  0.00  0.00     0.332 C 
HETATM   16  O   UNK N   1      35.206  18.978   8.501  0.00  0.00    -0.246 OA
HETATM   17  N   UNK N   1      33.710  18.159   7.076  0.00  0.00    -0.351 N 
HETATM   18  H   UNK N   1      33.059  17.453   6.856  0.00  0.00     0.160 HD
HETATM   19  H   UNK N   1      33.856  18.906   6.453  0.00  0.00     0.160 HD
HETATM   20  H   UNK N   1      33.539  16.378   8.840  0.00  0.00     0.191 HD
ENDBRANCH   3  14
BRANCH   7  21
HETATM   21  O   UNK N   1      37.236  15.181  14.860  0.00  0.00    -0.389 OA
HETATM   22  H   UNK N   1      38.123  15.496  14.624  0.00  0.00     0.210 HD
ENDBRANCH   7  21
TORSDOF 2
ENDMDL
MODEL 3
REMARK VINA RESULT:      -6.0      3.137      5.084
REMARK  2 active torsions:
REMARK  status: ('A' for Active; 'I' for Inactive)
REMARK    1  A    between atoms: O_1  and  C_11 
REMARK    2  A    between atoms: N_5  and  N_7 
REMARK       I    between atoms: N_7  and  C_18 
REMARK       I    between atoms: N_8  and  C_18 
ROOT
HETATM    1  O   UNK N   1      35.069  16.950   7.250  0.00  0.00    -0.286 OA
HETATM    2  N   UNK N   1      31.366  17.072   4.230  0.00  0.00    -0.382 N 
HETATM    3  N   UNK N   1      33.222  17.047   9.426  0.00  0.00    -0.293 N 
ATOM      4  HN  UNK N   1      32.501  17.084  10.146  1.00  0.00     0.187 HD
HETATM    5  C   UNK N   1      31.088  17.107   6.546  0.00  0.00     0.001 A 
HETATM    6  C   UNK N   1      32.036  17.057   5.469  0.00  0.00     0.042 A 
HETATM    7  C   UNK N   1      29.753  17.155   5.920  0.00  0.00     0.171 A 
HETATM    8  C   UNK N   1      32.871  17.049   8.184  0.00  0.00     0.099 A 
HETATM    9  C   UNK N   1      31.428  17.105   7.841  0.00  0.00     0.047 A 
HETATM   10  C   UNK N   1      33.866  16.998   7.049  0.00  0.00     0.202 A 
HETATM   11  C   UNK N   1      33.361  17.005   5.657  0.00  0.00     0.087 A 
HETATM   12  C   UNK N   1      29.920  17.133   4.384  0.00  0.00     0.159 A 
HETATM   13  C   UNK N   1      32.025  17.033   2.950  0.00  0.00     0.150 C 
ENDROOT
BRANCH   3  14
HETATM   14  N   UNK N   1      34.543  16.997   9.803  0.00  0.00    -0.251 N 
HETATM   15  C   UNK N   1      35.001  16.052  10.650  0.00  0.00     0.332 C 
HETATM   16  O   UNK N   1      34.246  15.209  11.109  0.00  0.00    -0.246 OA
HETATM   17  N   UNK N   1      36.303  16.042  10.991  0.00  0.00    -0.351 N 
HETATM   18  H   UNK N   1      36.914  16.721  10.623  0.00  0.00     0.160 HD
HETATM   19  H   UNK N   1      36.644  15.356  11.609  0.00  0.00     0.160 HD
HETATM   20  H   UNK N   1      35.170  17.666   9.446  0.00  0.00     0.191 HD
ENDBRANCH   3  14
BRANCH   7  21
HETATM   21  O   UNK N   1      28.543  17.211   6.609  0.00  0.00    -0.389 OA
HETATM   22  H   UNK N   1      27.930  17.948   6.455  0.00  0.00     0.210 HD
ENDBRANCH   7  21
TORSDOF 2
ENDMDL
MODEL 4
REMARK VINA RESULT:      -5.8      3.730      5.643
REMARK  2 active torsions:
REMARK  status: ('A' for Active; 'I' for Inactive)
REMARK    1  A    between atoms: O_1  and  C_11 
REMARK    2  A    between atoms: N_5  and  N_7 
REMARK       I    between atoms: N_7  and  C_18 
REMARK       I    between atoms: N_8  and  C_18 
ROOT
HETATM    1  O   UNK N   1      32.840  15.472   6.755  0.00  0.00    -0.286 OA
HETATM    2  N   UNK N   1      28.745  17.629   5.559  0.00  0.00    -0.382 N 
HETATM    3  N   UNK N   1      32.402  16.273   9.462  0.00  0.00    -0.293 N 
ATOM      4  HN  UNK N   1      32.175  16.595  10.402  1.00  0.00     0.187 HD
HETATM    5  C   UNK N   1      29.546  17.601   7.750  0.00  0.00     0.001 A 
HETATM    6  C   UNK N   1      29.788  17.186   6.396  0.00  0.00     0.042 A 
HETATM    7  C   UNK N   1      28.271  18.344   7.733  0.00  0.00     0.171 A 
HETATM    8  C   UNK N   1      31.598  16.548   8.491  0.00  0.00     0.099 A 
HETATM    9  C   UNK N   1      30.366  17.327   8.772  0.00  0.00     0.047 A 
HETATM   10  C   UNK N   1      31.849  16.115   7.067  0.00  0.00     0.202 A 
HETATM   11  C   UNK N   1      30.864  16.482   6.025  0.00  0.00     0.087 A 
HETATM   12  C   UNK N   1      27.728  18.371   6.288  0.00  0.00     0.159 A 
HETATM   13  C   UNK N   1      28.682  17.381   4.142  0.00  0.00     0.150 C 
ENDROOT
BRANCH   3  14
HETATM   14  N   UNK N   1      33.557  15.556   9.260  0.00  0.00    -0.251 N 
HETATM   15  C   UNK N   1      34.755  16.012   9.682  0.00  0.00     0.332 C 
HETATM   16  O   UNK N   1      34.845  17.084  10.258  0.00  0.00    -0.246 OA
HETATM   17  N   UNK N   1      35.860  15.275   9.462  0.00  0.00    -0.351 N 
HETATM   18  H   UNK N   1      35.791  14.410   8.997  0.00  0.00     0.160 HD
HETATM   19  H   UNK N   1      36.737  15.602   9.767  0.00  0.00     0.160 HD
HETATM   20  H   UNK N   1      33.510  14.689   8.798  0.00  0.00     0.191 HD
ENDBRANCH   3  14
BRANCH   7  21
HETATM   21  O   UNK N   1      27.664  18.923   8.845  0.00  0.00    -0.389 OA
HETATM   22  H   UNK N   1      27.247  19.797   8.771  0.00  0.00     0.210 HD
ENDBRANCH   7  21
TORSDOF 2
ENDMDL
MODEL 5
REMARK VINA RESULT:      -5.8     11.062     14.161
REMARK  2 active torsions:
REMARK  status: ('A' for Active; 'I' for Inactive)
REMARK    1  A    between atoms: O_1  and  C_11 
REMARK    2  A    between atoms: N_5  and  N_7 
REMARK       I    between atoms: N_7  and  C_18 
REMARK       I    between atoms: N_8  and  C_18 
ROOT
HETATM    1  O   UNK N   1      24.870  17.758   4.960  0.00  0.00    -0.286 OA
HETATM    2  N   UNK N   1      20.465  18.467   3.245  0.00  0.00    -0.382 N 
HETATM    3  N   UNK N   1      25.651  20.260   3.827  0.00  0.00    -0.293 N 
ATOM      4  HN  UNK N   1      25.851  21.162   3.394  1.00  0.00     0.187 HD
HETATM    5  C   UNK N   1      22.190  20.004   2.924  0.00  0.00     0.001 A 
HETATM    6  C   UNK N   1      21.822  18.743   3.503  0.00  0.00     0.042 A 
HETATM    7  C   UNK N   1      20.976  20.530   2.271  0.00  0.00     0.171 A 
HETATM    8  C   UNK N   1      24.460  19.769   3.736  0.00  0.00     0.099 A 
HETATM    9  C   UNK N   1      23.418  20.532   3.005  0.00  0.00     0.047 A 
HETATM   10  C   UNK N   1      24.070  18.444   4.344  0.00  0.00     0.202 A 
HETATM   11  C   UNK N   1      22.676  17.969   4.184  0.00  0.00     0.087 A 
HETATM   12  C   UNK N   1      19.823  19.522   2.474  0.00  0.00     0.159 A 
HETATM   13  C   UNK N   1      19.779  17.281   3.687  0.00  0.00     0.150 C 
ENDROOT
BRANCH   3  14
HETATM   14  N   UNK N   1      26.655  19.599   4.491  0.00  0.00    -0.251 N 
HETATM   15  C   UNK N   1      27.160  20.063   5.653  0.00  0.00     0.332 C 
HETATM   16  O   UNK N   1      26.733  21.094   6.148  0.00  0.00    -0.246 OA
HETATM   17  N   UNK N   1      28.144  19.381   6.269  0.00  0.00    -0.351 N 
HETATM   18  H   UNK N   1      28.490  18.549   5.871  0.00  0.00     0.160 HD
HETATM   19  H   UNK N   1      28.517  19.714   7.116  0.00  0.00     0.160 HD
HETATM   20  H   UNK N   1      27.015  18.765   4.111  0.00  0.00     0.191 HD
ENDBRANCH   3  14
BRANCH   7  21
HETATM   21  O   UNK N   1      20.892  21.739   1.584  0.00  0.00    -0.389 OA
HETATM   22  H   UNK N   1      20.109  22.303   1.687  0.00  0.00     0.210 HD
ENDBRANCH   7  21
TORSDOF 2
ENDMDL
MODEL 6
REMARK VINA RESULT:      -5.7      3.778      7.560
REMARK  2 active torsions:
REMARK  status: ('A' for Active; 'I' for Inactive)
REMARK    1  A    between atoms: O_1  and  C_11 
REMARK    2  A    between atoms: N_5  and  N_7 
REMARK       I    between atoms: N_7  and  C_18 
REMARK       I    between atoms: N_8  and  C_18 
ROOT
HETATM    1  O   UNK N   1      36.643  11.220  13.284  0.00  0.00    -0.286 OA
HETATM    2  N   UNK N   1      35.263  11.430  17.856  0.00  0.00    -0.382 N 
HETATM    3  N   UNK N   1      36.925  14.062  13.300  0.00  0.00    -0.293 N 
ATOM      4  HN  UNK N   1      37.001  15.076  13.386  1.00  0.00     0.187 HD
HETATM    5  C   UNK N   1      35.829  13.336  16.636  0.00  0.00     0.001 A 
HETATM    6  C   UNK N   1      35.695  11.906  16.602  0.00  0.00     0.042 A 
HETATM    7  C   UNK N   1      35.454  13.755  18.000  0.00  0.00     0.171 A 
HETATM    8  C   UNK N   1      36.542  13.371  14.321  0.00  0.00     0.099 A 
HETATM    9  C   UNK N   1      36.224  14.072  15.590  0.00  0.00     0.047 A 
HETATM   10  C   UNK N   1      36.400  11.869  14.290  0.00  0.00     0.202 A 
HETATM   11  C   UNK N   1      35.953  11.169  15.516  0.00  0.00     0.087 A 
HETATM   12  C   UNK N   1      35.075  12.503  18.821  0.00  0.00     0.159 A 
HETATM   13  C   UNK N   1      35.029  10.042  18.160  0.00  0.00     0.150 C 
ENDROOT
BRANCH   3  14
HETATM   14  N   UNK N   1      37.233  13.467  12.101  0.00  0.00    -0.251 N 
HETATM   15  C   UNK N   1      36.910  14.041  10.923  0.00  0.00     0.332 C 
HETATM   16  O   UNK N   1      36.331  15.115  10.893  0.00  0.00    -0.246 OA
HETATM   17  N   UNK N   1      37.232  13.421   9.772  0.00  0.00    -0.351 N 
HETATM   18  H   UNK N   1      37.699  12.554   9.793  0.00  0.00     0.160 HD
HETATM   19  H   UNK N   1      36.999  13.834   8.910  0.00  0.00     0.160 HD
HETATM   20  H   UNK N   1      37.700  12.600  12.100  0.00  0.00     0.191 HD
ENDBRANCH   3  14
BRANCH   7  21
HETATM   21  O   UNK N   1      35.445  15.069  18.463  0.00  0.00    -0.389 OA
HETATM   22  H   UNK N   1      35.419  15.807  17.832  0.00  0.00     0.210 HD
ENDBRANCH   7  21
TORSDOF 2
ENDMDL
MODEL 7
REMARK VINA RESULT:      -5.6      2.868      4.616
REMARK  2 active torsions:
REMARK  status: ('A' for Active; 'I' for Inactive)
REMARK    1  A    between atoms: O_1  and  C_11 
REMARK    2  A    between atoms: N_5  and  N_7 
REMARK       I    between atoms: N_7  and  C_18 
REMARK       I    between atoms: N_8  and  C_18 
ROOT
HETATM    1  O   UNK N   1      33.966  13.988   8.484  0.00  0.00    -0.286 OA
HETATM    2  N   UNK N   1      30.530  14.625   5.222  0.00  0.00    -0.382 N 
HETATM    3  N   UNK N   1      33.284  16.522   9.611  0.00  0.00    -0.293 N 
ATOM      4  HN  UNK N   1      32.982  17.434   9.954  1.00  0.00     0.187 HD
HETATM    5  C   UNK N   1      30.984  16.204   6.879  0.00  0.00     0.001 A 
HETATM    6  C   UNK N   1      31.346  14.927   6.331  0.00  0.00     0.042 A 
HETATM    7  C   UNK N   1      29.875  16.712   6.049  0.00  0.00     0.171 A 
HETATM    8  C   UNK N   1      32.691  16.007   8.587  0.00  0.00     0.099 A 
HETATM    9  C   UNK N   1      31.585  16.757   7.939  0.00  0.00     0.047 A 
HETATM   10  C   UNK N   1      33.068  14.666   8.008  0.00  0.00     0.202 A 
HETATM   11  C   UNK N   1      32.324  14.162   6.830  0.00  0.00     0.087 A 
HETATM   12  C   UNK N   1      29.562  15.677   4.946  0.00  0.00     0.159 A 
HETATM   13  C   UNK N   1      30.631  13.418   4.444  0.00  0.00     0.150 C 
ENDROOT
BRANCH   3  14
HETATM   14  N   UNK N   1      34.313  15.874  10.250  0.00  0.00    -0.251 N 
HETATM   15  C   UNK N   1      35.476  16.497  10.531  0.00  0.00     0.332 C 
HETATM   16  O   UNK N   1      35.646  17.666  10.220  0.00  0.00    -0.246 OA
HETATM   17  N   UNK N   1      36.457  15.822  11.159  0.00  0.00    -0.351 N 
HETATM   18  H   UNK N   1      36.322  14.879  11.410  0.00  0.00     0.160 HD
HETATM   19  H   UNK N   1      37.308  16.270  11.366  0.00  0.00     0.160 HD
HETATM   20  H   UNK N   1      34.199  14.932  10.510  0.00  0.00     0.191 HD
ENDBRANCH   3  14
BRANCH   7  21
HETATM   21  O   UNK N   1      29.222  17.929   6.237  0.00  0.00    -0.389 OA
HETATM   22  H   UNK N   1      28.517  18.200   5.628  0.00  0.00     0.210 HD
ENDBRANCH   7  21
TORSDOF 2
ENDMDL
MODEL 8
REMARK VINA RESULT:      -5.6      2.116      3.056
REMARK  2 active torsions:
REMARK  status: ('A' for Active; 'I' for Inactive)
REMARK    1  A    between atoms: O_1  and  C_11 
REMARK    2  A    between atoms: N_5  and  N_7 
REMARK       I    between atoms: N_7  and  C_18 
REMARK       I    between atoms: N_8  and  C_18 
ROOT
HETATM    1  O   UNK N   1      36.165  16.520  10.886  0.00  0.00    -0.286 OA
HETATM    2  N   UNK N   1      33.476  16.213   6.945  0.00  0.00    -0.382 N 
HETATM    3  N   UNK N   1      35.718  13.736  11.337  0.00  0.00    -0.293 N 
ATOM      4  HN  UNK N   1      35.512  12.741  11.428  1.00  0.00     0.187 HD
HETATM    5  C   UNK N   1      33.891  14.372   8.318  0.00  0.00     0.001 A 
HETATM    6  C   UNK N   1      34.131  15.773   8.113  0.00  0.00     0.042 A 
HETATM    7  C   UNK N   1      33.034  13.931   7.201  0.00  0.00     0.171 A 
HETATM    8  C   UNK N   1      35.231  14.390  10.336  0.00  0.00     0.099 A 
HETATM    9  C   UNK N   1      34.386  13.674   9.348  0.00  0.00     0.047 A 
HETATM   10  C   UNK N   1      35.480  15.862  10.118  0.00  0.00     0.202 A 
HETATM   11  C   UNK N   1      34.876  16.521   8.937  0.00  0.00     0.087 A 
HETATM   12  C   UNK N   1      32.750  15.140   6.282  0.00  0.00     0.159 A 
HETATM   13  C   UNK N   1      33.513  17.566   6.454  0.00  0.00     0.150 C 
ENDROOT
BRANCH   3  14
HETATM   14  N   UNK N   1      36.506  14.346  12.282  0.00  0.00    -0.251 N 
HETATM   15  C   UNK N   1      36.199  14.302  13.595  0.00  0.00     0.332 C 
HETATM   16  O   UNK N   1      35.201  13.713  13.981  0.00  0.00    -0.246 OA
HETATM   17  N   UNK N   1      37.001  14.914  14.486  0.00  0.00    -0.351 N 
HETATM   18  H   UNK N   1      37.807  15.390  14.178  0.00  0.00     0.160 HD
HETATM   19  H   UNK N   1      36.783  14.886  15.445  0.00  0.00     0.160 HD
HETATM   20  H   UNK N   1      37.316  14.827  11.995  0.00  0.00     0.191 HD
ENDBRANCH   3  14
BRANCH   7  21
HETATM   21  O   UNK N   1      32.563  12.633   7.014  0.00  0.00    -0.389 OA
HETATM   22  H   UNK N   1      33.105  11.875   7.286  0.00  0.00     0.210 HD
ENDBRANCH   7  21
TORSDOF 2
ENDMDL
MODEL 9
REMARK VINA RESULT:      -5.5      6.337      9.125
REMARK  2 active torsions:
REMARK  status: ('A' for Active; 'I' for Inactive)
REMARK    1  A    between atoms: O_1  and  C_11 
REMARK    2  A    between atoms: N_5  and  N_7 
REMARK       I    between atoms: N_7  and  C_18 
REMARK       I    between atoms: N_8  and  C_18 
ROOT
HETATM    1  O   UNK N   1      34.836  13.224  19.821  0.00  0.00    -0.286 OA
HETATM    2  N   UNK N   1      36.415  12.835  15.326  0.00  0.00    -0.382 N 
HETATM    3  N   UNK N   1      34.760  10.373  19.979  0.00  0.00    -0.293 N 
ATOM      4  HN  UNK N   1      34.761   9.353  19.956  1.00  0.00     0.187 HD
HETATM    5  C   UNK N   1      35.937  10.971  16.645  0.00  0.00     0.001 A 
HETATM    6  C   UNK N   1      35.966  12.406  16.591  0.00  0.00     0.042 A 
HETATM    7  C   UNK N   1      36.397  10.497  15.326  0.00  0.00     0.171 A 
HETATM    8  C   UNK N   1      35.134  11.026  18.930  0.00  0.00     0.099 A 
HETATM    9  C   UNK N   1      35.553  10.273  17.721  0.00  0.00     0.047 A 
HETATM   10  C   UNK N   1      35.166  12.534  18.869  0.00  0.00     0.202 A 
HETATM   11  C   UNK N   1      35.611  13.188  17.618  0.00  0.00     0.087 A 
HETATM   12  C   UNK N   1      36.718  11.721  14.440  0.00  0.00     0.159 A 
HETATM   13  C   UNK N   1      36.560  14.215  14.942  0.00  0.00     0.150 C 
ENDROOT
BRANCH   3  14
HETATM   14  N   UNK N   1      34.361  11.017  21.125  0.00  0.00    -0.251 N 
HETATM   15  C   UNK N   1      33.268  10.626  21.812  0.00  0.00     0.332 C 
HETATM   16  O   UNK N   1      32.597   9.680  21.428  0.00  0.00    -0.246 OA
HETATM   17  N   UNK N   1      32.915  11.287  22.931  0.00  0.00    -0.351 N 
HETATM   18  H   UNK N   1      33.454  12.050  23.243  0.00  0.00     0.160 HD
HETATM   19  H   UNK N   1      32.119  11.007  23.437  0.00  0.00     0.160 HD
HETATM   20  H   UNK N   1      34.886  11.782  21.454  0.00  0.00     0.191 HD
ENDBRANCH   3  14
BRANCH   7  21
HETATM   21  O   UNK N   1      36.520   9.162  14.949  0.00  0.00    -0.389 OA
HETATM   22  H   UNK N   1      37.389   8.804  14.705  0.00  0.00     0.210 HD
ENDBRANCH   7  21
TORSDOF 2
ENDMDL
