MODEL 1
REMARK VINA RESULT:      -5.5      0.000      0.000
REMARK  0 active torsions:
REMARK  status: ('A' for Active; 'I' for Inactive)
ROOT
HETATM    1  C   UNK N   1      31.417  17.786   8.513  0.00  0.00     0.007 A 
HETATM    2  C   UNK N   1      30.813  17.078   7.481  0.00  0.00     0.026 A 
HETATM    3  C   UNK N   1      32.747  18.175   8.396  0.00  0.00     0.074 A 
HETATM    4  C   UNK N   1      31.867  15.028   4.617  0.00  0.00     0.020 C 
HETATM    5  C   UNK N   1      32.421  16.777   2.938  0.00  0.00     0.120 C 
HETATM    6  C   UNK N   1      30.361  16.957   4.131  0.00  0.00     0.124 C 
HETATM    7  C   UNK N   1      33.715  16.689   5.093  0.00  0.00     0.138 C 
HETATM    8  C   UNK N   1      32.999  15.858   4.015  0.00  0.00     0.022 C 
HETATM    9  C   UNK N   1      30.865  15.997   5.225  0.00  0.00     0.054 C 
HETATM   10  C   UNK N   1      31.546  16.753   6.333  0.00  0.00     0.020 A 
HETATM   11  C   UNK N   1      33.473  17.831   7.255  0.00  0.00     0.247 A 
HETATM   12  N   UNK N   1      31.457  17.711   3.518  0.00  0.00    -0.420 N 
HETATM   13  N   UNK N   1      32.874  17.110   6.236  0.00  0.00    -0.317 N 
HETATM   14  O   UNK N   1      34.642  18.165   7.173  0.00  0.00    -0.268 OA
HETATM   15  H   UNK N   1      31.537  18.728   3.500  0.00  0.00     0.153 HD
ENDROOT
TORSDOF 0
ENDMDL
MODEL 2
REMARK VINA RESULT:      -5.4      3.645      5.454
REMARK  0 active torsions:
REMARK  status: ('A' for Active; 'I' for Inactive)
ROOT
HETATM    1  C   UNK N   1      32.535  17.055   7.327  0.00  0.00     0.007 A 
HETATM    2  C   UNK N   1      32.692  15.916   8.109  0.00  0.00     0.026 A 
HETATM    3  C   UNK N   1      33.416  18.120   7.477  0.00  0.00     0.074 A 
HETATM    4  C   UNK N   1      34.331  15.000  11.270  0.00  0.00     0.020 C 
HETATM    5  C   UNK N   1      36.682  14.674  10.528  0.00  0.00     0.120 C 
HETATM    6  C   UNK N   1      34.936  13.660   9.254  0.00  0.00     0.124 C 
HETATM    7  C   UNK N   1      35.616  16.938  10.273  0.00  0.00     0.138 C 
HETATM    8  C   UNK N   1      35.697  15.670  11.141  0.00  0.00     0.022 C 
HETATM    9  C   UNK N   1      33.885  14.600   9.872  0.00  0.00     0.054 C 
HETATM   10  C   UNK N   1      33.729  15.849   9.047  0.00  0.00     0.020 A 
HETATM   11  C   UNK N   1      34.436  18.049   8.427  0.00  0.00     0.247 A 
HETATM   12  N   UNK N   1      36.258  14.288   9.183  0.00  0.00    -0.420 N 
HETATM   13  N   UNK N   1      34.579  16.921   9.216  0.00  0.00    -0.317 N 
HETATM   14  O   UNK N   1      35.191  18.997   8.557  0.00  0.00    -0.268 OA
HETATM   15  H   UNK N   1      36.797  14.434   8.330  0.00  0.00     0.153 HD
ENDROOT
TORSDOF 0
ENDMDL
MODEL 3
REMARK VINA RESULT:      -5.4     11.351     12.714
REMARK  0 active torsions:
REMARK  status: ('A' for Active; 'I' for Inactive)
ROOT
HETATM    1  C   UNK N   1      35.194  13.426  18.803  0.00  0.00     0.007 A 
HETATM    2  C   UNK N   1      35.004  13.486  17.428  0.00  0.00     0.026 A 
HETATM    3  C   UNK N   1      35.371  12.193  19.422  0.00  0.00     0.074 A 
HETATM    4  C   UNK N   1      33.938  11.220  14.735  0.00  0.00     0.020 C 
HETATM    5  C   UNK N   1      36.044   9.982  14.273  0.00  0.00     0.120 C 
HETATM    6  C   UNK N   1      36.138  12.361  14.447  0.00  0.00     0.124 C 
HETATM    7  C   UNK N   1      34.993   9.810  16.552  0.00  0.00     0.138 C 
HETATM    8  C   UNK N   1      34.724   9.948  15.043  0.00  0.00     0.022 C 
HETATM    9  C   UNK N   1      34.786  12.400  15.184  0.00  0.00     0.054 C 
HETATM   10  C   UNK N   1      34.982  12.307  16.673  0.00  0.00     0.020 A 
HETATM   11  C   UNK N   1      35.330  11.023  18.661  0.00  0.00     0.247 A 
HETATM   12  N   UNK N   1      36.864  11.114  14.702  0.00  0.00    -0.420 N 
HETATM   13  N   UNK N   1      35.123  11.085  17.294  0.00  0.00    -0.317 N 
HETATM   14  O   UNK N   1      35.472   9.949  19.219  0.00  0.00    -0.268 OA
HETATM   15  H   UNK N   1      37.794  11.046  15.114  0.00  0.00     0.153 HD
ENDROOT
TORSDOF 0
ENDMDL
MODEL 4
REMARK VINA RESULT:      -5.3     15.252     16.914
REMARK  0 active torsions:
REMARK  status: ('A' for Active; 'I' for Inactive)
ROOT
HETATM    1  C   UNK N   1      28.545  30.275  -6.028  0.00  0.00     0.007 A 
HETATM    2  C   UNK N   1      28.265  29.105  -6.723  0.00  0.00     0.026 A 
HETATM    3  C   UNK N   1      27.841  30.572  -4.866  0.00  0.00     0.074 A 
HETATM    4  C   UNK N   1      25.501  26.693  -6.972  0.00  0.00     0.020 C 
HETATM    5  C   UNK N   1      25.909  25.270  -4.974  0.00  0.00     0.120 C 
HETATM    6  C   UNK N   1      27.752  25.777  -6.405  0.00  0.00     0.124 C 
HETATM    7  C   UNK N   1      25.419  27.717  -4.661  0.00  0.00     0.138 C 
HETATM    8  C   UNK N   1      25.125  26.468  -5.509  0.00  0.00     0.022 C 
HETATM    9  C   UNK N   1      26.996  26.969  -7.022  0.00  0.00     0.054 C 
HETATM   10  C   UNK N   1      27.272  28.235  -6.257  0.00  0.00     0.020 A 
HETATM   11  C   UNK N   1      26.842  29.705  -4.420  0.00  0.00     0.247 A 
HETATM   12  N   UNK N   1      27.347  25.531  -5.018  0.00  0.00    -0.420 N 
HETATM   13  N   UNK N   1      26.553  28.549  -5.124  0.00  0.00    -0.317 N 
HETATM   14  O   UNK N   1      26.223  29.986  -3.408  0.00  0.00    -0.268 OA
HETATM   15  H   UNK N   1      27.970  25.542  -4.211  0.00  0.00     0.153 HD
ENDROOT
TORSDOF 0
ENDMDL
MODEL 5
REMARK VINA RESULT:      -5.1      4.058      5.339
REMARK  0 active torsions:
REMARK  status: ('A' for Active; 'I' for Inactive)
ROOT
HETATM    1  C   UNK N   1      30.235  16.674   6.669  0.00  0.00     0.007 A 
HETATM    2  C   UNK N   1      29.628  17.151   5.513  0.00  0.00     0.026 A 
HETATM    3  C   UNK N   1      29.898  17.222   7.901  0.00  0.00     0.074 A 
HETATM    4  C   UNK N   1      27.844  20.181   4.439  0.00  0.00     0.020 C 
HETATM    5  C   UNK N   1      25.560  19.744   5.318  0.00  0.00     0.120 C 
HETATM    6  C   UNK N   1      26.668  18.004   4.117  0.00  0.00     0.124 C 
HETATM    7  C   UNK N   1      27.484  19.921   6.930  0.00  0.00     0.138 C 
HETATM    8  C   UNK N   1      26.892  20.436   5.606  0.00  0.00     0.022 C 
HETATM    9  C   UNK N   1      28.037  18.677   4.328  0.00  0.00     0.054 C 
HETATM   10  C   UNK N   1      28.689  18.186   5.593  0.00  0.00     0.020 A 
HETATM   11  C   UNK N   1      28.973  18.265   7.967  0.00  0.00     0.247 A 
HETATM   12  N   UNK N   1      25.740  18.297   5.212  0.00  0.00    -0.420 N 
HETATM   13  N   UNK N   1      28.383  18.751   6.812  0.00  0.00    -0.317 N 
HETATM   14  O   UNK N   1      28.699  18.747   9.052  0.00  0.00    -0.268 OA
HETATM   15  H   UNK N   1      25.292  17.601   5.808  0.00  0.00     0.153 HD
ENDROOT
TORSDOF 0
ENDMDL
MODEL 6
REMARK VINA RESULT:      -5.1      2.250      3.807
REMARK  0 active torsions:
REMARK  status: ('A' for Active; 'I' for Inactive)
ROOT
HETATM    1  C   UNK N   1      29.325  17.925   8.284  0.00  0.00     0.007 A 
HETATM    2  C   UNK N   1      30.615  17.924   8.800  0.00  0.00     0.026 A 
HETATM    3  C   UNK N   1      29.115  17.579   6.954  0.00  0.00     0.074 A 
HETATM    4  C   UNK N   1      34.054  18.081   7.510  0.00  0.00     0.020 C 
HETATM    5  C   UNK N   1      34.441  15.714   6.852  0.00  0.00     0.120 C 
HETATM    6  C   UNK N   1      33.493  16.159   8.998  0.00  0.00     0.124 C 
HETATM    7  C   UNK N   1      32.612  17.021   5.722  0.00  0.00     0.138 C 
HETATM    8  C   UNK N   1      34.016  17.093   6.346  0.00  0.00     0.022 C 
HETATM    9  C   UNK N   1      33.083  17.579   8.566  0.00  0.00     0.054 C 
HETATM   10  C   UNK N   1      31.697  17.584   7.979  0.00  0.00     0.020 A 
HETATM   11  C   UNK N   1      30.203  17.258   6.140  0.00  0.00     0.247 A 
HETATM   12  N   UNK N   1      33.508  15.227   7.867  0.00  0.00    -0.420 N 
HETATM   13  N   UNK N   1      31.489  17.275   6.653  0.00  0.00    -0.317 N 
HETATM   14  O   UNK N   1      30.005  16.971   4.972  0.00  0.00    -0.268 OA
HETATM   15  H   UNK N   1      32.955  14.373   7.799  0.00  0.00     0.153 HD
ENDROOT
TORSDOF 0
ENDMDL
MODEL 7
REMARK VINA RESULT:      -5.1      7.844      9.046
REMARK  0 active torsions:
REMARK  status: ('A' for Active; 'I' for Inactive)
ROOT
HETATM    1  C   UNK N   1      33.839  10.195  13.757  0.00  0.00     0.007 A 
HETATM    2  C   UNK N   1      34.422  10.623  12.571  0.00  0.00     0.026 A 
HETATM    3  C   UNK N   1      33.814  11.042  14.859  0.00  0.00     0.074 A 
HETATM    4  C   UNK N   1      36.831  13.188  11.506  0.00  0.00     0.020 C 
HETATM    5  C   UNK N   1      35.381  15.205  11.385  0.00  0.00     0.120 C 
HETATM    6  C   UNK N   1      34.609  13.186  10.372  0.00  0.00     0.124 C 
HETATM    7  C   UNK N   1      35.681  14.036  13.593  0.00  0.00     0.138 C 
HETATM    8  C   UNK N   1      36.357  14.424  12.267  0.00  0.00     0.022 C 
HETATM    9  C   UNK N   1      35.605  12.346  11.193  0.00  0.00     0.054 C 
HETATM   10  C   UNK N   1      34.989  11.901  12.493  0.00  0.00     0.020 A 
HETATM   11  C   UNK N   1      34.397  12.308  14.774  0.00  0.00     0.247 A 
HETATM   12  N   UNK N   1      34.199  14.399  11.083  0.00  0.00    -0.420 N 
HETATM   13  N   UNK N   1      34.993  12.725  13.597  0.00  0.00    -0.317 N 
HETATM   14  O   UNK N   1      34.381  13.034  15.753  0.00  0.00    -0.268 OA
HETATM   15  H   UNK N   1      33.240  14.643  11.331  0.00  0.00     0.153 HD
ENDROOT
TORSDOF 0
ENDMDL
MODEL 8
REMARK VINA RESULT:      -5.1      3.310      4.563
REMARK  0 active torsions:
REMARK  status: ('A' for Active; 'I' for Inactive)
ROOT
HETATM    1  C   UNK N   1      35.620  13.423   9.175  0.00  0.00     0.007 A 
HETATM    2  C   UNK N   1      34.678  13.849   8.246  0.00  0.00     0.026 A 
HETATM    3  C   UNK N   1      36.189  14.340  10.050  0.00  0.00     0.074 A 
HETATM    4  C   UNK N   1      33.668  17.010   6.662  0.00  0.00     0.020 C 
HETATM    5  C   UNK N   1      32.211  17.996   8.419  0.00  0.00     0.120 C 
HETATM    6  C   UNK N   1      31.884  15.707   7.823  0.00  0.00     0.124 C 
HETATM    7  C   UNK N   1      34.635  17.564   8.934  0.00  0.00     0.138 C 
HETATM    8  C   UNK N   1      33.628  17.975   7.846  0.00  0.00     0.022 C 
HETATM    9  C   UNK N   1      33.283  15.634   7.182  0.00  0.00     0.054 C 
HETATM   10  C   UNK N   1      34.314  15.200   8.189  0.00  0.00     0.020 A 
HETATM   11  C   UNK N   1      35.831  15.687   9.974  0.00  0.00     0.247 A 
HETATM   12  N   UNK N   1      31.836  16.675   8.922  0.00  0.00    -0.420 N 
HETATM   13  N   UNK N   1      34.906  16.112   9.036  0.00  0.00    -0.317 N 
HETATM   14  O   UNK N   1      36.349  16.482  10.737  0.00  0.00    -0.268 OA
HETATM   15  H   UNK N   1      31.583  16.461   9.886  0.00  0.00     0.153 HD
ENDROOT
TORSDOF 0
ENDMDL
MODEL 9
REMARK VINA RESULT:      -4.9      9.896     10.952
REMARK  0 active torsions:
REMARK  status: ('A' for Active; 'I' for Inactive)
ROOT
HETATM    1  C   UNK N   1      23.442  11.962  11.341  0.00  0.00     0.007 A 
HETATM    2  C   UNK N   1      24.224  12.269  10.234  0.00  0.00     0.026 A 
HETATM    3  C   UNK N   1      22.077  12.227  11.315  0.00  0.00     0.074 A 
HETATM    4  C   UNK N   1      24.016  14.459   7.289  0.00  0.00     0.020 C 
HETATM    5  C   UNK N   1      22.599  13.100   5.764  0.00  0.00     0.120 C 
HETATM    6  C   UNK N   1      24.430  12.035   6.866  0.00  0.00     0.124 C 
HETATM    7  C   UNK N   1      21.654  13.861   7.968  0.00  0.00     0.138 C 
HETATM    8  C   UNK N   1      22.588  14.223   6.801  0.00  0.00     0.022 C 
HETATM    9  C   UNK N   1      24.505  13.162   7.913  0.00  0.00     0.054 C 
HETATM   10  C   UNK N   1      23.638  12.850   9.103  0.00  0.00     0.020 A 
HETATM   11  C   UNK N   1      21.507  12.822  10.189  0.00  0.00     0.247 A 
HETATM   12  N   UNK N   1      23.067  11.849   6.361  0.00  0.00    -0.420 N 
HETATM   13  N   UNK N   1      22.292  13.143   9.095  0.00  0.00    -0.317 N 
HETATM   14  O   UNK N   1      20.312  13.063  10.187  0.00  0.00    -0.268 OA
HETATM   15  H   UNK N   1      22.529  10.985   6.417  0.00  0.00     0.153 HD
ENDROOT
TORSDOF 0
ENDMDL
