MODEL 1
REMARK VINA RESULT:      -3.6      0.000      0.000
REMARK  5 active torsions:
REMARK  status: ('A' for Active; 'I' for Inactive)
REMARK    1  A    between atoms: O_1  and  C_2 
REMARK    2  A    between atoms: C_2  and  C_3 
REMARK    3  A    between atoms: C_3  and  O_4 
REMARK    4  A    between atoms: C_3  and  C_5 
REMARK    5  A    between atoms: C_5  and  O_6 
ROOT
HETATM    1  C   UNK N   1      20.335  20.062   2.611  0.00  0.00     0.165 C 
ENDROOT
BRANCH   1   2
HETATM    2  C   UNK N   1      21.065  20.411   1.317  0.00  0.00     0.198 C 
BRANCH   2   3
HETATM    3  O   UNK N   1      20.530  19.720   0.227  0.00  0.00    -0.398 OA
HETATM    4  H   UNK N   1      20.215  18.809   0.336  0.00  0.00     0.209 HD
ENDBRANCH   2   3
ENDBRANCH   1   2
BRANCH   1   5
HETATM    5  O   UNK N   1      20.303  20.976   3.664  0.00  0.00    -0.391 OA
HETATM    6  H   UNK N   1      21.111  21.170   4.164  0.00  0.00     0.210 HD
ENDBRANCH   1   5
BRANCH   1   7
HETATM    7  C   UNK N   1      19.638  18.716   2.761  0.00  0.00     0.198 C 
BRANCH   7   8
HETATM    8  O   UNK N   1      18.314  18.789   2.325  0.00  0.00    -0.398 OA
HETATM    9  H   UNK N   1      17.593  18.853   2.969  0.00  0.00     0.209 HD
ENDBRANCH   7   8
ENDBRANCH   1   7
TORSDOF 5
ENDMDL
MODEL 2
REMARK VINA RESULT:      -3.6      0.334      2.395
REMARK  5 active torsions:
REMARK  status: ('A' for Active; 'I' for Inactive)
REMARK    1  A    between atoms: O_1  and  C_2 
REMARK    2  A    between atoms: C_2  and  C_3 
REMARK    3  A    between atoms: C_3  and  O_4 
REMARK    4  A    between atoms: C_3  and  C_5 
REMARK    5  A    between atoms: C_5  and  O_6 
ROOT
HETATM    1  C   UNK N   1      20.422  20.204   2.382  0.00  0.00     0.165 C 
ENDROOT
BRANCH   1   2
HETATM    2  C   UNK N   1      19.737  18.879   2.702  0.00  0.00     0.198 C 
BRANCH   2   3
HETATM    3  O   UNK N   1      18.390  18.897   2.331  0.00  0.00    -0.398 OA
HETATM    4  H   UNK N   1      17.832  19.655   2.564  0.00  0.00     0.209 HD
ENDBRANCH   2   3
ENDBRANCH   1   2
BRANCH   1   5
HETATM    5  O   UNK N   1      20.689  21.119   3.400  0.00  0.00    -0.391 OA
HETATM    6  H   UNK N   1      20.601  22.071   3.233  0.00  0.00     0.210 HD
ENDBRANCH   1   5
BRANCH   1   7
HETATM    7  C   UNK N   1      20.819  20.535   0.949  0.00  0.00     0.198 C 
BRANCH   7   8
HETATM    8  O   UNK N   1      20.545  19.465   0.095  0.00  0.00    -0.398 OA
HETATM    9  H   UNK N   1      21.178  18.737   0.010  0.00  0.00     0.209 HD
ENDBRANCH   7   8
ENDBRANCH   1   7
TORSDOF 5
ENDMDL
MODEL 3
REMARK VINA RESULT:      -3.5      0.734      2.268
REMARK  5 active torsions:
REMARK  status: ('A' for Active; 'I' for Inactive)
REMARK    1  A    between atoms: O_1  and  C_2 
REMARK    2  A    between atoms: C_2  and  C_3 
REMARK    3  A    between atoms: C_3  and  O_4 
REMARK    4  A    between atoms: C_3  and  C_5 
REMARK    5  A    between atoms: C_5  and  O_6 
ROOT
HETATM    1  C   UNK N   1      20.646  19.768   1.537  0.00  0.00     0.165 C 
ENDROOT
BRANCH   1   2
HETATM    2  C   UNK N   1      21.090  20.786   2.585  0.00  0.00     0.198 C 
BRANCH   2   3
HETATM    3  O   UNK N   1      20.355  20.658   3.766  0.00  0.00    -0.398 OA
HETATM    4  H   UNK N   1      19.669  21.308   3.983  0.00  0.00     0.209 HD
ENDBRANCH   2   3
ENDBRANCH   1   2
BRANCH   1   5
HETATM    5  O   UNK N   1      20.735  20.076   0.180  0.00  0.00    -0.391 OA
HETATM    6  H   UNK N   1      19.929  20.240  -0.335  0.00  0.00     0.210 HD
ENDBRANCH   1   5
BRANCH   1   7
HETATM    7  C   UNK N   1      20.103  18.412   1.968  0.00  0.00     0.198 C 
BRANCH   7   8
HETATM    8  O   UNK N   1      18.764  18.510   2.352  0.00  0.00    -0.398 OA
HETATM    9  H   UNK N   1      18.294  19.353   2.266  0.00  0.00     0.209 HD
ENDBRANCH   7   8
ENDBRANCH   1   7
TORSDOF 5
ENDMDL
MODEL 4
REMARK VINA RESULT:      -3.4     12.379     13.191
REMARK  5 active torsions:
REMARK  status: ('A' for Active; 'I' for Inactive)
REMARK    1  A    between atoms: O_1  and  C_2 
REMARK    2  A    between atoms: C_2  and  C_3 
REMARK    3  A    between atoms: C_3  and  O_4 
REMARK    4  A    between atoms: C_3  and  C_5 
REMARK    5  A    between atoms: C_5  and  O_6 
ROOT
HETATM    1  C   UNK N   1      23.681  12.078  11.854  0.00  0.00     0.165 C 
ENDROOT
BRANCH   1   2
HETATM    2  C   UNK N   1      22.675  12.067  10.706  0.00  0.00     0.198 C 
BRANCH   2   3
HETATM    3  O   UNK N   1      21.388  11.767  11.156  0.00  0.00    -0.398 OA
HETATM    4  H   UNK N   1      21.197  10.896  11.538  0.00  0.00     0.209 HD
ENDBRANCH   2   3
ENDBRANCH   1   2
BRANCH   1   5
HETATM    5  O   UNK N   1      25.033  12.299  11.599  0.00  0.00    -0.391 OA
HETATM    6  H   UNK N   1      25.303  12.818  10.825  0.00  0.00     0.210 HD
ENDBRANCH   1   5
BRANCH   1   7
HETATM    7  C   UNK N   1      23.212  11.849  13.285  0.00  0.00     0.198 C 
BRANCH   7   8
HETATM    8  O   UNK N   1      23.882  12.695  14.171  0.00  0.00    -0.398 OA
HETATM    9  H   UNK N   1      24.627  12.360  14.694  0.00  0.00     0.209 HD
ENDBRANCH   7   8
ENDBRANCH   1   7
TORSDOF 5
ENDMDL
MODEL 5
REMARK VINA RESULT:      -3.3     15.581     16.334
REMARK  5 active torsions:
REMARK  status: ('A' for Active; 'I' for Inactive)
REMARK    1  A    between atoms: O_1  and  C_2 
REMARK    2  A    between atoms: C_2  and  C_3 
REMARK    3  A    between atoms: C_3  and  O_4 
REMARK    4  A    between atoms: C_3  and  C_5 
REMARK    5  A    between atoms: C_5  and  O_6 
ROOT
HETATM    1  C   UNK N   1      33.820  17.336   8.915  0.00  0.00     0.165 C 
ENDROOT
BRANCH   1   2
HETATM    2  C   UNK N   1      34.727  16.478   9.793  0.00  0.00     0.198 C 
BRANCH   2   3
HETATM    3  O   UNK N   1      35.139  17.171  10.934  0.00  0.00    -0.398 OA
HETATM    4  H   UNK N   1      35.393  16.684  11.733  0.00  0.00     0.209 HD
ENDBRANCH   2   3
ENDBRANCH   1   2
BRANCH   1   5
HETATM    5  O   UNK N   1      32.434  17.219   9.016  0.00  0.00    -0.391 OA
HETATM    6  H   UNK N   1      31.944  16.682   8.374  0.00  0.00     0.210 HD
ENDBRANCH   1   5
BRANCH   1   7
HETATM    7  C   UNK N   1      34.422  18.324   7.925  0.00  0.00     0.198 C 
BRANCH   7   8
HETATM    8  O   UNK N   1      35.306  19.196   8.565  0.00  0.00    -0.398 OA
HETATM    9  H   UNK N   1      36.126  18.857   8.955  0.00  0.00     0.209 HD
ENDBRANCH   7   8
ENDBRANCH   1   7
TORSDOF 5
ENDMDL
MODEL 6
REMARK VINA RESULT:      -3.3     23.185     23.970
REMARK  5 active torsions:
REMARK  status: ('A' for Active; 'I' for Inactive)
REMARK    1  A    between atoms: O_1  and  C_2 
REMARK    2  A    between atoms: C_2  and  C_3 
REMARK    3  A    between atoms: C_3  and  O_4 
REMARK    4  A    between atoms: C_3  and  C_5 
REMARK    5  A    between atoms: C_5  and  O_6 
ROOT
HETATM    1  C   UNK N   1      43.545  22.869   3.679  0.00  0.00     0.165 C 
ENDROOT
BRANCH   1   2
HETATM    2  C   UNK N   1      42.504  22.615   2.592  0.00  0.00     0.198 C 
BRANCH   2   3
HETATM    3  O   UNK N   1      41.870  23.799   2.206  0.00  0.00    -0.398 OA
HETATM    4  H   UNK N   1      42.345  24.643   2.257  0.00  0.00     0.209 HD
ENDBRANCH   2   3
ENDBRANCH   1   2
BRANCH   1   5
HETATM    5  O   UNK N   1      43.556  24.080   4.370  0.00  0.00    -0.391 OA
HETATM    6  H   UNK N   1      42.800  24.329   4.926  0.00  0.00     0.210 HD
ENDBRANCH   1   5
BRANCH   1   7
HETATM    7  C   UNK N   1      44.578  21.801   4.015  0.00  0.00     0.198 C 
BRANCH   7   8
HETATM    8  O   UNK N   1      45.832  22.373   4.240  0.00  0.00    -0.398 OA
HETATM    9  H   UNK N   1      46.579  22.148   3.665  0.00  0.00     0.209 HD
ENDBRANCH   7   8
ENDBRANCH   1   7
TORSDOF 5
ENDMDL
MODEL 7
REMARK VINA RESULT:      -3.2     17.917     18.581
REMARK  5 active torsions:
REMARK  status: ('A' for Active; 'I' for Inactive)
REMARK    1  A    between atoms: O_1  and  C_2 
REMARK    2  A    between atoms: C_2  and  C_3 
REMARK    3  A    between atoms: C_3  and  O_4 
REMARK    4  A    between atoms: C_3  and  C_5 
REMARK    5  A    between atoms: C_5  and  O_6 
ROOT
HETATM    1  C   UNK N   1      34.702  15.168  11.351  0.00  0.00     0.165 C 
ENDROOT
BRANCH   1   2
HETATM    2  C   UNK N   1      35.406  14.097  12.180  0.00  0.00     0.198 C 
BRANCH   2   3
HETATM    3  O   UNK N   1      34.488  13.269  12.832  0.00  0.00    -0.398 OA
HETATM    4  H   UNK N   1      33.591  13.166  12.478  0.00  0.00     0.209 HD
ENDBRANCH   2   3
ENDBRANCH   1   2
BRANCH   1   5
HETATM    5  O   UNK N   1      33.335  15.069  11.095  0.00  0.00    -0.391 OA
HETATM    6  H   UNK N   1      33.024  14.770  10.226  0.00  0.00     0.210 HD
ENDBRANCH   1   5
BRANCH   1   7
HETATM    7  C   UNK N   1      35.488  16.350  10.799  0.00  0.00     0.198 C 
BRANCH   7   8
HETATM    8  O   UNK N   1      36.863  16.122  10.891  0.00  0.00    -0.398 OA
HETATM    9  H   UNK N   1      37.286  16.051  11.760  0.00  0.00     0.209 HD
ENDBRANCH   7   8
ENDBRANCH   1   7
TORSDOF 5
ENDMDL
MODEL 8
REMARK VINA RESULT:      -3.2     17.226     17.846
REMARK  5 active torsions:
REMARK  status: ('A' for Active; 'I' for Inactive)
REMARK    1  A    between atoms: O_1  and  C_2 
REMARK    2  A    between atoms: C_2  and  C_3 
REMARK    3  A    between atoms: C_3  and  O_4 
REMARK    4  A    between atoms: C_3  and  C_5 
REMARK    5  A    between atoms: C_5  and  O_6 
ROOT
HETATM    1  C   UNK N   1      34.679  15.582  10.471  0.00  0.00     0.165 C 
ENDROOT
BRANCH   1   2
HETATM    2  C   UNK N   1      36.084  15.014  10.648  0.00  0.00     0.198 C 
BRANCH   2   3
HETATM    3  O   UNK N   1      37.009  16.019  10.939  0.00  0.00    -0.398 OA
HETATM    4  H   UNK N   1      36.904  16.902  10.552  0.00  0.00     0.209 HD
ENDBRANCH   2   3
ENDBRANCH   1   2
BRANCH   1   5
HETATM    5  O   UNK N   1      33.614  15.058  11.202  0.00  0.00    -0.391 OA
HETATM    6  H   UNK N   1      32.898  14.587  10.748  0.00  0.00     0.210 HD
ENDBRANCH   1   5
BRANCH   1   7
HETATM    7  C   UNK N   1      34.432  16.725   9.495  0.00  0.00     0.198 C 
BRANCH   7   8
HETATM    8  O   UNK N   1      35.292  17.794   9.750  0.00  0.00    -0.398 OA
HETATM    9  H   UNK N   1      35.043  18.476  10.393  0.00  0.00     0.209 HD
ENDBRANCH   7   8
ENDBRANCH   1   7
TORSDOF 5
ENDMDL
MODEL 9
REMARK VINA RESULT:      -3.1     18.438     18.999
REMARK  5 active torsions:
REMARK  status: ('A' for Active; 'I' for Inactive)
REMARK    1  A    between atoms: O_1  and  C_2 
REMARK    2  A    between atoms: C_2  and  C_3 
REMARK    3  A    between atoms: C_3  and  O_4 
REMARK    4  A    between atoms: C_3  and  C_5 
REMARK    5  A    between atoms: C_5  and  O_6 
ROOT
HETATM    1  C   UNK N   1      35.033  14.771  11.505  0.00  0.00     0.165 C 
ENDROOT
BRANCH   1   2
HETATM    2  C   UNK N   1      35.975  15.217  10.390  0.00  0.00     0.198 C 
BRANCH   2   3
HETATM    3  O   UNK N   1      36.904  16.154  10.850  0.00  0.00    -0.398 OA
HETATM    4  H   UNK N   1      36.645  17.084  10.953  0.00  0.00     0.209 HD
ENDBRANCH   2   3
ENDBRANCH   1   2
BRANCH   1   5
HETATM    5  O   UNK N   1      33.654  14.905  11.352  0.00  0.00    -0.391 OA
HETATM    6  H   UNK N   1      33.054  14.560  12.032  0.00  0.00     0.210 HD
ENDBRANCH   1   5
BRANCH   1   7
HETATM    7  C   UNK N   1      35.594  14.177  12.791  0.00  0.00     0.198 C 
BRANCH   7   8
HETATM    8  O   UNK N   1      36.512  15.047  13.383  0.00  0.00    -0.398 OA
HETATM    9  H   UNK N   1      36.378  15.347  14.295  0.00  0.00     0.209 HD
ENDBRANCH   7   8
ENDBRANCH   1   7
TORSDOF 5
ENDMDL
