MODEL 1
REMARK VINA RESULT:      -9.2      0.000      0.000
REMARK  6 active torsions:
REMARK  status: ('A' for Active; 'I' for Inactive)
REMARK    1  A    between atoms: C_2  and  C_3 
REMARK       I    between atoms: C_2  and  N_21 
REMARK    2  A    between atoms: C_7  and  C_8 
REMARK    3  A    between atoms: C_11  and  O_14 
REMARK    4  A    between atoms: O_14  and  C_15 
REMARK    5  A    between atoms: N_21  and  C_22 
REMARK    6  A    between atoms: C_25  and  N_29 
ROOT
HETATM    1  O   UNK N   1      35.170  19.049   8.578  0.00  0.00    -0.267 OA
HETATM    2  C   UNK N   1      34.853  17.888   8.748  0.00  0.00     0.256 C 
HETATM    3  N   UNK N   1      35.280  17.238   9.878  0.00  0.00    -0.322 N 
HETATM    4  H   UNK N   1      35.699  17.751  10.608  0.00  0.00     0.169 HD
ENDROOT
BRANCH   2   5
HETATM    5  C   UNK N   1      34.024  17.178   7.692  0.00  0.00     0.039 A 
HETATM    6  C   UNK N   1      34.600  16.174   6.890  0.00  0.00     0.017 A 
HETATM    7  C   UNK N   1      33.881  15.562   5.867  0.00  0.00     0.002 A 
HETATM    8  C   UNK N   1      32.552  15.903   5.657  0.00  0.00     0.013 A 
HETATM    9  C   UNK N   1      31.923  16.875   6.451  0.00  0.00    -0.019 A 
HETATM   10  C   UNK N   1      32.681  17.537   7.471  0.00  0.00    -0.035 A 
HETATM   11  C   UNK N   1      32.104  18.641   8.308  0.00  0.00     0.050 C 
BRANCH   9  12
HETATM   12  C   UNK N   1      30.447  17.033   6.324  0.00  0.00    -0.025 C 
HETATM   13  C   UNK N   1      29.638  17.179   7.469  0.00  0.00     0.015 C 
HETATM   14  C   UNK N   1      28.368  17.764   7.359  0.00  0.00     0.038 C 
HETATM   15  C   UNK N   1      27.928  18.231   6.114  0.00  0.00     0.078 C 
HETATM   16  C   UNK N   1      28.682  17.965   4.973  0.00  0.00     0.038 C 
HETATM   17  C   UNK N   1      29.916  17.373   5.083  0.00  0.00     0.015 C 
BRANCH  15  18
HETATM   18  O   UNK N   1      26.859  19.056   6.040  0.00  0.00    -0.255 OA
BRANCH  18  19
HETATM   19  C   UNK N   1      26.969  20.410   6.332  0.00  0.00     0.530 C 
HETATM   20  F   UNK N   1      26.176  21.137   5.471  0.00  0.00    -0.144 F 
HETATM   21  F   UNK N   1      26.537  20.641   7.631  0.00  0.00    -0.144 F 
HETATM   22  F   UNK N   1      28.281  20.839   6.209  0.00  0.00    -0.144 F 
ENDBRANCH  18  19
ENDBRANCH  15  18
ENDBRANCH   9  12
ENDBRANCH   2   5
BRANCH   3  23
HETATM   23  C   UNK N   1      35.124  15.842  10.000  0.00  0.00     0.050 C 
HETATM   24  C   UNK N   1      36.143  15.007   9.548  0.00  0.00     0.035 C 
HETATM   25  C   UNK N   1      36.279  13.738  10.104  0.00  0.00     0.051 C 
HETATM   26  C   UNK N   1      35.433  13.364  11.157  0.00  0.00     0.103 C 
HETATM   27  N   UNK N   1      34.380  14.151  11.499  0.00  0.00    -0.350 N 
HETATM   28  C   UNK N   1      34.184  15.348  10.916  0.00  0.00     0.119 C 
ATOM     29  HN  UNK N   1      33.725  13.829  12.211  1.00  0.00     0.166 HD
BRANCH  26  30
HETATM   30  N   UNK N   1      35.722  12.232  11.937  0.00  0.00    -0.362 N 
HETATM   31  C   UNK N   1      34.670  11.377  12.381  0.00  0.00     0.156 C 
HETATM   32  C   UNK N   1      34.562  11.658  13.873  0.00  0.00     0.136 C 
HETATM   33  O   UNK N   1      35.785  11.346  14.536  0.00  0.00    -0.378 OA
HETATM   34  C   UNK N   1      33.447  10.819  14.449  0.00  0.00     0.041 C 
HETATM   35  C   UNK N   1      36.874  12.137  14.064  0.00  0.00     0.136 C 
HETATM   36  C   UNK N   1      37.018  12.080  12.549  0.00  0.00     0.156 C 
HETATM   37  C   UNK N   1      36.790  13.579  14.545  0.00  0.00     0.041 C 
ENDBRANCH  26  30
ENDBRANCH   3  23
TORSDOF 6
ENDMDL
MODEL 2
REMARK VINA RESULT:      -9.2     15.258     19.025
REMARK  6 active torsions:
REMARK  status: ('A' for Active; 'I' for Inactive)
REMARK    1  A    between atoms: C_2  and  C_3 
REMARK       I    between atoms: C_2  and  N_21 
REMARK    2  A    between atoms: C_7  and  C_8 
REMARK    3  A    between atoms: C_11  and  O_14 
REMARK    4  A    between atoms: O_14  and  C_15 
REMARK    5  A    between atoms: N_21  and  C_22 
REMARK    6  A    between atoms: C_25  and  N_29 
ROOT
HETATM    1  O   UNK N   1      25.508  22.241  -7.287  0.00  0.00    -0.267 OA
HETATM    2  C   UNK N   1      25.847  23.376  -7.013  0.00  0.00     0.256 C 
HETATM    3  N   UNK N   1      25.583  24.385  -7.905  0.00  0.00    -0.322 N 
HETATM    4  H   UNK N   1      24.991  24.215  -8.674  0.00  0.00     0.169 HD
ENDROOT
BRANCH   2   5
HETATM    5  C   UNK N   1      26.580  23.643  -5.710  0.00  0.00     0.039 A 
HETATM    6  C   UNK N   1      25.936  24.320  -4.656  0.00  0.00     0.017 A 
HETATM    7  C   UNK N   1      26.612  24.642  -3.482  0.00  0.00     0.002 A 
HETATM    8  C   UNK N   1      27.932  24.247  -3.314  0.00  0.00     0.013 A 
HETATM    9  C   UNK N   1      28.607  23.542  -4.323  0.00  0.00    -0.019 A 
HETATM   10  C   UNK N   1      27.923  23.256  -5.550  0.00  0.00    -0.035 A 
HETATM   11  C   UNK N   1      28.601  22.577  -6.704  0.00  0.00     0.050 C 
BRANCH   9  12
HETATM   12  C   UNK N   1      29.937  22.956  -3.995  0.00  0.00    -0.025 C 
HETATM   13  C   UNK N   1      30.063  21.589  -3.674  0.00  0.00     0.015 C 
HETATM   14  C   UNK N   1      31.303  20.949  -3.810  0.00  0.00     0.038 C 
HETATM   15  C   UNK N   1      32.402  21.668  -4.297  0.00  0.00     0.078 C 
HETATM   16  C   UNK N   1      32.295  23.044  -4.488  0.00  0.00     0.038 C 
HETATM   17  C   UNK N   1      31.084  23.671  -4.335  0.00  0.00     0.015 C 
BRANCH  15  18
HETATM   18  O   UNK N   1      33.507  21.011  -4.718  0.00  0.00    -0.255 OA
BRANCH  18  19
HETATM   19  C   UNK N   1      34.376  20.406  -3.818  0.00  0.00     0.530 C 
HETATM   20  F   UNK N   1      34.188  20.938  -2.561  0.00  0.00    -0.144 F 
HETATM   21  F   UNK N   1      34.114  19.043  -3.765  0.00  0.00    -0.144 F 
HETATM   22  F   UNK N   1      35.695  20.598  -4.198  0.00  0.00    -0.144 F 
ENDBRANCH  18  19
ENDBRANCH  15  18
ENDBRANCH   9  12
ENDBRANCH   2   5
BRANCH   3  23
HETATM   23  C   UNK N   1      26.154  25.661  -7.727  0.00  0.00     0.050 C 
HETATM   24  C   UNK N   1      25.501  26.586  -6.916  0.00  0.00     0.035 C 
HETATM   25  C   UNK N   1      26.240  27.595  -6.302  0.00  0.00     0.051 C 
HETATM   26  C   UNK N   1      27.633  27.605  -6.456  0.00  0.00     0.103 C 
HETATM   27  N   UNK N   1      28.228  26.762  -7.340  0.00  0.00    -0.350 N 
HETATM   28  C   UNK N   1      27.518  25.832  -8.005  0.00  0.00     0.119 C 
ATOM     29  HN  UNK N   1      29.232  26.836  -7.503  1.00  0.00     0.166 HD
BRANCH  26  30
HETATM   30  N   UNK N   1      28.437  28.406  -5.629  0.00  0.00    -0.362 N 
HETATM   31  C   UNK N   1      29.749  27.978  -5.267  0.00  0.00     0.156 C 
HETATM   32  C   UNK N   1      29.628  27.598  -3.798  0.00  0.00     0.136 C 
HETATM   33  O   UNK N   1      29.227  28.721  -3.017  0.00  0.00    -0.378 OA
HETATM   34  C   UNK N   1      30.966  27.097  -3.312  0.00  0.00     0.041 C 
HETATM   35  C   UNK N   1      27.946  29.218  -3.402  0.00  0.00     0.136 C 
HETATM   36  C   UNK N   1      27.860  29.504  -4.895  0.00  0.00     0.156 C 
HETATM   37  C   UNK N   1      26.816  28.299  -2.961  0.00  0.00     0.041 C 
ENDBRANCH  26  30
ENDBRANCH   3  23
TORSDOF 6
ENDMDL
MODEL 3
REMARK VINA RESULT:      -9.1      2.050      2.341
REMARK  6 active torsions:
REMARK  status: ('A' for Active; 'I' for Inactive)
REMARK    1  A    between atoms: C_2  and  C_3 
REMARK       I    between atoms: C_2  and  N_21 
REMARK    2  A    between atoms: C_7  and  C_8 
REMARK    3  A    between atoms: C_11  and  O_14 
REMARK    4  A    between atoms: O_14  and  C_15 
REMARK    5  A    between atoms: N_21  and  C_22 
REMARK    6  A    between atoms: C_25  and  N_29 
ROOT
HETATM    1  O   UNK N   1      34.862  19.067   8.350  0.00  0.00    -0.267 OA
HETATM    2  C   UNK N   1      34.447  17.925   8.296  0.00  0.00     0.256 C 
HETATM    3  N   UNK N   1      34.830  17.030   9.263  0.00  0.00    -0.322 N 
HETATM    4  H   UNK N   1      35.300  17.350  10.067  0.00  0.00     0.169 HD
ENDROOT
BRANCH   2   5
HETATM    5  C   UNK N   1      33.547  17.511   7.145  0.00  0.00     0.039 A 
HETATM    6  C   UNK N   1      34.101  17.160   5.899  0.00  0.00     0.017 A 
HETATM    7  C   UNK N   1      33.293  16.850   4.808  0.00  0.00     0.002 A 
HETATM    8  C   UNK N   1      31.913  16.831   4.954  0.00  0.00     0.013 A 
HETATM    9  C   UNK N   1      31.314  17.141   6.185  0.00  0.00    -0.019 A 
HETATM   10  C   UNK N   1      32.148  17.509   7.292  0.00  0.00    -0.035 A 
HETATM   11  C   UNK N   1      31.581  17.930   8.616  0.00  0.00     0.050 C 
BRANCH   9  12
HETATM   12  C   UNK N   1      29.854  16.887   6.337  0.00  0.00    -0.025 C 
HETATM   13  C   UNK N   1      28.971  17.935   6.668  0.00  0.00     0.015 C 
HETATM   14  C   UNK N   1      27.605  17.818   6.375  0.00  0.00     0.038 C 
HETATM   15  C   UNK N   1      27.133  16.672   5.722  0.00  0.00     0.078 C 
HETATM   16  C   UNK N   1      27.992  15.595   5.516  0.00  0.00     0.038 C 
HETATM   17  C   UNK N   1      29.325  15.705   5.824  0.00  0.00     0.015 C 
BRANCH  15  18
HETATM   18  O   UNK N   1      25.900  16.669   5.166  0.00  0.00    -0.255 OA
BRANCH  18  19
HETATM   19  C   UNK N   1      25.708  16.996   3.830  0.00  0.00     0.530 C 
HETATM   20  F   UNK N   1      25.595  15.846   3.081  0.00  0.00    -0.144 F 
HETATM   21  F   UNK N   1      24.534  17.727   3.695  0.00  0.00    -0.144 F 
HETATM   22  F   UNK N   1      26.766  17.749   3.347  0.00  0.00    -0.144 F 
ENDBRANCH  18  19
ENDBRANCH  15  18
ENDBRANCH   9  12
ENDBRANCH   2   5
BRANCH   3  23
HETATM   23  C   UNK N   1      34.555  15.656   9.110  0.00  0.00     0.050 C 
HETATM   24  C   UNK N   1      35.420  14.875   8.347  0.00  0.00     0.035 C 
HETATM   25  C   UNK N   1      35.502  13.508   8.598  0.00  0.00     0.051 C 
HETATM   26  C   UNK N   1      34.768  12.967   9.663  0.00  0.00     0.103 C 
HETATM   27  N   UNK N   1      33.851  13.728  10.314  0.00  0.00    -0.350 N 
HETATM   28  C   UNK N   1      33.699  15.035  10.032  0.00  0.00     0.119 C 
ATOM     29  HN  UNK N   1      33.266  13.301  11.032  1.00  0.00     0.166 HD
BRANCH  26  30
HETATM   30  N   UNK N   1      35.044  11.674  10.136  0.00  0.00    -0.362 N 
HETATM   31  C   UNK N   1      34.145  11.031  11.039  0.00  0.00     0.156 C 
HETATM   32  C   UNK N   1      34.879  11.046  12.372  0.00  0.00     0.136 C 
HETATM   33  O   UNK N   1      36.107  10.329  12.282  0.00  0.00    -0.378 OA
HETATM   34  C   UNK N   1      33.998  10.410  13.420  0.00  0.00     0.041 C 
HETATM   35  C   UNK N   1      37.003  10.907  11.334  0.00  0.00     0.136 C 
HETATM   36  C   UNK N   1      36.356  11.101   9.970  0.00  0.00     0.156 C 
HETATM   37  C   UNK N   1      37.609  12.210  11.835  0.00  0.00     0.041 C 
ENDBRANCH  26  30
ENDBRANCH   3  23
TORSDOF 6
ENDMDL
MODEL 4
REMARK VINA RESULT:      -9.0     15.150     18.830
REMARK  6 active torsions:
REMARK  status: ('A' for Active; 'I' for Inactive)
REMARK    1  A    between atoms: C_2  and  C_3 
REMARK       I    between atoms: C_2  and  N_21 
REMARK    2  A    between atoms: C_7  and  C_8 
REMARK    3  A    between atoms: C_11  and  O_14 
REMARK    4  A    between atoms: O_14  and  C_15 
REMARK    5  A    between atoms: N_21  and  C_22 
REMARK    6  A    between atoms: C_25  and  N_29 
ROOT
HETATM    1  O   UNK N   1      25.072  23.364  -9.477  0.00  0.00    -0.267 OA
HETATM    2  C   UNK N   1      26.116  23.523  -8.875  0.00  0.00     0.256 C 
HETATM    3  N   UNK N   1      27.295  23.162  -9.477  0.00  0.00    -0.322 N 
HETATM    4  H   UNK N   1      27.304  22.929 -10.434  0.00  0.00     0.169 HD
ENDROOT
BRANCH   2   5
HETATM    5  C   UNK N   1      26.087  24.083  -7.464  0.00  0.00     0.039 A 
HETATM    6  C   UNK N   1      26.070  23.215  -6.354  0.00  0.00     0.017 A 
HETATM    7  C   UNK N   1      25.968  23.704  -5.054  0.00  0.00     0.002 A 
HETATM    8  C   UNK N   1      25.933  25.074  -4.832  0.00  0.00     0.013 A 
HETATM    9  C   UNK N   1      25.980  25.979  -5.903  0.00  0.00    -0.019 A 
HETATM   10  C   UNK N   1      26.035  25.471  -7.243  0.00  0.00    -0.035 A 
HETATM   11  C   UNK N   1      26.008  26.372  -8.442  0.00  0.00     0.050 C 
BRANCH   9  12
HETATM   12  C   UNK N   1      26.165  27.424  -5.590  0.00  0.00    -0.025 C 
HETATM   13  C   UNK N   1      25.505  28.013  -4.491  0.00  0.00     0.015 C 
HETATM   14  C   UNK N   1      26.001  29.198  -3.930  0.00  0.00     0.038 C 
HETATM   15  C   UNK N   1      27.171  29.771  -4.446  0.00  0.00     0.078 C 
HETATM   16  C   UNK N   1      27.737  29.251  -5.609  0.00  0.00     0.038 C 
HETATM   17  C   UNK N   1      27.236  28.101  -6.167  0.00  0.00     0.015 C 
BRANCH  15  18
HETATM   18  O   UNK N   1      27.826  30.723  -3.744  0.00  0.00    -0.255 OA
BRANCH  18  19
HETATM   19  C   UNK N   1      28.588  30.403  -2.627  0.00  0.00     0.530 C 
HETATM   20  F   UNK N   1      27.908  30.759  -1.483  0.00  0.00    -0.144 F 
HETATM   21  F   UNK N   1      28.814  29.033  -2.597  0.00  0.00    -0.144 F 
HETATM   22  F   UNK N   1      29.806  31.062  -2.654  0.00  0.00    -0.144 F 
ENDBRANCH  18  19
ENDBRANCH  15  18
ENDBRANCH   9  12
ENDBRANCH   2   5
BRANCH   3  23
HETATM   23  C   UNK N   1      28.492  23.121  -8.732  0.00  0.00     0.050 C 
HETATM   24  C   UNK N   1      29.130  24.317  -8.414  0.00  0.00     0.035 C 
HETATM   25  C   UNK N   1      29.954  24.371  -7.293  0.00  0.00     0.051 C 
HETATM   26  C   UNK N   1      30.058  23.239  -6.472  0.00  0.00     0.103 C 
HETATM   27  N   UNK N   1      29.517  22.058  -6.867  0.00  0.00    -0.350 N 
HETATM   28  C   UNK N   1      28.783  21.966  -7.992  0.00  0.00     0.119 C 
ATOM     29  HN  UNK N   1      29.670  21.224  -6.301  1.00  0.00     0.166 HD
BRANCH  26  30
HETATM   30  N   UNK N   1      30.627  23.336  -5.192  0.00  0.00    -0.362 N 
HETATM   31  C   UNK N   1      30.096  22.572  -4.109  0.00  0.00     0.156 C 
HETATM   32  C   UNK N   1      29.389  23.600  -3.237  0.00  0.00     0.136 C 
HETATM   33  O   UNK N   1      30.309  24.581  -2.764  0.00  0.00    -0.378 OA
HETATM   34  C   UNK N   1      28.759  22.892  -2.063  0.00  0.00     0.041 C 
HETATM   35  C   UNK N   1      30.911  25.316  -3.828  0.00  0.00     0.136 C 
HETATM   36  C   UNK N   1      31.537  24.408  -4.878  0.00  0.00     0.156 C 
HETATM   37  C   UNK N   1      29.941  26.297  -4.472  0.00  0.00     0.041 C 
ENDBRANCH  26  30
ENDBRANCH   3  23
TORSDOF 6
ENDMDL
MODEL 5
REMARK VINA RESULT:      -9.0      6.156     11.150
REMARK  6 active torsions:
REMARK  status: ('A' for Active; 'I' for Inactive)
REMARK    1  A    between atoms: C_2  and  C_3 
REMARK       I    between atoms: C_2  and  N_21 
REMARK    2  A    between atoms: C_7  and  C_8 
REMARK    3  A    between atoms: C_11  and  O_14 
REMARK    4  A    between atoms: O_14  and  C_15 
REMARK    5  A    between atoms: N_21  and  C_22 
REMARK    6  A    between atoms: C_25  and  N_29 
ROOT
HETATM    1  O   UNK N   1      25.643  20.031   2.525  0.00  0.00    -0.267 OA
HETATM    2  C   UNK N   1      25.342  19.428   3.536  0.00  0.00     0.256 C 
HETATM    3  N   UNK N   1      24.237  18.615   3.523  0.00  0.00    -0.322 N 
HETATM    4  H   UNK N   1      23.794  18.405   2.669  0.00  0.00     0.169 HD
ENDROOT
BRANCH   2   5
HETATM    5  C   UNK N   1      26.174  19.613   4.793  0.00  0.00     0.039 A 
HETATM    6  C   UNK N   1      25.908  20.681   5.672  0.00  0.00     0.017 A 
HETATM    7  C   UNK N   1      26.704  20.915   6.790  0.00  0.00     0.002 A 
HETATM    8  C   UNK N   1      27.752  20.054   7.084  0.00  0.00     0.013 A 
HETATM    9  C   UNK N   1      28.037  18.957   6.256  0.00  0.00    -0.019 A 
HETATM   10  C   UNK N   1      27.246  18.748   5.079  0.00  0.00    -0.035 A 
HETATM   11  C   UNK N   1      27.538  17.646   4.104  0.00  0.00     0.050 C 
BRANCH   9  12
HETATM   12  C   UNK N   1      29.023  17.952   6.743  0.00  0.00    -0.025 C 
HETATM   13  C   UNK N   1      30.015  17.439   5.882  0.00  0.00     0.015 C 
HETATM   14  C   UNK N   1      31.180  16.871   6.415  0.00  0.00     0.038 C 
HETATM   15  C   UNK N   1      31.365  16.848   7.804  0.00  0.00     0.078 C 
HETATM   16  C   UNK N   1      30.325  17.240   8.644  0.00  0.00     0.038 C 
HETATM   17  C   UNK N   1      29.176  17.777   8.116  0.00  0.00     0.015 C 
BRANCH  15  18
HETATM   18  O   UNK N   1      32.589  16.590   8.319  0.00  0.00    -0.255 OA
BRANCH  18  19
HETATM   19  C   UNK N   1      33.608  17.533   8.274  0.00  0.00     0.530 C 
HETATM   20  F   UNK N   1      33.067  18.800   8.262  0.00  0.00    -0.144 F 
HETATM   21  F   UNK N   1      34.408  17.405   9.401  0.00  0.00    -0.144 F 
HETATM   22  F   UNK N   1      34.390  17.363   7.143  0.00  0.00    -0.144 F 
ENDBRANCH  18  19
ENDBRANCH  15  18
ENDBRANCH   9  12
ENDBRANCH   2   5
BRANCH   3  23
HETATM   23  C   UNK N   1      23.731  18.081   4.727  0.00  0.00     0.050 C 
HETATM   24  C   UNK N   1      22.625  18.684   5.320  0.00  0.00     0.035 C 
HETATM   25  C   UNK N   1      21.801  17.927   6.150  0.00  0.00     0.051 C 
HETATM   26  C   UNK N   1      22.066  16.559   6.304  0.00  0.00     0.103 C 
HETATM   27  N   UNK N   1      23.212  16.026   5.807  0.00  0.00    -0.350 N 
HETATM   28  C   UNK N   1      24.063  16.762   5.068  0.00  0.00     0.119 C 
ATOM     29  HN  UNK N   1      23.432  15.048   5.996  1.00  0.00     0.166 HD
BRANCH  26  30
HETATM   30  N   UNK N   1      21.109  15.707   6.878  0.00  0.00    -0.362 N 
HETATM   31  C   UNK N   1      21.116  15.458   8.283  0.00  0.00     0.156 C 
HETATM   32  C   UNK N   1      21.615  14.026   8.407  0.00  0.00     0.136 C 
HETATM   33  O   UNK N   1      20.738  13.124   7.737  0.00  0.00    -0.378 OA
HETATM   34  C   UNK N   1      21.692  13.661   9.870  0.00  0.00     0.041 C 
HETATM   35  C   UNK N   1      20.653  13.391   6.338  0.00  0.00     0.136 C 
HETATM   36  C   UNK N   1      20.308  14.845   6.045  0.00  0.00     0.156 C 
HETATM   37  C   UNK N   1      21.915  12.976   5.595  0.00  0.00     0.041 C 
ENDBRANCH  26  30
ENDBRANCH   3  23
TORSDOF 6
ENDMDL
MODEL 6
REMARK VINA RESULT:      -8.9      1.842      2.463
REMARK  6 active torsions:
REMARK  status: ('A' for Active; 'I' for Inactive)
REMARK    1  A    between atoms: C_2  and  C_3 
REMARK       I    between atoms: C_2  and  N_21 
REMARK    2  A    between atoms: C_7  and  C_8 
REMARK    3  A    between atoms: C_11  and  O_14 
REMARK    4  A    between atoms: O_14  and  C_15 
REMARK    5  A    between atoms: N_21  and  C_22 
REMARK    6  A    between atoms: C_25  and  N_29 
ROOT
HETATM    1  O   UNK N   1      34.007  14.432   4.596  0.00  0.00    -0.267 OA
HETATM    2  C   UNK N   1      34.179  14.559   5.793  0.00  0.00     0.256 C 
HETATM    3  N   UNK N   1      34.834  13.568   6.480  0.00  0.00    -0.322 N 
HETATM    4  H   UNK N   1      35.292  12.850   5.986  0.00  0.00     0.169 HD
ENDROOT
BRANCH   2   5
HETATM    5  C   UNK N   1      33.638  15.788   6.501  0.00  0.00     0.039 A 
HETATM    6  C   UNK N   1      34.519  16.764   7.007  0.00  0.00     0.017 A 
HETATM    7  C   UNK N   1      34.051  17.862   7.724  0.00  0.00     0.002 A 
HETATM    8  C   UNK N   1      32.686  18.036   7.906  0.00  0.00     0.013 A 
HETATM    9  C   UNK N   1      31.766  17.108   7.393  0.00  0.00    -0.019 A 
HETATM   10  C   UNK N   1      32.255  15.954   6.698  0.00  0.00    -0.035 A 
HETATM   11  C   UNK N   1      31.341  14.878   6.190  0.00  0.00     0.050 C 
BRANCH   9  12
HETATM   12  C   UNK N   1      30.320  17.465   7.427  0.00  0.00    -0.025 C 
HETATM   13  C   UNK N   1      29.755  18.074   8.567  0.00  0.00     0.015 C 
HETATM   14  C   UNK N   1      28.563  18.804   8.452  0.00  0.00     0.038 C 
HETATM   15  C   UNK N   1      27.961  18.951   7.196  0.00  0.00     0.078 C 
HETATM   16  C   UNK N   1      28.458  18.240   6.106  0.00  0.00     0.038 C 
HETATM   17  C   UNK N   1      29.614  17.510   6.227  0.00  0.00     0.015 C 
BRANCH  15  18
HETATM   18  O   UNK N   1      26.999  19.885   7.012  0.00  0.00    -0.255 OA
BRANCH  18  19
HETATM   19  C   UNK N   1      27.236  21.028   6.260  0.00  0.00     0.530 C 
HETATM   20  F   UNK N   1      28.491  21.521   6.545  0.00  0.00    -0.144 F 
HETATM   21  F   UNK N   1      27.183  20.714   4.908  0.00  0.00    -0.144 F 
HETATM   22  F   UNK N   1      26.293  22.006   6.534  0.00  0.00    -0.144 F 
ENDBRANCH  18  19
ENDBRANCH  15  18
ENDBRANCH   9  12
ENDBRANCH   2   5
BRANCH   3  23
HETATM   23  C   UNK N   1      34.854  13.572   7.891  0.00  0.00     0.050 C 
HETATM   24  C   UNK N   1      33.900  12.829   8.581  0.00  0.00     0.035 C 
HETATM   25  C   UNK N   1      34.187  12.382   9.868  0.00  0.00     0.051 C 
HETATM   26  C   UNK N   1      35.459  12.629  10.405  0.00  0.00     0.103 C 
HETATM   27  N   UNK N   1      36.324  13.450   9.757  0.00  0.00    -0.350 N 
HETATM   28  C   UNK N   1      36.032  13.958   8.545  0.00  0.00     0.119 C 
ATOM     29  HN  UNK N   1      37.213  13.687  10.197  1.00  0.00     0.166 HD
BRANCH  26  30
HETATM   30  N   UNK N   1      35.891  11.951  11.556  0.00  0.00    -0.362 N 
HETATM   31  C   UNK N   1      35.028  11.024  12.212  0.00  0.00     0.156 C 
HETATM   32  C   UNK N   1      34.616  11.736  13.493  0.00  0.00     0.136 C 
HETATM   33  O   UNK N   1      35.755  12.027  14.299  0.00  0.00    -0.378 OA
HETATM   34  C   UNK N   1      33.667  10.848  14.261  0.00  0.00     0.041 C 
HETATM   35  C   UNK N   1      36.674  12.899  13.642  0.00  0.00     0.136 C 
HETATM   36  C   UNK N   1      37.069  12.391  12.262  0.00  0.00     0.156 C 
HETATM   37  C   UNK N   1      36.158  14.328  13.565  0.00  0.00     0.041 C 
ENDBRANCH  26  30
ENDBRANCH   3  23
TORSDOF 6
ENDMDL
MODEL 7
REMARK VINA RESULT:      -8.7      6.036      9.533
REMARK  6 active torsions:
REMARK  status: ('A' for Active; 'I' for Inactive)
REMARK    1  A    between atoms: C_2  and  C_3 
REMARK       I    between atoms: C_2  and  N_21 
REMARK    2  A    between atoms: C_7  and  C_8 
REMARK    3  A    between atoms: C_11  and  O_14 
REMARK    4  A    between atoms: O_14  and  C_15 
REMARK    5  A    between atoms: N_21  and  C_22 
REMARK    6  A    between atoms: C_25  and  N_29 
ROOT
HETATM    1  O   UNK N   1      26.431  18.972   3.767  0.00  0.00    -0.267 OA
HETATM    2  C   UNK N   1      26.363  17.786   4.024  0.00  0.00     0.256 C 
HETATM    3  N   UNK N   1      25.271  17.314   4.708  0.00  0.00    -0.322 N 
HETATM    4  H   UNK N   1      24.490  17.897   4.845  0.00  0.00     0.169 HD
ENDROOT
BRANCH   2   5
HETATM    5  C   UNK N   1      27.499  16.866   3.613  0.00  0.00     0.039 A 
HETATM    6  C   UNK N   1      27.293  15.873   2.635  0.00  0.00     0.017 A 
HETATM    7  C   UNK N   1      28.297  14.970   2.297  0.00  0.00     0.002 A 
HETATM    8  C   UNK N   1      29.548  15.073   2.891  0.00  0.00     0.013 A 
HETATM    9  C   UNK N   1      29.812  16.066   3.847  0.00  0.00    -0.019 A 
HETATM   10  C   UNK N   1      28.760  16.963   4.229  0.00  0.00    -0.035 A 
HETATM   11  C   UNK N   1      28.941  17.998   5.300  0.00  0.00     0.050 C 
BRANCH   9  12
HETATM   12  C   UNK N   1      31.224  16.264   4.277  0.00  0.00    -0.025 C 
HETATM   13  C   UNK N   1      31.957  17.390   3.848  0.00  0.00     0.015 C 
HETATM   14  C   UNK N   1      33.078  17.814   4.576  0.00  0.00     0.038 C 
HETATM   15  C   UNK N   1      33.441  17.135   5.746  0.00  0.00     0.078 C 
HETATM   16  C   UNK N   1      32.787  15.952   6.086  0.00  0.00     0.038 C 
HETATM   17  C   UNK N   1      31.703  15.528   5.359  0.00  0.00     0.015 C 
BRANCH  15  18
HETATM   18  O   UNK N   1      34.313  17.698   6.612  0.00  0.00    -0.255 OA
BRANCH  18  19
HETATM   19  C   UNK N   1      33.923  18.074   7.891  0.00  0.00     0.530 C 
HETATM   20  F   UNK N   1      34.166  17.044   8.773  0.00  0.00    -0.144 F 
HETATM   21  F   UNK N   1      34.658  19.182   8.293  0.00  0.00    -0.144 F 
HETATM   22  F   UNK N   1      32.574  18.390   7.925  0.00  0.00    -0.144 F 
ENDBRANCH  18  19
ENDBRANCH  15  18
ENDBRANCH   9  12
ENDBRANCH   2   5
BRANCH   3  23
HETATM   23  C   UNK N   1      25.264  15.998   5.216  0.00  0.00     0.050 C 
HETATM   24  C   UNK N   1      25.785  15.762   6.486  0.00  0.00     0.035 C 
HETATM   25  C   UNK N   1      25.335  14.663   7.213  0.00  0.00     0.051 C 
HETATM   26  C   UNK N   1      24.313  13.868   6.677  0.00  0.00     0.103 C 
HETATM   27  N   UNK N   1      23.905  14.053   5.396  0.00  0.00    -0.350 N 
HETATM   28  C   UNK N   1      24.388  15.063   4.647  0.00  0.00     0.119 C 
ATOM     29  HN  UNK N   1      23.220  13.416   4.992  1.00  0.00     0.166 HD
BRANCH  26  30
HETATM   30  N   UNK N   1      23.629  12.945   7.485  0.00  0.00    -0.362 N 
HETATM   31  C   UNK N   1      22.274  13.186   7.864  0.00  0.00     0.156 C 
HETATM   32  C   UNK N   1      22.355  13.538   9.342  0.00  0.00     0.136 C 
HETATM   33  O   UNK N   1      22.907  12.459  10.090  0.00  0.00    -0.378 OA
HETATM   34  C   UNK N   1      20.966  13.844   9.847  0.00  0.00     0.041 C 
HETATM   35  C   UNK N   1      24.240  12.146   9.687  0.00  0.00     0.136 C 
HETATM   36  C   UNK N   1      24.351  11.914   8.187  0.00  0.00     0.156 C 
HETATM   37  C   UNK N   1      25.242  13.195  10.148  0.00  0.00     0.041 C 
ENDBRANCH  26  30
ENDBRANCH   3  23
TORSDOF 6
ENDMDL
MODEL 8
REMARK VINA RESULT:      -8.6     14.356     17.913
REMARK  6 active torsions:
REMARK  status: ('A' for Active; 'I' for Inactive)
REMARK    1  A    between atoms: C_2  and  C_3 
REMARK       I    between atoms: C_2  and  N_21 
REMARK    2  A    between atoms: C_7  and  C_8 
REMARK    3  A    between atoms: C_11  and  O_14 
REMARK    4  A    between atoms: O_14  and  C_15 
REMARK    5  A    between atoms: N_21  and  C_22 
REMARK    6  A    between atoms: C_25  and  N_29 
ROOT
HETATM    1  O   UNK N   1      33.082  21.403  -2.161  0.00  0.00    -0.267 OA
HETATM    2  C   UNK N   1      32.628  21.298  -3.284  0.00  0.00     0.256 C 
HETATM    3  N   UNK N   1      32.785  20.114  -3.958  0.00  0.00    -0.322 N 
HETATM    4  H   UNK N   1      33.117  19.319  -3.480  0.00  0.00     0.169 HD
ENDROOT
BRANCH   2   5
HETATM    5  C   UNK N   1      31.932  22.487  -3.923  0.00  0.00     0.039 A 
HETATM    6  C   UNK N   1      32.679  23.469  -4.602  0.00  0.00     0.017 A 
HETATM    7  C   UNK N   1      32.072  24.605  -5.131  0.00  0.00     0.002 A 
HETATM    8  C   UNK N   1      30.695  24.758  -5.038  0.00  0.00     0.013 A 
HETATM    9  C   UNK N   1      29.904  23.792  -4.399  0.00  0.00    -0.019 A 
HETATM   10  C   UNK N   1      30.539  22.648  -3.813  0.00  0.00    -0.035 A 
HETATM   11  C   UNK N   1      29.771  21.612  -3.045  0.00  0.00     0.050 C 
BRANCH   9  12
HETATM   12  C   UNK N   1      28.424  23.903  -4.529  0.00  0.00    -0.025 C 
HETATM   13  C   UNK N   1      27.653  24.487  -3.503  0.00  0.00     0.015 C 
HETATM   14  C   UNK N   1      26.378  24.997  -3.790  0.00  0.00     0.038 C 
HETATM   15  C   UNK N   1      25.895  24.952  -5.103  0.00  0.00     0.078 C 
HETATM   16  C   UNK N   1      26.611  24.259  -6.078  0.00  0.00     0.038 C 
HETATM   17  C   UNK N   1      27.850  23.743  -5.788  0.00  0.00     0.015 C 
BRANCH  15  18
HETATM   18  O   UNK N   1      24.821  25.696  -5.456  0.00  0.00    -0.255 OA
BRANCH  18  19
HETATM   19  C   UNK N   1      24.900  27.080  -5.552  0.00  0.00     0.530 C 
HETATM   20  F   UNK N   1      23.708  27.580  -6.027  0.00  0.00    -0.144 F 
HETATM   21  F   UNK N   1      25.135  27.619  -4.294  0.00  0.00    -0.144 F 
HETATM   22  F   UNK N   1      25.923  27.459  -6.406  0.00  0.00    -0.144 F 
ENDBRANCH  18  19
ENDBRANCH  15  18
ENDBRANCH   9  12
ENDBRANCH   2   5
BRANCH   3  23
HETATM   23  C   UNK N   1      32.475  20.029  -5.331  0.00  0.00     0.050 C 
HETATM   24  C   UNK N   1      31.146  19.866  -5.714  0.00  0.00     0.035 C 
HETATM   25  C   UNK N   1      30.743  20.299  -6.974  0.00  0.00     0.051 C 
HETATM   26  C   UNK N   1      31.671  20.958  -7.794  0.00  0.00     0.103 C 
HETATM   27  N   UNK N   1      32.981  21.001  -7.443  0.00  0.00    -0.350 N 
HETATM   28  C   UNK N   1      33.405  20.514  -6.261  0.00  0.00     0.119 C 
ATOM     29  HN  UNK N   1      33.658  21.410  -8.086  1.00  0.00     0.166 HD
BRANCH  26  30
HETATM   30  N   UNK N   1      31.243  21.667  -8.928  0.00  0.00    -0.362 N 
HETATM   31  C   UNK N   1      30.198  22.632  -8.822  0.00  0.00     0.156 C 
HETATM   32  C   UNK N   1      29.008  21.973  -9.504  0.00  0.00     0.136 C 
HETATM   33  O   UNK N   1      29.300  21.689 -10.870  0.00  0.00    -0.378 OA
HETATM   34  C   UNK N   1      27.822  22.903  -9.424  0.00  0.00     0.041 C 
HETATM   35  C   UNK N   1      30.390  20.779 -11.013  0.00  0.00     0.136 C 
HETATM   36  C   UNK N   1      31.626  21.231 -10.248  0.00  0.00     0.156 C 
HETATM   37  C   UNK N   1      30.006  19.357 -10.628  0.00  0.00     0.041 C 
ENDBRANCH  26  30
ENDBRANCH   3  23
TORSDOF 6
ENDMDL
MODEL 9
REMARK VINA RESULT:      -8.4     15.440     18.977
REMARK  6 active torsions:
REMARK  status: ('A' for Active; 'I' for Inactive)
REMARK    1  A    between atoms: C_2  and  C_3 
REMARK       I    between atoms: C_2  and  N_21 
REMARK    2  A    between atoms: C_7  and  C_8 
REMARK    3  A    between atoms: C_11  and  O_14 
REMARK    4  A    between atoms: O_14  and  C_15 
REMARK    5  A    between atoms: N_21  and  C_22 
REMARK    6  A    between atoms: C_25  and  N_29 
ROOT
HETATM    1  O   UNK N   1      27.236  28.537  -3.068  0.00  0.00    -0.267 OA
HETATM    2  C   UNK N   1      27.340  27.862  -4.074  0.00  0.00     0.256 C 
HETATM    3  N   UNK N   1      27.183  28.462  -5.298  0.00  0.00    -0.322 N 
HETATM    4  H   UNK N   1      27.144  29.444  -5.361  0.00  0.00     0.169 HD
ENDROOT
BRANCH   2   5
HETATM    5  C   UNK N   1      27.608  26.373  -3.951  0.00  0.00     0.039 A 
HETATM    6  C   UNK N   1      26.543  25.452  -3.993  0.00  0.00     0.017 A 
HETATM    7  C   UNK N   1      26.756  24.088  -3.807  0.00  0.00     0.002 A 
HETATM    8  C   UNK N   1      28.047  23.609  -3.628  0.00  0.00     0.013 A 
HETATM    9  C   UNK N   1      29.145  24.484  -3.611  0.00  0.00    -0.019 A 
HETATM   10  C   UNK N   1      28.916  25.892  -3.753  0.00  0.00    -0.035 A 
HETATM   11  C   UNK N   1      30.027  26.896  -3.666  0.00  0.00     0.050 C 
BRANCH   9  12
HETATM   12  C   UNK N   1      30.511  23.891  -3.640  0.00  0.00    -0.025 C 
HETATM   13  C   UNK N   1      30.870  22.866  -2.741  0.00  0.00     0.015 C 
HETATM   14  C   UNK N   1      31.944  22.016  -3.041  0.00  0.00     0.038 C 
HETATM   15  C   UNK N   1      32.632  22.172  -4.252  0.00  0.00     0.078 C 
HETATM   16  C   UNK N   1      32.349  23.265  -5.068  0.00  0.00     0.038 C 
HETATM   17  C   UNK N   1      31.310  24.108  -4.759  0.00  0.00     0.015 C 
BRANCH  15  18
HETATM   18  O   UNK N   1      33.454  21.194  -4.694  0.00  0.00    -0.255 OA
BRANCH  18  19
HETATM   19  C   UNK N   1      32.956  19.980  -5.151  0.00  0.00     0.530 C 
HETATM   20  F   UNK N   1      33.670  19.570  -6.255  0.00  0.00    -0.144 F 
HETATM   21  F   UNK N   1      33.091  19.019  -4.157  0.00  0.00    -0.144 F 
HETATM   22  F   UNK N   1      31.618  20.091  -5.493  0.00  0.00    -0.144 F 
ENDBRANCH  18  19
ENDBRANCH  15  18
ENDBRANCH   9  12
ENDBRANCH   2   5
BRANCH   3  23
HETATM   23  C   UNK N   1      27.073  27.679  -6.466  0.00  0.00     0.050 C 
HETATM   24  C   UNK N   1      28.221  27.098  -6.999  0.00  0.00     0.035 C 
HETATM   25  C   UNK N   1      28.104  25.947  -7.775  0.00  0.00     0.051 C 
HETATM   26  C   UNK N   1      26.841  25.362  -7.933  0.00  0.00     0.103 C 
HETATM   27  N   UNK N   1      25.729  26.009  -7.499  0.00  0.00    -0.350 N 
HETATM   28  C   UNK N   1      25.816  27.167  -6.816  0.00  0.00     0.119 C 
ATOM     29  HN  UNK N   1      24.811  25.612  -7.694  1.00  0.00     0.166 HD
BRANCH  26  30
HETATM   30  N   UNK N   1      26.717  24.059  -8.445  0.00  0.00    -0.362 N 
HETATM   31  C   UNK N   1      25.502  23.331  -8.271  0.00  0.00     0.156 C 
HETATM   32  C   UNK N   1      25.848  22.267  -7.239  0.00  0.00     0.136 C 
HETATM   33  O   UNK N   1      26.887  21.417  -7.716  0.00  0.00    -0.378 OA
HETATM   34  C   UNK N   1      24.614  21.446  -6.953  0.00  0.00     0.041 C 
HETATM   35  C   UNK N   1      28.097  22.129  -7.968  0.00  0.00     0.136 C 
HETATM   36  C   UNK N   1      27.883  23.332  -8.876  0.00  0.00     0.156 C 
HETATM   37  C   UNK N   1      28.800  22.541  -6.682  0.00  0.00     0.041 C 
ENDBRANCH  26  30
ENDBRANCH   3  23
TORSDOF 6
ENDMDL
