REMARK  13 active torsions:
REMARK  status: ('A' for Active; 'I' for Inactive)
REMARK    1  A    between atoms: C_32  and  C_12 
REMARK    2  A    between atoms: C_14  and  C_13 
REMARK    3  A    between atoms: C_18  and  C_13 
REMARK    4  A    between atoms: C_19  and  C_14 
REMARK    5  A    between atoms: N_51  and  C_18 
REMARK    6  A    between atoms: N_52  and  C_19 
REMARK    7  A    between atoms: C_30  and  C_28 
REMARK    8  A    between atoms: N_45  and  C_29 
REMARK    9  A    between atoms: C_31  and  N_50 
REMARK   10  A    between atoms: C_34  and  O_54 
REMARK   11  A    between atoms: C_37  and  O_61 
REMARK   12  A    between atoms: C_38  and  O_61 
REMARK   13  A    between atoms: C_41  and  O_58 
ROOT
HETATM    1  C   UNK N   1       5.459  -0.796   2.900  0.00  0.00     0.018 C 
HETATM    2  C   UNK N   1       4.951  -1.551  -1.837  0.00  0.00     0.020 C 
HETATM    3  C   UNK N   1      10.299  -3.809  -0.751  0.00  0.00     0.021 C 
HETATM    4  C   UNK N   1       8.945  -0.807   2.278  0.00  0.00     0.049 C 
HETATM    5  C   UNK N   1       8.215  -5.719   1.176  0.00  0.00     0.072 C 
HETATM    6  C   UNK N   1       3.126  -4.352  -1.872  0.00  0.00     0.052 C 
HETATM    7  C   UNK N   1       7.001  -1.389   1.015  0.00  0.00     0.052 C 
HETATM    8  C   UNK N   1       5.861  -0.487   1.472  0.00  0.00     0.054 C 
HETATM    9  C   UNK N   1       4.553  -1.851  -0.401  0.00  0.00     0.077 C 
HETATM   10  C   UNK N   1       9.227  -3.106   0.069  0.00  0.00     0.087 C 
HETATM   11  C   UNK N   1       3.473  -4.924   0.578  0.00  0.00     0.168 C 
HETATM   12  C   UNK N   1       4.707  -0.648   0.526  0.00  0.00     0.136 C 
HETATM   13  C   UNK N   1       3.150  -2.439  -0.218  0.00  0.00     0.137 C 
HETATM   14  C   UNK N   1       7.884  -3.719  -0.368  0.00  0.00     0.182 C 
HETATM   15  C   UNK N   1       9.317  -1.537  -0.145  0.00  0.00     0.170 C 
HETATM   16  C   UNK N   1       5.937  -4.790   0.836  0.00  0.00     0.307 C 
HETATM   17  C   UNK N   1       1.021  -2.639  -0.828  0.00  0.00     0.364 C 
HETATM   18  C   UNK N   1       8.373  -0.745   0.867  0.00  0.00     0.084 C 
HETATM   19  C   UNK N   1       7.296  -5.025   0.183  0.00  0.00     0.246 C 
HETATM   20  C   UNK N   1       2.790  -3.937  -0.431  0.00  0.00     0.116 C 
HETATM   21  F   UNK N   1       7.130  -5.880  -0.895  0.00  0.00    -0.224 F 
HETATM   22  N   UNK N   1       2.058  -1.798  -0.918  0.00  0.00    -0.319 N 
HETATM   23  O   UNK N   1       3.799   0.148   0.614  0.00  0.00    -0.297 OA
HETATM   24  O   UNK N   1       7.291  -3.192  -1.297  0.00  0.00    -0.293 OA
HETATM   25  O   UNK N   1       5.870  -4.183   1.895  0.00  0.00    -0.261 OA
HETATM   26  O   UNK N   1      -0.063  -2.439  -1.349  0.00  0.00    -0.238 OA
HETATM   27  O   UNK N   1       4.796  -5.172   0.186  0.00  0.00    -0.310 OA
HETATM   28  O   UNK N   1       1.395  -3.844  -0.334  0.00  0.00    -0.288 OA
ENDROOT
BRANCH  22  29
HETATM   29  C   UNK N   1       2.196  -0.882  -2.053  0.00  0.00     0.129 C 
BRANCH  29  30
HETATM   30  C   UNK N   1       1.906   0.572  -1.771  0.00  0.00     0.022 C 
BRANCH  30  31
HETATM   31  C   UNK N   1       3.158   1.479  -1.727  0.00  0.00     0.023 C 
BRANCH  31  32
HETATM   32  C   UNK N   1       2.890   2.809  -0.970  0.00  0.00     0.150 C 
BRANCH  32  33
HETATM   33  N   UNK N   1       1.774   2.612  -0.059  0.00  0.00    -0.287 N 
HETATM   34  C   UNK N   1       0.491   2.780  -0.425  0.00  0.00     0.143 A 
HETATM   35  C   UNK N   1      -0.233   1.934   0.386  0.00  0.00     0.076 A 
HETATM   36  N   UNK N   1       0.613   1.289   1.205  0.00  0.00    -0.284 N 
HETATM   37  N   UNK N   1       1.823   1.726   0.922  0.00  0.00    -0.240 N 
ATOM     38  HN  UNK N   1       0.366   0.595   1.911  1.00  0.00     0.188 HD
ATOM     39  HN  UNK N   1       2.677   1.424   1.391  1.00  0.00     0.208 HD
BRANCH  35  40
HETATM   40  C   UNK N   1      -1.643   1.604   0.248  0.00  0.00    -0.004 A 
HETATM   41  C   UNK N   1      -2.060   0.282   0.447  0.00  0.00     0.014 A 
HETATM   42  C   UNK N   1      -3.404  -0.060   0.287  0.00  0.00     0.003 A 
HETATM   43  C   UNK N   1      -4.340   0.932  -0.014  0.00  0.00     0.029 A 
HETATM   44  C   UNK N   1      -3.926   2.257  -0.191  0.00  0.00     0.026 A 
HETATM   45  C   UNK N   1      -2.574   2.587  -0.092  0.00  0.00     0.042 A 
BRANCH  44  46
HETATM   46  N   UNK N   1      -4.878   3.266  -0.426  0.00  0.00    -0.399 N 
HETATM   47  H   UNK N   1      -4.599   4.196  -0.590  0.00  0.00     0.156 HD
HETATM   48  H   UNK N   1      -5.836   3.039  -0.426  0.00  0.00     0.156 HD
ENDBRANCH  44  46
ENDBRANCH  35  40
ENDBRANCH  32  33
ENDBRANCH  31  32
ENDBRANCH  30  31
ENDBRANCH  29  30
ENDBRANCH  22  29
BRANCH  11  49
HETATM   49  C   UNK N   1       2.722  -6.260   0.682  0.00  0.00     0.031 C 
HETATM   50  C   UNK N   1       2.700  -7.063  -0.609  0.00  0.00     0.007 C 
ENDBRANCH  11  49
BRANCH  18  51
HETATM   51  O   UNK N   1       8.237   0.618   0.487  0.00  0.00    -0.383 OA
HETATM   52  C   UNK N   1       7.562   0.730  -0.751  0.00  0.00     0.202 C 
ENDBRANCH  18  51
BRANCH  15  53
HETATM   53  O   UNK N   1      10.704  -1.139  -0.118  0.00  0.00    -0.349 OA
BRANCH  53  54
HETATM   54  C   UNK N   1      10.970   0.249   0.086  0.00  0.00     0.291 C 
HETATM   55  C   UNK N   1      12.479   0.531   0.036  0.00  0.00     0.206 C 
HETATM   56  C   UNK N   1      12.683   2.022   0.455  0.00  0.00     0.257 C 
HETATM   57  C   UNK N   1      11.830   2.933  -0.439  0.00  0.00     0.070 C 
HETATM   58  C   UNK N   1      10.386   2.431  -0.466  0.00  0.00     0.122 C 
HETATM   59  C   UNK N   1       9.592   3.286  -1.430  0.00  0.00     0.040 C 
HETATM   60  O   UNK N   1      10.343   1.072  -0.891  0.00  0.00    -0.354 OA
BRANCH  55  61
HETATM   61  O   UNK N   1      12.953   0.295  -1.259  0.00  0.00    -0.388 OA
HETATM   62  H   UNK N   1      12.976  -0.071  -2.157  0.00  0.00     0.210 HD
ENDBRANCH  55  61
BRANCH  56  63
HETATM   63  N   UNK N   1      14.084   2.485   0.475  0.00  0.00     0.087 N 
HETATM   64  C   UNK N   1      14.704   2.480  -0.844  0.00  0.00     0.310 C 
HETATM   65  C   UNK N   1      14.895   1.671   1.369  0.00  0.00     0.310 C 
ENDBRANCH  56  63
ENDBRANCH  53  54
ENDBRANCH  15  53
TORSDOF 13
