MODEL 1
REMARK VINA RESULT:      -6.1      0.000      0.000
REMARK  6 active torsions:
REMARK  status: ('A' for Active; 'I' for Inactive)
REMARK    1  A    between atoms: C_16  and  C_15 
REMARK    2  A    between atoms: N_22  and  C_15 
REMARK    3  A    between atoms: O_23  and  C_16 
REMARK    4  A    between atoms: C_20  and  C_17 
REMARK    5  A    between atoms: C_20  and  C_18 
REMARK    6  A    between atoms: O_23  and  C_20 
ROOT
HETATM    1  C   UNK N   1      35.854  12.501  14.981  0.00  0.00     0.187 C 
ENDROOT
BRANCH   1   2
HETATM    2  C   UNK N   1      35.648  12.447  16.489  0.00  0.00    -0.025 A 
HETATM    3  C   UNK N   1      35.338  13.576  17.260  0.00  0.00     0.010 A 
HETATM    4  C   UNK N   1      35.134  13.465  18.639  0.00  0.00     0.001 A 
HETATM    5  C   UNK N   1      35.242  12.220  19.262  0.00  0.00     0.000 A 
HETATM    6  C   UNK N   1      35.549  11.088  18.506  0.00  0.00     0.001 A 
HETATM    7  C   UNK N   1      35.747  11.200  17.126  0.00  0.00     0.010 A 
ENDBRANCH   1   2
BRANCH   1   8
HETATM    8  C   UNK N   1      35.517  11.298  14.107  0.00  0.00    -0.025 A 
HETATM    9  C   UNK N   1      36.468  10.350  13.706  0.00  0.00     0.012 A 
HETATM   10  C   UNK N   1      36.105   9.276  12.886  0.00  0.00     0.024 A 
HETATM   11  C   UNK N   1      34.782   9.141  12.461  0.00  0.00     0.034 A 
HETATM   12  C   UNK N   1      33.824  10.075  12.856  0.00  0.00     0.024 A 
HETATM   13 Cl   UNK N   1      34.328   7.802  11.429  0.00  0.00    -0.084 Cl
HETATM   14  C   UNK N   1      34.189  11.150  13.673  0.00  0.00     0.012 A 
ENDBRANCH   1   8
BRANCH   1  15
HETATM   15  O   UNK N   1      35.281  13.663  14.451  0.00  0.00    -0.375 OA
BRANCH  15  16
HETATM   16  C   UNK N   1      36.320  14.239  13.713  0.00  0.00     0.199 C 
BRANCH  16  17
HETATM   17  C   UNK N   1      35.828  14.844  12.400  0.00  0.00     0.298 C 
BRANCH  17  18
HETATM   18  N   UNK N   1      36.170  14.042  11.227  0.00  0.00     0.090 N 
HETATM   19  C   UNK N   1      37.292  13.151  11.545  0.00  0.00     0.272 C 
HETATM   20  C   UNK N   1      37.649  12.308  10.324  0.00  0.00     0.030 C 
HETATM   21  C   UNK N   1      36.448  11.449   9.948  0.00  0.00     0.003 C 
HETATM   22  C   UNK N   1      35.223  12.330   9.729  0.00  0.00     0.030 C 
HETATM   23  C   UNK N   1      34.992  13.215  10.954  0.00  0.00     0.272 C 
ENDBRANCH  17  18
ENDBRANCH  16  17
ENDBRANCH  15  16
ENDBRANCH   1  15
TORSDOF 6
ENDMDL
MODEL 2
REMARK VINA RESULT:      -6.0      9.394     12.725
REMARK  6 active torsions:
REMARK  status: ('A' for Active; 'I' for Inactive)
REMARK    1  A    between atoms: C_16  and  C_15 
REMARK    2  A    between atoms: N_22  and  C_15 
REMARK    3  A    between atoms: O_23  and  C_16 
REMARK    4  A    between atoms: C_20  and  C_17 
REMARK    5  A    between atoms: C_20  and  C_18 
REMARK    6  A    between atoms: O_23  and  C_20 
ROOT
HETATM    1  C   UNK N   1      29.536  17.801   5.507  0.00  0.00     0.187 C 
ENDROOT
BRANCH   1   2
HETATM    2  C   UNK N   1      30.583  17.055   4.689  0.00  0.00    -0.025 A 
HETATM    3  C   UNK N   1      30.437  15.718   4.297  0.00  0.00     0.010 A 
HETATM    4  C   UNK N   1      31.419  15.088   3.525  0.00  0.00     0.001 A 
HETATM    5  C   UNK N   1      32.560  15.794   3.138  0.00  0.00     0.000 A 
HETATM    6  C   UNK N   1      32.717  17.127   3.522  0.00  0.00     0.001 A 
HETATM    7  C   UNK N   1      31.732  17.756   4.289  0.00  0.00     0.010 A 
ENDBRANCH   1   2
BRANCH   1   8
HETATM    8  C   UNK N   1      28.295  18.381   4.837  0.00  0.00    -0.025 A 
HETATM    9  C   UNK N   1      27.286  17.589   4.275  0.00  0.00     0.012 A 
HETATM   10  C   UNK N   1      26.177  18.176   3.654  0.00  0.00     0.024 A 
HETATM   11  C   UNK N   1      26.071  19.567   3.594  0.00  0.00     0.034 A 
HETATM   12  C   UNK N   1      27.067  20.368   4.154  0.00  0.00     0.024 A 
HETATM   13 Cl   UNK N   1      24.689  20.305   2.812  0.00  0.00    -0.084 Cl
HETATM   14  C   UNK N   1      28.175  19.779   4.770  0.00  0.00     0.012 A 
ENDBRANCH   1   8
BRANCH   1  15
HETATM   15  O   UNK N   1      29.176  17.056   6.636  0.00  0.00    -0.375 OA
BRANCH  15  16
HETATM   16  C   UNK N   1      29.789  17.737   7.693  0.00  0.00     0.199 C 
BRANCH  16  17
HETATM   17  C   UNK N   1      30.456  16.784   8.682  0.00  0.00     0.298 C 
BRANCH  17  18
HETATM   18  N   UNK N   1      31.909  16.720   8.538  0.00  0.00     0.090 N 
HETATM   19  C   UNK N   1      32.264  15.726   7.520  0.00  0.00     0.272 C 
HETATM   20  C   UNK N   1      33.780  15.659   7.362  0.00  0.00     0.030 C 
HETATM   21  C   UNK N   1      34.289  17.019   6.901  0.00  0.00     0.003 C 
HETATM   22  C   UNK N   1      33.835  18.104   7.871  0.00  0.00     0.030 C 
HETATM   23  C   UNK N   1      32.318  18.040   8.052  0.00  0.00     0.272 C 
ENDBRANCH  17  18
ENDBRANCH  16  17
ENDBRANCH  15  16
ENDBRANCH   1  15
TORSDOF 6
ENDMDL
MODEL 3
REMARK VINA RESULT:      -5.8     20.492     23.720
REMARK  6 active torsions:
REMARK  status: ('A' for Active; 'I' for Inactive)
REMARK    1  A    between atoms: C_16  and  C_15 
REMARK    2  A    between atoms: N_22  and  C_15 
REMARK    3  A    between atoms: O_23  and  C_16 
REMARK    4  A    between atoms: C_20  and  C_17 
REMARK    5  A    between atoms: C_20  and  C_18 
REMARK    6  A    between atoms: O_23  and  C_20 
ROOT
HETATM    1  C   UNK N   1      29.899  24.726  -3.862  0.00  0.00     0.187 C 
ENDROOT
BRANCH   1   2
HETATM    2  C   UNK N   1      28.494  24.411  -4.359  0.00  0.00    -0.025 A 
HETATM    3  C   UNK N   1      27.363  24.454  -3.532  0.00  0.00     0.010 A 
HETATM    4  C   UNK N   1      26.092  24.180  -4.047  0.00  0.00     0.001 A 
HETATM    5  C   UNK N   1      25.941  23.857  -5.397  0.00  0.00     0.000 A 
HETATM    6  C   UNK N   1      27.059  23.811  -6.230  0.00  0.00     0.001 A 
HETATM    7  C   UNK N   1      28.329  24.091  -5.715  0.00  0.00     0.010 A 
ENDBRANCH   1   2
BRANCH   1   8
HETATM    8  C   UNK N   1      30.958  23.632  -3.779  0.00  0.00    -0.025 A 
HETATM    9  C   UNK N   1      30.945  22.624  -2.806  0.00  0.00     0.012 A 
HETATM   10  C   UNK N   1      31.956  21.656  -2.766  0.00  0.00     0.024 A 
HETATM   11  C   UNK N   1      32.988  21.689  -3.705  0.00  0.00     0.034 A 
HETATM   12  C   UNK N   1      33.010  22.684  -4.683  0.00  0.00     0.024 A 
HETATM   13 Cl   UNK N   1      34.256  20.484  -3.653  0.00  0.00    -0.084 Cl
HETATM   14  C   UNK N   1      32.002  23.653  -4.719  0.00  0.00     0.012 A 
ENDBRANCH   1   8
BRANCH   1  15
HETATM   15  O   UNK N   1      30.411  25.849  -4.522  0.00  0.00    -0.375 OA
BRANCH  15  16
HETATM   16  C   UNK N   1      29.994  26.922  -3.726  0.00  0.00     0.199 C 
BRANCH  16  17
HETATM   17  C   UNK N   1      29.718  28.177  -4.551  0.00  0.00     0.298 C 
BRANCH  17  18
HETATM   18  N   UNK N   1      28.294  28.454  -4.729  0.00  0.00     0.090 N 
HETATM   19  C   UNK N   1      27.744  27.572  -5.764  0.00  0.00     0.272 C 
HETATM   20  C   UNK N   1      26.255  27.854  -5.951  0.00  0.00     0.030 C 
HETATM   21  C   UNK N   1      25.530  27.567  -4.642  0.00  0.00     0.003 C 
HETATM   22  C   UNK N   1      26.155  28.375  -3.509  0.00  0.00     0.030 C 
HETATM   23  C   UNK N   1      27.660  28.114  -3.453  0.00  0.00     0.272 C 
ENDBRANCH  17  18
ENDBRANCH  16  17
ENDBRANCH  15  16
ENDBRANCH   1  15
TORSDOF 6
ENDMDL
MODEL 4
REMARK VINA RESULT:      -5.8     14.616     16.632
REMARK  6 active torsions:
REMARK  status: ('A' for Active; 'I' for Inactive)
REMARK    1  A    between atoms: C_16  and  C_15 
REMARK    2  A    between atoms: N_22  and  C_15 
REMARK    3  A    between atoms: O_23  and  C_16 
REMARK    4  A    between atoms: C_20  and  C_17 
REMARK    5  A    between atoms: C_20  and  C_18 
REMARK    6  A    between atoms: O_23  and  C_20 
ROOT
HETATM    1  C   UNK N   1      21.570  13.760   7.225  0.00  0.00     0.187 C 
ENDROOT
BRANCH   1   2
HETATM    2  C   UNK N   1      21.778  15.208   6.799  0.00  0.00    -0.025 A 
HETATM    3  C   UNK N   1      22.850  15.622   5.997  0.00  0.00     0.010 A 
HETATM    4  C   UNK N   1      22.980  16.961   5.614  0.00  0.00     0.001 A 
HETATM    5  C   UNK N   1      22.037  17.901   6.035  0.00  0.00     0.000 A 
HETATM    6  C   UNK N   1      20.965  17.501   6.834  0.00  0.00     0.001 A 
HETATM    7  C   UNK N   1      20.834  16.161   7.211  0.00  0.00     0.010 A 
ENDBRANCH   1   2
BRANCH   1   8
HETATM    8  C   UNK N   1      22.001  13.287   8.609  0.00  0.00    -0.025 A 
HETATM    9  C   UNK N   1      23.340  13.088   8.968  0.00  0.00     0.012 A 
HETATM   10  C   UNK N   1      23.676  12.632  10.249  0.00  0.00     0.024 A 
HETATM   11  C   UNK N   1      22.670  12.375  11.181  0.00  0.00     0.034 A 
HETATM   12  C   UNK N   1      21.333  12.573  10.838  0.00  0.00     0.024 A 
HETATM   13 Cl   UNK N   1      23.088  11.799  12.781  0.00  0.00    -0.084 Cl
HETATM   14  C   UNK N   1      20.998  13.025   9.557  0.00  0.00     0.012 A 
ENDBRANCH   1   8
BRANCH   1  15
HETATM   15  O   UNK N   1      20.255  13.358   6.961  0.00  0.00    -0.375 OA
BRANCH  15  16
HETATM   16  C   UNK N   1      20.337  12.765   5.696  0.00  0.00     0.199 C 
BRANCH  16  17
HETATM   17  C   UNK N   1      19.217  13.230   4.769  0.00  0.00     0.298 C 
BRANCH  17  18
HETATM   18  N   UNK N   1      19.696  13.989   3.615  0.00  0.00     0.090 N 
HETATM   19  C   UNK N   1      19.632  15.426   3.905  0.00  0.00     0.272 C 
HETATM   20  C   UNK N   1      20.136  16.222   2.704  0.00  0.00     0.030 C 
HETATM   21  C   UNK N   1      21.590  15.851   2.441  0.00  0.00     0.003 C 
HETATM   22  C   UNK N   1      21.721  14.343   2.257  0.00  0.00     0.030 C 
HETATM   23  C   UNK N   1      21.104  13.617   3.452  0.00  0.00     0.272 C 
ENDBRANCH  17  18
ENDBRANCH  16  17
ENDBRANCH  15  16
ENDBRANCH   1  15
TORSDOF 6
ENDMDL
MODEL 5
REMARK VINA RESULT:      -5.7      8.928     12.249
REMARK  6 active torsions:
REMARK  status: ('A' for Active; 'I' for Inactive)
REMARK    1  A    between atoms: C_16  and  C_15 
REMARK    2  A    between atoms: N_22  and  C_15 
REMARK    3  A    between atoms: O_23  and  C_16 
REMARK    4  A    between atoms: C_20  and  C_17 
REMARK    5  A    between atoms: C_20  and  C_18 
REMARK    6  A    between atoms: O_23  and  C_20 
ROOT
HETATM    1  C   UNK N   1      29.128  17.379   5.532  0.00  0.00     0.187 C 
ENDROOT
BRANCH   1   2
HETATM    2  C   UNK N   1      28.020  18.112   4.789  0.00  0.00    -0.025 A 
HETATM    3  C   UNK N   1      26.940  17.456   4.183  0.00  0.00     0.010 A 
HETATM    4  C   UNK N   1      25.935  18.181   3.534  0.00  0.00     0.001 A 
HETATM    5  C   UNK N   1      26.004  19.575   3.483  0.00  0.00     0.000 A 
HETATM    6  C   UNK N   1      27.074  20.241   4.082  0.00  0.00     0.001 A 
HETATM    7  C   UNK N   1      28.074  19.514   4.735  0.00  0.00     0.010 A 
ENDBRANCH   1   2
BRANCH   1   8
HETATM    8  C   UNK N   1      30.359  16.872   4.789  0.00  0.00    -0.025 A 
HETATM    9  C   UNK N   1      31.434  17.697   4.433  0.00  0.00     0.012 A 
HETATM   10  C   UNK N   1      32.531  17.181   3.732  0.00  0.00     0.024 A 
HETATM   11  C   UNK N   1      32.559  15.829   3.383  0.00  0.00     0.034 A 
HETATM   12  C   UNK N   1      31.497  14.996   3.735  0.00  0.00     0.024 A 
HETATM   13 Cl   UNK N   1      33.925  15.183   2.501  0.00  0.00    -0.084 Cl
HETATM   14  C   UNK N   1      30.400  15.514   4.432  0.00  0.00     0.012 A 
ENDBRANCH   1   8
BRANCH   1  15
HETATM   15  O   UNK N   1      29.510  18.096   6.672  0.00  0.00    -0.375 OA
BRANCH  15  16
HETATM   16  C   UNK N   1      29.760  17.100   7.622  0.00  0.00     0.199 C 
BRANCH  16  17
HETATM   17  C   UNK N   1      30.746  17.562   8.693  0.00  0.00     0.298 C 
BRANCH  17  18
HETATM   18  N   UNK N   1      32.087  17.004   8.527  0.00  0.00     0.090 N 
HETATM   19  C   UNK N   1      32.026  15.812   7.675  0.00  0.00     0.272 C 
HETATM   20  C   UNK N   1      33.425  15.229   7.494  0.00  0.00     0.030 C 
HETATM   21  C   UNK N   1      34.307  16.264   6.807  0.00  0.00     0.003 C 
HETATM   22  C   UNK N   1      34.299  17.567   7.599  0.00  0.00     0.030 C 
HETATM   23  C   UNK N   1      32.860  18.031   7.824  0.00  0.00     0.272 C 
ENDBRANCH  17  18
ENDBRANCH  16  17
ENDBRANCH  15  16
ENDBRANCH   1  15
TORSDOF 6
ENDMDL
MODEL 6
REMARK VINA RESULT:      -5.7      9.720     12.376
REMARK  6 active torsions:
REMARK  status: ('A' for Active; 'I' for Inactive)
REMARK    1  A    between atoms: C_16  and  C_15 
REMARK    2  A    between atoms: N_22  and  C_15 
REMARK    3  A    between atoms: O_23  and  C_16 
REMARK    4  A    between atoms: C_20  and  C_17 
REMARK    5  A    between atoms: C_20  and  C_18 
REMARK    6  A    between atoms: O_23  and  C_20 
ROOT
HETATM    1  C   UNK N   1      28.991  17.647   5.371  0.00  0.00     0.187 C 
ENDROOT
BRANCH   1   2
HETATM    2  C   UNK N   1      29.172  17.718   6.882  0.00  0.00    -0.025 A 
HETATM    3  C   UNK N   1      30.411  17.544   7.513  0.00  0.00     0.010 A 
HETATM    4  C   UNK N   1      30.525  17.645   8.903  0.00  0.00     0.001 A 
HETATM    5  C   UNK N   1      29.396  17.918   9.677  0.00  0.00     0.000 A 
HETATM    6  C   UNK N   1      28.156  18.093   9.061  0.00  0.00     0.001 A 
HETATM    7  C   UNK N   1      28.045  17.998   7.670  0.00  0.00     0.010 A 
ENDBRANCH   1   2
BRANCH   1   8
HETATM    8  C   UNK N   1      27.870  18.420   4.685  0.00  0.00    -0.025 A 
HETATM    9  C   UNK N   1      27.875  19.814   4.543  0.00  0.00     0.012 A 
HETATM   10  C   UNK N   1      26.808  20.473   3.922  0.00  0.00     0.024 A 
HETATM   11  C   UNK N   1      25.725  19.739   3.435  0.00  0.00     0.034 A 
HETATM   12  C   UNK N   1      25.709  18.350   3.567  0.00  0.00     0.024 A 
HETATM   13 Cl   UNK N   1      24.386  20.561   2.665  0.00  0.00    -0.084 Cl
HETATM   14  C   UNK N   1      26.775  17.693   4.191  0.00  0.00     0.012 A 
ENDBRANCH   1   8
BRANCH   1  15
HETATM   15  O   UNK N   1      30.209  17.879   4.722  0.00  0.00    -0.375 OA
BRANCH  15  16
HETATM   16  C   UNK N   1      30.402  16.724   3.956  0.00  0.00     0.199 C 
BRANCH  16  17
HETATM   17  C   UNK N   1      31.838  16.212   4.039  0.00  0.00     0.298 C 
BRANCH  17  18
HETATM   18  N   UNK N   1      32.378  16.216   5.397  0.00  0.00     0.090 N 
HETATM   19  C   UNK N   1      32.940  14.898   5.712  0.00  0.00     0.272 C 
HETATM   20  C   UNK N   1      33.510  14.899   7.127  0.00  0.00     0.030 C 
HETATM   21  C   UNK N   1      34.630  15.928   7.208  0.00  0.00     0.003 C 
HETATM   22  C   UNK N   1      34.118  17.295   6.768  0.00  0.00     0.030 C 
HETATM   23  C   UNK N   1      33.473  17.189   5.386  0.00  0.00     0.272 C 
ENDBRANCH  17  18
ENDBRANCH  16  17
ENDBRANCH  15  16
ENDBRANCH   1  15
TORSDOF 6
ENDMDL
MODEL 7
REMARK VINA RESULT:      -5.7      0.813      1.928
REMARK  6 active torsions:
REMARK  status: ('A' for Active; 'I' for Inactive)
REMARK    1  A    between atoms: C_16  and  C_15 
REMARK    2  A    between atoms: N_22  and  C_15 
REMARK    3  A    between atoms: O_23  and  C_16 
REMARK    4  A    between atoms: C_20  and  C_17 
REMARK    5  A    between atoms: C_20  and  C_18 
REMARK    6  A    between atoms: O_23  and  C_20 
ROOT
HETATM    1  C   UNK N   1      35.963  12.265  15.631  0.00  0.00     0.187 C 
ENDROOT
BRANCH   1   2
HETATM    2  C   UNK N   1      35.682  12.033  17.110  0.00  0.00    -0.025 A 
HETATM    3  C   UNK N   1      35.802  10.779  17.724  0.00  0.00     0.010 A 
HETATM    4  C   UNK N   1      35.556  10.626  19.093  0.00  0.00     0.001 A 
HETATM    5  C   UNK N   1      35.185  11.731  19.861  0.00  0.00     0.000 A 
HETATM    6  C   UNK N   1      35.063  12.986  19.262  0.00  0.00     0.001 A 
HETATM    7  C   UNK N   1      35.314  13.137  17.895  0.00  0.00     0.010 A 
ENDBRANCH   1   2
BRANCH   1   8
HETATM    8  C   UNK N   1      35.500  11.257  14.585  0.00  0.00    -0.025 A 
HETATM    9  C   UNK N   1      34.189  11.208  14.094  0.00  0.00     0.012 A 
HETATM   10  C   UNK N   1      33.814  10.247  13.148  0.00  0.00     0.024 A 
HETATM   11  C   UNK N   1      34.755   9.325  12.684  0.00  0.00     0.034 A 
HETATM   12  C   UNK N   1      36.065   9.365  13.161  0.00  0.00     0.024 A 
HETATM   13 Cl   UNK N   1      34.288   8.118  11.506  0.00  0.00    -0.084 Cl
HETATM   14  C   UNK N   1      36.436  10.324  14.109  0.00  0.00     0.012 A 
ENDBRANCH   1   8
BRANCH   1  15
HETATM   15  O   UNK N   1      35.584  13.560  15.259  0.00  0.00    -0.375 OA
BRANCH  15  16
HETATM   16  C   UNK N   1      36.627  13.986  14.430  0.00  0.00     0.199 C 
BRANCH  16  17
HETATM   17  C   UNK N   1      36.119  14.782  13.230  0.00  0.00     0.298 C 
BRANCH  17  18
HETATM   18  N   UNK N   1      35.489  13.951  12.206  0.00  0.00     0.090 N 
HETATM   19  C   UNK N   1      34.973  14.800  11.126  0.00  0.00     0.272 C 
HETATM   20  C   UNK N   1      34.318  13.935  10.052  0.00  0.00     0.030 C 
HETATM   21  C   UNK N   1      35.366  12.998   9.466  0.00  0.00     0.003 C 
HETATM   22  C   UNK N   1      36.018  12.181  10.576  0.00  0.00     0.030 C 
HETATM   23  C   UNK N   1      36.559  13.113  11.659  0.00  0.00     0.272 C 
ENDBRANCH  17  18
ENDBRANCH  16  17
ENDBRANCH  15  16
ENDBRANCH   1  15
TORSDOF 6
ENDMDL
MODEL 8
REMARK VINA RESULT:      -5.6     14.409     16.418
REMARK  6 active torsions:
REMARK  status: ('A' for Active; 'I' for Inactive)
REMARK    1  A    between atoms: C_16  and  C_15 
REMARK    2  A    between atoms: N_22  and  C_15 
REMARK    3  A    between atoms: O_23  and  C_16 
REMARK    4  A    between atoms: C_20  and  C_17 
REMARK    5  A    between atoms: C_20  and  C_18 
REMARK    6  A    between atoms: O_23  and  C_20 
ROOT
HETATM    1  C   UNK N   1      21.826  13.348   7.460  0.00  0.00     0.187 C 
ENDROOT
BRANCH   1   2
HETATM    2  C   UNK N   1      21.960  14.790   6.987  0.00  0.00    -0.025 A 
HETATM    3  C   UNK N   1      23.002  15.230   6.160  0.00  0.00     0.010 A 
HETATM    4  C   UNK N   1      23.063  16.561   5.734  0.00  0.00     0.001 A 
HETATM    5  C   UNK N   1      22.081  17.467   6.137  0.00  0.00     0.000 A 
HETATM    6  C   UNK N   1      21.038  17.042   6.961  0.00  0.00     0.001 A 
HETATM    7  C   UNK N   1      20.975  15.709   7.381  0.00  0.00     0.010 A 
ENDBRANCH   1   2
BRANCH   1   8
HETATM    8  C   UNK N   1      22.221  12.956   8.880  0.00  0.00    -0.025 A 
HETATM    9  C   UNK N   1      23.547  12.733   9.273  0.00  0.00     0.012 A 
HETATM   10  C   UNK N   1      23.850  12.355  10.587  0.00  0.00     0.024 A 
HETATM   11  C   UNK N   1      22.823  12.199  11.519  0.00  0.00     0.034 A 
HETATM   12  C   UNK N   1      21.498  12.422  11.142  0.00  0.00     0.024 A 
HETATM   13 Cl   UNK N   1      23.197  11.719  13.160  0.00  0.00    -0.084 Cl
HETATM   14  C   UNK N   1      21.198  12.796   9.828  0.00  0.00     0.012 A 
ENDBRANCH   1   8
BRANCH   1  15
HETATM   15  O   UNK N   1      20.555  12.850   7.154  0.00  0.00    -0.375 OA
BRANCH  15  16
HETATM   16  C   UNK N   1      20.789  11.973   6.089  0.00  0.00     0.199 C 
BRANCH  16  17
HETATM   17  C   UNK N   1      20.057  12.402   4.819  0.00  0.00     0.298 C 
BRANCH  17  18
HETATM   18  N   UNK N   1      20.516  13.685   4.289  0.00  0.00     0.090 N 
HETATM   19  C   UNK N   1      21.031  13.503   2.928  0.00  0.00     0.272 C 
HETATM   20  C   UNK N   1      21.506  14.841   2.368  0.00  0.00     0.030 C 
HETATM   21  C   UNK N   1      20.325  15.800   2.309  0.00  0.00     0.003 C 
HETATM   22  C   UNK N   1      19.680  15.922   3.685  0.00  0.00     0.030 C 
HETATM   23  C   UNK N   1      19.325  14.535   4.219  0.00  0.00     0.272 C 
ENDBRANCH  17  18
ENDBRANCH  16  17
ENDBRANCH  15  16
ENDBRANCH   1  15
TORSDOF 6
ENDMDL
MODEL 9
REMARK VINA RESULT:      -5.6      2.145      2.956
REMARK  6 active torsions:
REMARK  status: ('A' for Active; 'I' for Inactive)
REMARK    1  A    between atoms: C_16  and  C_15 
REMARK    2  A    between atoms: N_22  and  C_15 
REMARK    3  A    between atoms: O_23  and  C_16 
REMARK    4  A    between atoms: C_20  and  C_17 
REMARK    5  A    between atoms: C_20  and  C_18 
REMARK    6  A    between atoms: O_23  and  C_20 
ROOT
HETATM    1  C   UNK N   1      36.098  12.702  14.612  0.00  0.00     0.187 C 
ENDROOT
BRANCH   1   2
HETATM    2  C   UNK N   1      36.277  13.740  15.712  0.00  0.00    -0.025 A 
HETATM    3  C   UNK N   1      37.153  14.828  15.602  0.00  0.00     0.010 A 
HETATM    4  C   UNK N   1      37.260  15.767  16.634  0.00  0.00     0.001 A 
HETATM    5  C   UNK N   1      36.491  15.622  17.790  0.00  0.00     0.000 A 
HETATM    6  C   UNK N   1      35.615  14.542  17.912  0.00  0.00     0.001 A 
HETATM    7  C   UNK N   1      35.505  13.609  16.877  0.00  0.00     0.010 A 
ENDBRANCH   1   2
BRANCH   1   8
HETATM    8  C   UNK N   1      36.293  11.218  14.904  0.00  0.00    -0.025 A 
HETATM    9  C   UNK N   1      37.536  10.578  14.827  0.00  0.00     0.012 A 
HETATM   10  C   UNK N   1      37.653   9.207  15.086  0.00  0.00     0.024 A 
HETATM   11  C   UNK N   1      36.520   8.466  15.428  0.00  0.00     0.034 A 
HETATM   12  C   UNK N   1      35.276   9.092  15.513  0.00  0.00     0.024 A 
HETATM   13 Cl   UNK N   1      36.661   6.751  15.747  0.00  0.00    -0.084 Cl
HETATM   14  C   UNK N   1      35.162  10.461  15.250  0.00  0.00     0.012 A 
ENDBRANCH   1   8
BRANCH   1  15
HETATM   15  O   UNK N   1      34.891  12.910  13.935  0.00  0.00    -0.375 OA
BRANCH  15  16
HETATM   16  C   UNK N   1      35.242  12.799  12.586  0.00  0.00     0.199 C 
BRANCH  16  17
HETATM   17  C   UNK N   1      36.508  13.586  12.254  0.00  0.00     0.298 C 
BRANCH  17  18
HETATM   18  N   UNK N   1      36.337  14.516  11.139  0.00  0.00     0.090 N 
HETATM   19  C   UNK N   1      35.481  13.910  10.114  0.00  0.00     0.272 C 
HETATM   20  C   UNK N   1      35.297  14.880   8.950  0.00  0.00     0.030 C 
HETATM   21  C   UNK N   1      34.611  16.140   9.461  0.00  0.00     0.003 C 
HETATM   22  C   UNK N   1      35.407  16.737  10.617  0.00  0.00     0.030 C 
HETATM   23  C   UNK N   1      35.636  15.677  11.694  0.00  0.00     0.272 C 
ENDBRANCH  17  18
ENDBRANCH  16  17
ENDBRANCH  15  16
ENDBRANCH   1  15
TORSDOF 6
ENDMDL
