MODEL 1
REMARK VINA RESULT:      -6.1      0.000      0.000
REMARK  6 active torsions:
REMARK  status: ('A' for Active; 'I' for Inactive)
REMARK    1  A    between atoms: C_7  and  O_3 
REMARK    2  A    between atoms: O_4  and  C_15 
REMARK    3  A    between atoms: C_7  and  C_8 
REMARK    4  A    between atoms: C_7  and  C_9 
REMARK    5  A    between atoms: C_7  and  C_10 
REMARK    6  A    between atoms: C_10  and  C_11 
ROOT
HETATM    1  C   UNK N   1      35.499  12.450  12.965  0.00  0.00     0.093 C 
ENDROOT
BRANCH   1   2
HETATM    2  O   UNK N   1      34.270  12.698  13.588  0.00  0.00    -0.386 OA
HETATM    3  H   UNK N   1      33.537  12.938  14.177  0.00  0.00     0.210 HD
ENDBRANCH   1   2
BRANCH   1   4
HETATM    4  C   UNK N   1      35.509  10.966  12.473  0.00  0.00     0.173 C 
HETATM    5  O   UNK N   1      36.173  10.146  13.442  0.00  0.00    -0.380 OA
HETATM    6  C   UNK N   1      35.552   8.891  13.662  0.00  0.00     0.187 C 
HETATM    7  C   UNK N   1      35.106   8.242  12.350  0.00  0.00     0.140 C 
HETATM    8  N   UNK N   1      34.132   9.074  11.631  0.00  0.00    -0.417 N 
HETATM    9  C   UNK N   1      34.087  10.446  12.145  0.00  0.00     0.149 C 
HETATM   10  H   UNK N   1      33.553   8.736  10.861  0.00  0.00     0.153 HD
ENDBRANCH   1   4
BRANCH   1  11
HETATM   11  C   UNK N   1      35.733  13.478  11.797  0.00  0.00     0.027 C 
HETATM   12  C   UNK N   1      37.183  13.511  11.301  0.00  0.00     0.034 C 
HETATM   13  C   UNK N   1      37.302  14.480  10.126  0.00  0.00     0.168 C 
HETATM   14  O   UNK N   1      36.976  15.778  10.556  0.00  0.00    -0.391 OA
HETATM   15  C   UNK N   1      35.596  15.773  10.824  0.00  0.00     0.168 C 
HETATM   16  C   UNK N   1      35.323  14.931  12.072  0.00  0.00     0.034 C 
ENDBRANCH   1  11
BRANCH   1  17
HETATM   17  C   UNK N   1      36.651  12.553  14.012  0.00  0.00     0.082 C 
BRANCH  17  18
HETATM   18  C   UNK N   1      36.445  13.375  15.265  0.00  0.00    -0.019 A 
HETATM   19  C   UNK N   1      35.645  12.927  16.363  0.00  0.00     0.074 A 
HETATM   20  C   UNK N   1      35.509  13.761  17.482  0.00  0.00     0.040 A 
HETATM   21  C   UNK N   1      36.147  14.999  17.545  0.00  0.00     0.045 A 
HETATM   22  C   UNK N   1      36.948  15.419  16.488  0.00  0.00     0.117 A 
HETATM   23  F   UNK N   1      37.572  16.619  16.539  0.00  0.00    -0.206 F 
HETATM   24  C   UNK N   1      37.098  14.607  15.370  0.00  0.00     0.052 A 
BRANCH  19  25
HETATM   25  O   UNK N   1      34.999  11.732  16.409  0.00  0.00    -0.355 OA
HETATM   26  C   UNK N   1      35.382  10.623  17.123  0.00  0.00     0.210 C 
ENDBRANCH  19  25
ENDBRANCH  17  18
ENDBRANCH   1  17
TORSDOF 6
ENDMDL
MODEL 2
REMARK VINA RESULT:      -6.1     20.700     24.471
REMARK  6 active torsions:
REMARK  status: ('A' for Active; 'I' for Inactive)
REMARK    1  A    between atoms: C_7  and  O_3 
REMARK    2  A    between atoms: O_4  and  C_15 
REMARK    3  A    between atoms: C_7  and  C_8 
REMARK    4  A    between atoms: C_7  and  C_9 
REMARK    5  A    between atoms: C_7  and  C_10 
REMARK    6  A    between atoms: C_10  and  C_11 
ROOT
HETATM    1  C   UNK N   1      27.258  25.010  -4.403  0.00  0.00     0.093 C 
ENDROOT
BRANCH   1   2
HETATM    2  O   UNK N   1      26.069  24.502  -3.867  0.00  0.00    -0.386 OA
HETATM    3  H   UNK N   1      25.336  23.964  -3.527  0.00  0.00     0.210 HD
ENDBRANCH   1   2
BRANCH   1   4
HETATM    4  C   UNK N   1      27.349  26.529  -4.041  0.00  0.00     0.173 C 
HETATM    5  O   UNK N   1      27.546  27.294  -5.235  0.00  0.00    -0.380 OA
HETATM    6  C   UNK N   1      26.803  28.500  -5.279  0.00  0.00     0.187 C 
HETATM    7  C   UNK N   1      26.835  29.235  -3.937  0.00  0.00     0.140 C 
HETATM    8  N   UNK N   1      26.259  28.425  -2.856  0.00  0.00    -0.417 N 
HETATM    9  C   UNK N   1      26.120  27.015  -3.233  0.00  0.00     0.149 C 
HETATM   10  H   UNK N   1      25.987  28.799  -1.947  0.00  0.00     0.153 HD
ENDBRANCH   1   4
BRANCH   1  11
HETATM   11  C   UNK N   1      28.489  24.186  -3.875  0.00  0.00     0.027 C 
HETATM   12  C   UNK N   1      28.251  23.556  -2.498  0.00  0.00     0.034 C 
HETATM   13  C   UNK N   1      29.465  22.720  -2.097  0.00  0.00     0.168 C 
HETATM   14  O   UNK N   1      30.591  23.555  -1.988  0.00  0.00    -0.391 OA
HETATM   15  C   UNK N   1      30.908  23.969  -3.294  0.00  0.00     0.168 C 
HETATM   16  C   UNK N   1      29.829  24.930  -3.799  0.00  0.00     0.034 C 
ENDBRANCH   1  11
BRANCH   1  17
HETATM   17  C   UNK N   1      27.200  24.954  -5.961  0.00  0.00     0.082 C 
BRANCH  17  18
HETATM   18  C   UNK N   1      26.991  23.623  -6.650  0.00  0.00    -0.019 A 
HETATM   19  C   UNK N   1      28.070  22.845  -7.176  0.00  0.00     0.074 A 
HETATM   20  C   UNK N   1      27.778  21.625  -7.803  0.00  0.00     0.040 A 
HETATM   21  C   UNK N   1      26.469  21.158  -7.906  0.00  0.00     0.045 A 
HETATM   22  C   UNK N   1      25.425  21.903  -7.365  0.00  0.00     0.117 A 
HETATM   23  F   UNK N   1      24.149  21.458  -7.460  0.00  0.00    -0.206 F 
HETATM   24  C   UNK N   1      25.692  23.114  -6.739  0.00  0.00     0.052 A 
BRANCH  19  25
HETATM   25  O   UNK N   1      29.380  23.201  -7.111  0.00  0.00    -0.355 OA
HETATM   26  C   UNK N   1      30.420  22.413  -6.683  0.00  0.00     0.210 C 
ENDBRANCH  19  25
ENDBRANCH  17  18
ENDBRANCH   1  17
TORSDOF 6
ENDMDL
MODEL 3
REMARK VINA RESULT:      -6.0      8.618     11.424
REMARK  6 active torsions:
REMARK  status: ('A' for Active; 'I' for Inactive)
REMARK    1  A    between atoms: C_7  and  O_3 
REMARK    2  A    between atoms: O_4  and  C_15 
REMARK    3  A    between atoms: C_7  and  C_8 
REMARK    4  A    between atoms: C_7  and  C_9 
REMARK    5  A    between atoms: C_7  and  C_10 
REMARK    6  A    between atoms: C_10  and  C_11 
ROOT
HETATM    1  C   UNK N   1      31.309  16.906   5.105  0.00  0.00     0.093 C 
ENDROOT
BRANCH   1   2
HETATM    2  O   UNK N   1      31.504  17.961   4.205  0.00  0.00    -0.386 OA
HETATM    3  H   UNK N   1      31.533  18.568   3.449  0.00  0.00     0.210 HD
ENDBRANCH   1   2
BRANCH   1   4
HETATM    4  C   UNK N   1      31.765  15.580   4.413  0.00  0.00     0.173 C 
HETATM    5  O   UNK N   1      30.628  14.736   4.202  0.00  0.00    -0.380 OA
HETATM    6  C   UNK N   1      30.624  14.070   2.951  0.00  0.00     0.187 C 
HETATM    7  C   UNK N   1      32.008  13.519   2.599  0.00  0.00     0.140 C 
HETATM    8  N   UNK N   1      33.014  14.585   2.506  0.00  0.00    -0.417 N 
HETATM    9  C   UNK N   1      32.548  15.841   3.102  0.00  0.00     0.149 C 
HETATM   10  H   UNK N   1      33.932  14.466   2.077  0.00  0.00     0.153 HD
ENDBRANCH   1   4
BRANCH   1  11
HETATM   11  C   UNK N   1      32.082  17.187   6.446  0.00  0.00     0.027 C 
HETATM   12  C   UNK N   1      33.553  17.562   6.231  0.00  0.00     0.034 C 
HETATM   13  C   UNK N   1      34.204  17.885   7.574  0.00  0.00     0.168 C 
HETATM   14  O   UNK N   1      34.178  16.742   8.392  0.00  0.00    -0.391 OA
HETATM   15  C   UNK N   1      32.832  16.528   8.735  0.00  0.00     0.168 C 
HETATM   16  C   UNK N   1      32.058  16.069   7.497  0.00  0.00     0.034 C 
ENDBRANCH   1  11
BRANCH   1  17
HETATM   17  C   UNK N   1      29.786  16.729   5.389  0.00  0.00     0.082 C 
BRANCH  17  18
HETATM   18  C   UNK N   1      28.935  17.949   5.669  0.00  0.00    -0.019 A 
HETATM   19  C   UNK N   1      28.656  18.411   6.994  0.00  0.00     0.074 A 
HETATM   20  C   UNK N   1      27.852  19.548   7.156  0.00  0.00     0.040 A 
HETATM   21  C   UNK N   1      27.339  20.235   6.057  0.00  0.00     0.045 A 
HETATM   22  C   UNK N   1      27.638  19.801   4.770  0.00  0.00     0.117 A 
HETATM   23  F   UNK N   1      27.145  20.461   3.695  0.00  0.00    -0.206 F 
HETATM   24  C   UNK N   1      28.433  18.676   4.587  0.00  0.00     0.052 A 
BRANCH  19  25
HETATM   25  O   UNK N   1      29.122  17.825   8.129  0.00  0.00    -0.355 OA
HETATM   26  C   UNK N   1      29.514  18.467   9.278  0.00  0.00     0.210 C 
ENDBRANCH  19  25
ENDBRANCH  17  18
ENDBRANCH   1  17
TORSDOF 6
ENDMDL
MODEL 4
REMARK VINA RESULT:      -6.0      2.183      4.539
REMARK  6 active torsions:
REMARK  status: ('A' for Active; 'I' for Inactive)
REMARK    1  A    between atoms: C_7  and  O_3 
REMARK    2  A    between atoms: O_4  and  C_15 
REMARK    3  A    between atoms: C_7  and  C_8 
REMARK    4  A    between atoms: C_7  and  C_9 
REMARK    5  A    between atoms: C_7  and  C_10 
REMARK    6  A    between atoms: C_10  and  C_11 
ROOT
HETATM    1  C   UNK N   1      36.481  12.131  14.022  0.00  0.00     0.093 C 
ENDROOT
BRANCH   1   2
HETATM    2  O   UNK N   1      37.370  12.963  14.713  0.00  0.00    -0.386 OA
HETATM    3  H   UNK N   1      37.841  13.687  15.157  0.00  0.00     0.210 HD
ENDBRANCH   1   2
BRANCH   1   4
HETATM    4  C   UNK N   1      36.021  12.875  12.726  0.00  0.00     0.173 C 
HETATM    5  O   UNK N   1      35.374  14.102  13.083  0.00  0.00    -0.380 OA
HETATM    6  C   UNK N   1      35.705  15.196  12.245  0.00  0.00     0.187 C 
HETATM    7  C   UNK N   1      35.725  14.793  10.768  0.00  0.00     0.140 C 
HETATM    8  N   UNK N   1      36.716  13.743  10.501  0.00  0.00    -0.417 N 
HETATM    9  C   UNK N   1      37.187  13.098  11.731  0.00  0.00     0.149 C 
HETATM   10  H   UNK N   1      37.040  13.490   9.567  0.00  0.00     0.153 HD
ENDBRANCH   1   4
BRANCH   1  11
HETATM   11  C   UNK N   1      37.159  10.745  13.718  0.00  0.00     0.027 C 
HETATM   12  C   UNK N   1      36.165   9.579  13.680  0.00  0.00     0.034 C 
HETATM   13  C   UNK N   1      36.897   8.290  13.310  0.00  0.00     0.168 C 
HETATM   14  O   UNK N   1      37.851   7.996  14.299  0.00  0.00    -0.391 OA
HETATM   15  C   UNK N   1      38.855   8.973  14.188  0.00  0.00     0.168 C 
HETATM   16  C   UNK N   1      38.303  10.324  14.650  0.00  0.00     0.034 C 
ENDBRANCH   1  11
BRANCH   1  17
HETATM   17  C   UNK N   1      35.188  11.924  14.868  0.00  0.00     0.082 C 
BRANCH  17  18
HETATM   18  C   UNK N   1      35.222  12.190  16.357  0.00  0.00    -0.019 A 
HETATM   19  C   UNK N   1      35.376  11.150  17.327  0.00  0.00     0.074 A 
HETATM   20  C   UNK N   1      35.391  11.492  18.687  0.00  0.00     0.040 A 
HETATM   21  C   UNK N   1      35.275  12.819  19.101  0.00  0.00     0.045 A 
HETATM   22  C   UNK N   1      35.156  13.831  18.154  0.00  0.00     0.117 A 
HETATM   23  F   UNK N   1      35.044  15.122  18.546  0.00  0.00    -0.206 F 
HETATM   24  C   UNK N   1      35.140  13.513  16.801  0.00  0.00     0.052 A 
BRANCH  19  25
HETATM   25  O   UNK N   1      35.515   9.831  17.028  0.00  0.00    -0.355 OA
HETATM   26  C   UNK N   1      36.492   8.986  17.494  0.00  0.00     0.210 C 
ENDBRANCH  19  25
ENDBRANCH  17  18
ENDBRANCH   1  17
TORSDOF 6
ENDMDL
MODEL 5
REMARK VINA RESULT:      -5.9     20.768     24.397
REMARK  6 active torsions:
REMARK  status: ('A' for Active; 'I' for Inactive)
REMARK    1  A    between atoms: C_7  and  O_3 
REMARK    2  A    between atoms: O_4  and  C_15 
REMARK    3  A    between atoms: C_7  and  C_8 
REMARK    4  A    between atoms: C_7  and  C_9 
REMARK    5  A    between atoms: C_7  and  C_10 
REMARK    6  A    between atoms: C_10  and  C_11 
ROOT
HETATM    1  C   UNK N   1      28.596  23.716  -5.514  0.00  0.00     0.093 C 
ENDROOT
BRANCH   1   2
HETATM    2  O   UNK N   1      29.111  24.997  -5.747  0.00  0.00    -0.386 OA
HETATM    3  H   UNK N   1      29.557  25.794  -6.076  0.00  0.00     0.210 HD
ENDBRANCH   1   2
BRANCH   1   4
HETATM    4  C   UNK N   1      28.766  22.874  -6.820  0.00  0.00     0.173 C 
HETATM    5  O   UNK N   1      27.552  22.167  -7.094  0.00  0.00    -0.380 OA
HETATM    6  C   UNK N   1      27.192  22.144  -8.465  0.00  0.00     0.187 C 
HETATM    7  C   UNK N   1      28.401  21.878  -9.364  0.00  0.00     0.140 C 
HETATM    8  N   UNK N   1      29.431  22.914  -9.216  0.00  0.00    -0.417 N 
HETATM    9  C   UNK N   1      29.222  23.738  -8.022  0.00  0.00     0.149 C 
HETATM   10  H   UNK N   1      30.204  23.046  -9.869  0.00  0.00     0.153 HD
ENDBRANCH   1   4
BRANCH   1  11
HETATM   11  C   UNK N   1      29.307  23.063  -4.272  0.00  0.00     0.027 C 
HETATM   12  C   UNK N   1      28.773  23.574  -2.929  0.00  0.00     0.034 C 
HETATM   13  C   UNK N   1      29.468  22.837  -1.785  0.00  0.00     0.168 C 
HETATM   14  O   UNK N   1      30.846  23.113  -1.822  0.00  0.00    -0.391 OA
HETATM   15  C   UNK N   1      31.351  22.470  -2.966  0.00  0.00     0.168 C 
HETATM   16  C   UNK N   1      30.836  23.183  -4.218  0.00  0.00     0.034 C 
ENDBRANCH   1  11
BRANCH   1  17
HETATM   17  C   UNK N   1      27.058  23.804  -5.269  0.00  0.00     0.082 C 
BRANCH  17  18
HETATM   18  C   UNK N   1      26.385  25.159  -5.241  0.00  0.00    -0.019 A 
HETATM   19  C   UNK N   1      25.754  25.735  -6.389  0.00  0.00     0.074 A 
HETATM   20  C   UNK N   1      25.160  26.999  -6.269  0.00  0.00     0.040 A 
HETATM   21  C   UNK N   1      25.162  27.688  -5.057  0.00  0.00     0.045 A 
HETATM   22  C   UNK N   1      25.750  27.112  -3.935  0.00  0.00     0.117 A 
HETATM   23  F   UNK N   1      25.757  27.773  -2.753  0.00  0.00    -0.206 F 
HETATM   24  C   UNK N   1      26.343  25.859  -4.032  0.00  0.00     0.052 A 
BRANCH  19  25
HETATM   25  O   UNK N   1      25.681  25.139  -7.609  0.00  0.00    -0.355 OA
HETATM   26  C   UNK N   1      26.034  25.696  -8.813  0.00  0.00     0.210 C 
ENDBRANCH  19  25
ENDBRANCH  17  18
ENDBRANCH   1  17
TORSDOF 6
ENDMDL
MODEL 6
REMARK VINA RESULT:      -5.9      6.806      9.663
REMARK  6 active torsions:
REMARK  status: ('A' for Active; 'I' for Inactive)
REMARK    1  A    between atoms: C_7  and  O_3 
REMARK    2  A    between atoms: O_4  and  C_15 
REMARK    3  A    between atoms: C_7  and  C_8 
REMARK    4  A    between atoms: C_7  and  C_9 
REMARK    5  A    between atoms: C_7  and  C_10 
REMARK    6  A    between atoms: C_10  and  C_11 
ROOT
HETATM    1  C   UNK N   1      32.353  15.533   6.705  0.00  0.00     0.093 C 
ENDROOT
BRANCH   1   2
HETATM    2  O   UNK N   1      31.235  14.718   6.918  0.00  0.00    -0.386 OA
HETATM    3  H   UNK N   1      30.602  14.003   7.094  0.00  0.00     0.210 HD
ENDBRANCH   1   2
BRANCH   1   4
HETATM    4  C   UNK N   1      33.325  15.357   7.917  0.00  0.00     0.173 C 
HETATM    5  O   UNK N   1      34.179  16.502   8.015  0.00  0.00    -0.380 OA
HETATM    6  C   UNK N   1      34.404  16.946   9.342  0.00  0.00     0.187 C 
HETATM    7  C   UNK N   1      34.652  15.776  10.297  0.00  0.00     0.140 C 
HETATM    8  N   UNK N   1      33.506  14.859  10.347  0.00  0.00    -0.417 N 
HETATM    9  C   UNK N   1      32.570  15.079   9.241  0.00  0.00     0.149 C 
HETATM   10  H   UNK N   1      33.376  14.150  11.069  0.00  0.00     0.153 HD
ENDBRANCH   1   4
BRANCH   1  11
HETATM   11  C   UNK N   1      33.028  15.180   5.329  0.00  0.00     0.027 C 
HETATM   12  C   UNK N   1      32.735  16.207   4.229  0.00  0.00     0.034 C 
HETATM   13  C   UNK N   1      33.485  15.824   2.955  0.00  0.00     0.168 C 
HETATM   14  O   UNK N   1      33.022  14.577   2.499  0.00  0.00    -0.391 OA
HETATM   15  C   UNK N   1      33.469  13.622   3.428  0.00  0.00     0.168 C 
HETATM   16  C   UNK N   1      32.708  13.798   4.744  0.00  0.00     0.034 C 
ENDBRANCH   1  11
BRANCH   1  17
HETATM   17  C   UNK N   1      31.924  17.032   6.726  0.00  0.00     0.082 C 
BRANCH  17  18
HETATM   18  C   UNK N   1      30.654  17.433   7.445  0.00  0.00    -0.019 A 
HETATM   19  C   UNK N   1      29.350  17.149   6.931  0.00  0.00     0.074 A 
HETATM   20  C   UNK N   1      28.230  17.564   7.665  0.00  0.00     0.040 A 
HETATM   21  C   UNK N   1      28.369  18.229   8.883  0.00  0.00     0.045 A 
HETATM   22  C   UNK N   1      29.638  18.476   9.395  0.00  0.00     0.117 A 
HETATM   23  F   UNK N   1      29.784  19.121  10.577  0.00  0.00    -0.206 F 
HETATM   24  C   UNK N   1      30.762  18.072   8.683  0.00  0.00     0.052 A 
BRANCH  19  25
HETATM   25  O   UNK N   1      29.106  16.492   5.766  0.00  0.00    -0.355 OA
HETATM   26  C   UNK N   1      28.921  17.061   4.530  0.00  0.00     0.210 C 
ENDBRANCH  19  25
ENDBRANCH  17  18
ENDBRANCH   1  17
TORSDOF 6
ENDMDL
MODEL 7
REMARK VINA RESULT:      -5.9     21.580     24.349
REMARK  6 active torsions:
REMARK  status: ('A' for Active; 'I' for Inactive)
REMARK    1  A    between atoms: C_7  and  O_3 
REMARK    2  A    between atoms: O_4  and  C_15 
REMARK    3  A    between atoms: C_7  and  C_8 
REMARK    4  A    between atoms: C_7  and  C_9 
REMARK    5  A    between atoms: C_7  and  C_10 
REMARK    6  A    between atoms: C_10  and  C_11 
ROOT
HETATM    1  C   UNK N   1      27.590  24.914  -5.895  0.00  0.00     0.093 C 
ENDROOT
BRANCH   1   2
HETATM    2  O   UNK N   1      28.768  25.449  -6.431  0.00  0.00    -0.386 OA
HETATM    3  H   UNK N   1      29.601  25.633  -6.894  0.00  0.00     0.210 HD
ENDBRANCH   1   2
BRANCH   1   4
HETATM    4  C   UNK N   1      26.723  26.093  -5.344  0.00  0.00     0.173 C 
HETATM    5  O   UNK N   1      26.272  25.777  -4.022  0.00  0.00    -0.380 OA
HETATM    6  C   UNK N   1      26.314  26.870  -3.120  0.00  0.00     0.187 C 
HETATM    7  C   UNK N   1      25.806  28.160  -3.768  0.00  0.00     0.140 C 
HETATM    8  N   UNK N   1      26.615  28.543  -4.932  0.00  0.00    -0.417 N 
HETATM    9  C   UNK N   1      27.471  27.448  -5.397  0.00  0.00     0.149 C 
HETATM   10  H   UNK N   1      26.585  29.466  -5.367  0.00  0.00     0.153 HD
ENDBRANCH   1   4
BRANCH   1  11
HETATM   11  C   UNK N   1      26.837  24.062  -6.982  0.00  0.00     0.027 C 
HETATM   12  C   UNK N   1      25.969  24.908  -7.920  0.00  0.00     0.034 C 
HETATM   13  C   UNK N   1      25.333  24.011  -8.981  0.00  0.00     0.168 C 
HETATM   14  O   UNK N   1      24.489  23.076  -8.357  0.00  0.00    -0.391 OA
HETATM   15  C   UNK N   1      25.324  22.192  -7.653  0.00  0.00     0.168 C 
HETATM   16  C   UNK N   1      25.950  22.922  -6.463  0.00  0.00     0.034 C 
ENDBRANCH   1  11
BRANCH   1  17
HETATM   17  C   UNK N   1      27.930  24.029  -4.657  0.00  0.00     0.082 C 
BRANCH  17  18
HETATM   18  C   UNK N   1      29.278  23.347  -4.577  0.00  0.00    -0.019 A 
HETATM   19  C   UNK N   1      30.376  23.885  -3.834  0.00  0.00     0.074 A 
HETATM   20  C   UNK N   1      31.590  23.185  -3.822  0.00  0.00     0.040 A 
HETATM   21  C   UNK N   1      31.737  21.977  -4.504  0.00  0.00     0.045 A 
HETATM   22  C   UNK N   1      30.658  21.441  -5.200  0.00  0.00     0.117 A 
HETATM   23  F   UNK N   1      30.789  20.269  -5.865  0.00  0.00    -0.206 F 
HETATM   24  C   UNK N   1      29.445  22.119  -5.224  0.00  0.00     0.052 A 
BRANCH  19  25
HETATM   25  O   UNK N   1      30.331  25.043  -3.122  0.00  0.00    -0.355 OA
HETATM   26  C   UNK N   1      30.762  26.277  -3.541  0.00  0.00     0.210 C 
ENDBRANCH  19  25
ENDBRANCH  17  18
ENDBRANCH   1  17
TORSDOF 6
ENDMDL
MODEL 8
REMARK VINA RESULT:      -5.9     22.452     25.698
REMARK  6 active torsions:
REMARK  status: ('A' for Active; 'I' for Inactive)
REMARK    1  A    between atoms: C_7  and  O_3 
REMARK    2  A    between atoms: O_4  and  C_15 
REMARK    3  A    between atoms: C_7  and  C_8 
REMARK    4  A    between atoms: C_7  and  C_9 
REMARK    5  A    between atoms: C_7  and  C_10 
REMARK    6  A    between atoms: C_10  and  C_11 
ROOT
HETATM    1  C   UNK N   1      25.962  24.543  -6.095  0.00  0.00     0.093 C 
ENDROOT
BRANCH   1   2
HETATM    2  O   UNK N   1      24.979  24.138  -5.184  0.00  0.00    -0.386 OA
HETATM    3  H   UNK N   1      24.425  23.944  -4.411  0.00  0.00     0.210 HD
ENDBRANCH   1   2
BRANCH   1   4
HETATM    4  C   UNK N   1      27.290  24.789  -5.306  0.00  0.00     0.173 C 
HETATM    5  O   UNK N   1      27.052  24.619  -3.905  0.00  0.00    -0.380 OA
HETATM    6  C   UNK N   1      28.088  23.937  -3.219  0.00  0.00     0.187 C 
HETATM    7  C   UNK N   1      29.472  24.416  -3.664  0.00  0.00     0.140 C 
HETATM    8  N   UNK N   1      29.695  24.189  -5.098  0.00  0.00    -0.417 N 
HETATM    9  C   UNK N   1      28.449  23.895  -5.813  0.00  0.00     0.149 C 
HETATM   10  H   UNK N   1      30.611  24.231  -5.545  0.00  0.00     0.153 HD
ENDBRANCH   1   4
BRANCH   1  11
HETATM   11  C   UNK N   1      26.123  23.470  -7.234  0.00  0.00     0.027 C 
HETATM   12  C   UNK N   1      25.800  24.015  -8.630  0.00  0.00     0.034 C 
HETATM   13  C   UNK N   1      26.049  22.930  -9.676  0.00  0.00     0.168 C 
HETATM   14  O   UNK N   1      25.188  21.846  -9.438  0.00  0.00    -0.391 OA
HETATM   15  C   UNK N   1      25.624  21.243  -8.246  0.00  0.00     0.168 C 
HETATM   16  C   UNK N   1      25.324  22.171  -7.067  0.00  0.00     0.034 C 
ENDBRANCH   1  11
BRANCH   1  17
HETATM   17  C   UNK N   1      25.576  25.925  -6.707  0.00  0.00     0.082 C 
BRANCH  17  18
HETATM   18  C   UNK N   1      26.257  27.179  -6.203  0.00  0.00    -0.019 A 
HETATM   19  C   UNK N   1      27.317  27.824  -6.913  0.00  0.00     0.074 A 
HETATM   20  C   UNK N   1      27.891  28.980  -6.365  0.00  0.00     0.040 A 
HETATM   21  C   UNK N   1      27.438  29.511  -5.158  0.00  0.00     0.045 A 
HETATM   22  C   UNK N   1      26.386  28.898  -4.485  0.00  0.00     0.117 A 
HETATM   23  F   UNK N   1      25.937  29.406  -3.312  0.00  0.00    -0.206 F 
HETATM   24  C   UNK N   1      25.802  27.752  -5.012  0.00  0.00     0.052 A 
BRANCH  19  25
HETATM   25  O   UNK N   1      27.819  27.399  -8.104  0.00  0.00    -0.355 OA
HETATM   26  C   UNK N   1      28.933  26.617  -8.288  0.00  0.00     0.210 C 
ENDBRANCH  19  25
ENDBRANCH  17  18
ENDBRANCH   1  17
TORSDOF 6
ENDMDL
MODEL 9
REMARK VINA RESULT:      -5.8     14.365     16.470
REMARK  6 active torsions:
REMARK  status: ('A' for Active; 'I' for Inactive)
REMARK    1  A    between atoms: C_7  and  O_3 
REMARK    2  A    between atoms: O_4  and  C_15 
REMARK    3  A    between atoms: C_7  and  C_8 
REMARK    4  A    between atoms: C_7  and  C_9 
REMARK    5  A    between atoms: C_7  and  C_10 
REMARK    6  A    between atoms: C_10  and  C_11 
ROOT
HETATM    1  C   UNK N   1      22.890  17.457   4.786  0.00  0.00     0.093 C 
ENDROOT
BRANCH   1   2
HETATM    2  O   UNK N   1      23.086  18.425   5.778  0.00  0.00    -0.386 OA
HETATM    3  H   UNK N   1      23.061  19.191   6.374  0.00  0.00     0.210 HD
ENDBRANCH   1   2
BRANCH   1   4
HETATM    4  C   UNK N   1      22.402  16.141   5.474  0.00  0.00     0.173 C 
HETATM    5  O   UNK N   1      23.514  15.260   5.664  0.00  0.00    -0.380 OA
HETATM    6  C   UNK N   1      23.512  14.584   6.910  0.00  0.00     0.187 C 
HETATM    7  C   UNK N   1      22.116  14.074   7.276  0.00  0.00     0.140 C 
HETATM    8  N   UNK N   1      21.145  15.171   7.389  0.00  0.00    -0.417 N 
HETATM    9  C   UNK N   1      21.643  16.416   6.797  0.00  0.00     0.149 C 
HETATM   10  H   UNK N   1      20.230  15.077   7.830  0.00  0.00     0.153 HD
ENDBRANCH   1   4
BRANCH   1  11
HETATM   11  C   UNK N   1      21.879  17.986   3.703  0.00  0.00     0.027 C 
HETATM   12  C   UNK N   1      21.101  19.227   4.155  0.00  0.00     0.034 C 
HETATM   13  C   UNK N   1      20.199  19.711   3.021  0.00  0.00     0.168 C 
HETATM   14  O   UNK N   1      19.258  18.714   2.716  0.00  0.00    -0.391 OA
HETATM   15  C   UNK N   1      19.972  17.658   2.124  0.00  0.00     0.168 C 
HETATM   16  C   UNK N   1      20.845  16.979   3.181  0.00  0.00     0.034 C 
ENDBRANCH   1  11
BRANCH   1  17
HETATM   17  C   UNK N   1      24.254  17.101   4.120  0.00  0.00     0.082 C 
BRANCH  17  18
HETATM   18  C   UNK N   1      25.398  18.089   4.191  0.00  0.00    -0.019 A 
HETATM   19  C   UNK N   1      26.505  17.929   5.083  0.00  0.00     0.074 A 
HETATM   20  C   UNK N   1      27.517  18.900   5.082  0.00  0.00     0.040 A 
HETATM   21  C   UNK N   1      27.467  19.998   4.224  0.00  0.00     0.045 A 
HETATM   22  C   UNK N   1      26.403  20.134   3.338  0.00  0.00     0.117 A 
HETATM   23  F   UNK N   1      26.344  21.197   2.501  0.00  0.00    -0.206 F 
HETATM   24  C   UNK N   1      25.390  19.183   3.321  0.00  0.00     0.052 A 
BRANCH  19  25
HETATM   25  O   UNK N   1      26.659  16.887   5.943  0.00  0.00    -0.355 OA
HETATM   26  C   UNK N   1      27.848  16.356   6.378  0.00  0.00     0.210 C 
ENDBRANCH  19  25
ENDBRANCH  17  18
ENDBRANCH   1  17
TORSDOF 6
ENDMDL
