MODEL 1
REMARK VINA RESULT:      -7.7      0.000      0.000
REMARK  13 active torsions:
REMARK  status: ('A' for Active; 'I' for Inactive)
REMARK    1  A    between atoms: C_32  and  C_12 
REMARK    2  A    between atoms: C_14  and  C_13 
REMARK    3  A    between atoms: C_18  and  C_13 
REMARK    4  A    between atoms: C_19  and  C_14 
REMARK    5  A    between atoms: N_51  and  C_18 
REMARK    6  A    between atoms: N_52  and  C_19 
REMARK    7  A    between atoms: C_30  and  C_28 
REMARK    8  A    between atoms: N_45  and  C_29 
REMARK    9  A    between atoms: C_31  and  N_50 
REMARK   10  A    between atoms: C_34  and  O_54 
REMARK   11  A    between atoms: C_37  and  O_61 
REMARK   12  A    between atoms: C_38  and  O_61 
REMARK   13  A    between atoms: C_41  and  O_58 
ROOT
HETATM    1  C   UNK N   1      25.994  13.266   2.190  0.00  0.00     0.018 C 
HETATM    2  C   UNK N   1      25.537  14.229   6.895  0.00  0.00     0.020 C 
HETATM    3  C   UNK N   1      28.424  18.977   4.895  0.00  0.00     0.021 C 
HETATM    4  C   UNK N   1      28.845  15.364   2.290  0.00  0.00     0.049 C 
HETATM    5  C   UNK N   1      25.463  19.057   3.182  0.00  0.00     0.072 C 
HETATM    6  C   UNK N   1      22.425  15.444   7.026  0.00  0.00     0.052 C 
HETATM    7  C   UNK N   1      27.044  14.888   3.787  0.00  0.00     0.052 C 
HETATM    8  C   UNK N   1      26.619  13.443   3.560  0.00  0.00     0.054 C 
HETATM    9  C   UNK N   1      24.921  14.046   5.517  0.00  0.00     0.077 C 
HETATM   10  C   UNK N   1      27.906  17.682   4.287  0.00  0.00     0.087 C 
HETATM   11  C   UNK N   1      22.164  15.771   4.521  0.00  0.00     0.168 C 
HETATM   12  C   UNK N   1      25.674  13.038   4.654  0.00  0.00     0.136 C 
HETATM   13  C   UNK N   1      23.431  13.689   5.507  0.00  0.00     0.137 C 
HETATM   14  C   UNK N   1      26.501  17.464   4.878  0.00  0.00     0.182 C 
HETATM   15  C   UNK N   1      28.918  16.497   4.581  0.00  0.00     0.170 C 
HETATM   16  C   UNK N   1      24.204  17.045   3.911  0.00  0.00     0.307 C 
HETATM   17  C   UNK N   1      21.651  12.710   6.411  0.00  0.00     0.364 C 
HETATM   18  C   UNK N   1      28.539  15.177   3.771  0.00  0.00     0.084 C 
HETATM   19  C   UNK N   1      25.215  18.105   4.341  0.00  0.00     0.246 C 
HETATM   20  C   UNK N   1      22.279  14.720   5.678  0.00  0.00     0.116 C 
HETATM   21  F   UNK N   1      24.669  18.846   5.376  0.00  0.00    -0.224 F 
HETATM   22  N   UNK N   1      22.987  12.640   6.399  0.00  0.00    -0.319 N 
HETATM   23  O   UNK N   1      25.404  11.862   4.750  0.00  0.00    -0.297 OA
HETATM   24  O   UNK N   1      26.411  16.825   5.915  0.00  0.00    -0.293 OA
HETATM   25  O   UNK N   1      24.419  16.372   2.913  0.00  0.00    -0.261 OA
HETATM   26  O   UNK N   1      20.939  11.996   7.098  0.00  0.00    -0.238 OA
HETATM   27  O   UNK N   1      23.116  16.785   4.697  0.00  0.00    -0.310 OA
HETATM   28  O   UNK N   1      21.202  13.830   5.794  0.00  0.00    -0.288 OA
ENDROOT
BRANCH  22  29
HETATM   29  C   UNK N   1      23.731  12.135   7.555  0.00  0.00     0.129 C 
BRANCH  29  30
HETATM   30  C   UNK N   1      23.607  10.656   7.830  0.00  0.00     0.022 C 
BRANCH  30  31
HETATM   31  C   UNK N   1      24.009   9.748   6.644  0.00  0.00     0.023 C 
BRANCH  31  32
HETATM   32  C   UNK N   1      22.775   9.090   5.967  0.00  0.00     0.150 C 
BRANCH  32  33
HETATM   33  N   UNK N   1      22.725   9.510   4.576  0.00  0.00    -0.287 N 
HETATM   34  C   UNK N   1      21.841  10.412   4.114  0.00  0.00     0.143 A 
HETATM   35  C   UNK N   1      22.462  11.014   3.042  0.00  0.00     0.076 A 
HETATM   36  N   UNK N   1      23.680  10.472   2.886  0.00  0.00    -0.284 N 
HETATM   37  N   UNK N   1      23.811   9.555   3.822  0.00  0.00    -0.240 N 
ATOM     38  HN  UNK N   1      24.371  10.722   2.178  1.00  0.00     0.188 HD
ATOM     39  HN  UNK N   1      24.633   8.964   3.950  1.00  0.00     0.208 HD
BRANCH  35  40
HETATM   40  C   UNK N   1      21.997  12.192   2.326  0.00  0.00    -0.004 A 
HETATM   41  C   UNK N   1      22.860  12.834   1.430  0.00  0.00     0.014 A 
HETATM   42  C   UNK N   1      22.443  13.985   0.758  0.00  0.00     0.003 A 
HETATM   43  C   UNK N   1      21.142  14.459   0.940  0.00  0.00     0.029 A 
HETATM   44  C   UNK N   1      20.273  13.805   1.819  0.00  0.00     0.026 A 
HETATM   45  C   UNK N   1      20.710  12.691   2.537  0.00  0.00     0.042 A 
BRANCH  44  46
HETATM   46  N   UNK N   1      18.942  14.242   1.949  0.00  0.00    -0.399 N 
HETATM   47  H   UNK N   1      18.268  13.684   2.400  0.00  0.00     0.156 HD
HETATM   48  H   UNK N   1      18.681  15.118   1.583  0.00  0.00     0.156 HD
ENDBRANCH  44  46
ENDBRANCH  35  40
ENDBRANCH  32  33
ENDBRANCH  31  32
ENDBRANCH  30  31
ENDBRANCH  29  30
ENDBRANCH  22  29
BRANCH  11  49
HETATM   49  C   UNK N   1      20.766  16.403   4.446  0.00  0.00     0.031 C 
HETATM   50  C   UNK N   1      20.561  17.322   3.252  0.00  0.00     0.007 C 
ENDBRANCH  11  49
BRANCH  18  51
HETATM   51  O   UNK N   1      29.262  14.051   4.250  0.00  0.00    -0.383 OA
HETATM   52  C   UNK N   1      30.171  13.584   3.272  0.00  0.00     0.202 C 
ENDBRANCH  18  51
BRANCH  15  53
HETATM   53  O   UNK N   1      30.266  16.970   4.375  0.00  0.00    -0.349 OA
BRANCH  53  54
HETATM   54  C   UNK N   1      31.252  16.526   5.307  0.00  0.00     0.291 C 
HETATM   55  C   UNK N   1      32.557  16.151   4.589  0.00  0.00     0.206 C 
HETATM   56  C   UNK N   1      33.499  15.504   5.653  0.00  0.00     0.257 C 
HETATM   57  C   UNK N   1      33.673  16.461   6.841  0.00  0.00     0.070 C 
HETATM   58  C   UNK N   1      32.304  16.921   7.343  0.00  0.00     0.122 C 
HETATM   59  C   UNK N   1      32.507  17.937   8.447  0.00  0.00     0.040 C 
HETATM   60  O   UNK N   1      31.563  17.516   6.282  0.00  0.00    -0.354 OA
BRANCH  55  61
HETATM   61  O   UNK N   1      33.128  17.301   4.033  0.00  0.00    -0.388 OA
HETATM   62  H   UNK N   1      33.339  18.242   3.930  0.00  0.00     0.210 HD
ENDBRANCH  55  61
BRANCH  56  63
HETATM   63  N   UNK N   1      34.815  15.067   5.147  0.00  0.00     0.087 N 
HETATM   64  C   UNK N   1      34.721  13.968   4.195  0.00  0.00     0.310 C 
HETATM   65  C   UNK N   1      35.689  14.659   6.237  0.00  0.00     0.310 C 
ENDBRANCH  56  63
ENDBRANCH  53  54
ENDBRANCH  15  53
TORSDOF 13
ENDMDL
MODEL 2
REMARK VINA RESULT:      -7.7      3.437      9.297
REMARK  13 active torsions:
REMARK  status: ('A' for Active; 'I' for Inactive)
REMARK    1  A    between atoms: C_32  and  C_12 
REMARK    2  A    between atoms: C_14  and  C_13 
REMARK    3  A    between atoms: C_18  and  C_13 
REMARK    4  A    between atoms: C_19  and  C_14 
REMARK    5  A    between atoms: N_51  and  C_18 
REMARK    6  A    between atoms: N_52  and  C_19 
REMARK    7  A    between atoms: C_30  and  C_28 
REMARK    8  A    between atoms: N_45  and  C_29 
REMARK    9  A    between atoms: C_31  and  N_50 
REMARK   10  A    between atoms: C_34  and  O_54 
REMARK   11  A    between atoms: C_37  and  O_61 
REMARK   12  A    between atoms: C_38  and  O_61 
REMARK   13  A    between atoms: C_41  and  O_58 
ROOT
HETATM    1  C   UNK N   1      25.247  15.419   1.529  0.00  0.00     0.018 C 
HETATM    2  C   UNK N   1      27.662  15.602   5.700  0.00  0.00     0.020 C 
HETATM    3  C   UNK N   1      24.147  10.918   6.465  0.00  0.00     0.021 C 
HETATM    4  C   UNK N   1      22.690  13.796   3.364  0.00  0.00     0.049 C 
HETATM    5  C   UNK N   1      26.089  10.036   3.790  0.00  0.00     0.072 C 
HETATM    6  C   UNK N   1      30.517  14.067   4.883  0.00  0.00     0.052 C 
HETATM    7  C   UNK N   1      24.963  14.393   3.798  0.00  0.00     0.052 C 
HETATM    8  C   UNK N   1      25.266  15.670   3.023  0.00  0.00     0.054 C 
HETATM    9  C   UNK N   1      27.632  15.357   4.201  0.00  0.00     0.077 C 
HETATM   10  C   UNK N   1      24.369  11.945   5.364  0.00  0.00     0.087 C 
HETATM   11  C   UNK N   1      29.679  13.099   2.691  0.00  0.00     0.168 C 
HETATM   12  C   UNK N   1      26.592  16.208   3.476  0.00  0.00     0.136 C 
HETATM   13  C   UNK N   1      28.978  15.506   3.484  0.00  0.00     0.137 C 
HETATM   14  C   UNK N   1      25.893  12.120   5.244  0.00  0.00     0.182 C 
HETATM   15  C   UNK N   1      23.592  13.286   5.702  0.00  0.00     0.170 C 
HETATM   16  C   UNK N   1      27.560  11.988   3.348  0.00  0.00     0.307 C 
HETATM   17  C   UNK N   1      30.984  16.441   3.270  0.00  0.00     0.364 C 
HETATM   18  C   UNK N   1      23.602  14.303   4.474  0.00  0.00     0.084 C 
HETATM   19  C   UNK N   1      26.820  11.206   4.430  0.00  0.00     0.246 C 
HETATM   20  C   UNK N   1      30.081  14.410   3.450  0.00  0.00     0.116 C 
HETATM   21  F   UNK N   1      27.748  10.681   5.314  0.00  0.00    -0.224 F 
HETATM   22  N   UNK N   1      29.771  16.677   3.785  0.00  0.00    -0.319 N 
HETATM   23  O   UNK N   1      26.890  17.326   3.121  0.00  0.00    -0.297 OA
HETATM   24  O   UNK N   1      26.425  12.979   5.930  0.00  0.00    -0.293 OA
HETATM   25  O   UNK N   1      26.947  12.414   2.381  0.00  0.00    -0.261 OA
HETATM   26  O   UNK N   1      31.928  17.205   3.377  0.00  0.00    -0.238 OA
HETATM   27  O   UNK N   1      28.883  12.291   3.515  0.00  0.00    -0.310 OA
HETATM   28  O   UNK N   1      31.113  15.155   2.863  0.00  0.00    -0.288 OA
ENDROOT
BRANCH  22  29
HETATM   29  C   UNK N   1      29.599  17.545   4.953  0.00  0.00     0.129 C 
BRANCH  29  30
HETATM   30  C   UNK N   1      28.891  18.855   4.708  0.00  0.00     0.022 C 
BRANCH  30  31
HETATM   31  C   UNK N   1      28.020  19.344   5.889  0.00  0.00     0.023 C 
BRANCH  31  32
HETATM   32  C   UNK N   1      27.069  20.500   5.474  0.00  0.00     0.150 C 
BRANCH  32  33
HETATM   33  N   UNK N   1      26.222  20.040   4.385  0.00  0.00    -0.287 N 
HETATM   34  C   UNK N   1      24.963  19.605   4.569  0.00  0.00     0.143 A 
HETATM   35  C   UNK N   1      24.306  19.881   3.390  0.00  0.00     0.076 A 
HETATM   36  N   UNK N   1      25.166  20.463   2.540  0.00  0.00    -0.284 N 
HETATM   37  N   UNK N   1      26.324  20.539   3.164  0.00  0.00    -0.240 N 
ATOM     38  HN  UNK N   1      24.963  20.785   1.593  1.00  0.00     0.188 HD
ATOM     39  HN  UNK N   1      27.178  20.928   2.764  1.00  0.00     0.208 HD
BRANCH  35  40
HETATM   40  C   UNK N   1      22.874  19.780   3.157  0.00  0.00    -0.004 A 
HETATM   41  C   UNK N   1      22.096  18.980   4.003  0.00  0.00     0.014 A 
HETATM   42  C   UNK N   1      20.726  18.845   3.776  0.00  0.00     0.003 A 
HETATM   43  C   UNK N   1      20.123  19.558   2.737  0.00  0.00     0.029 A 
HETATM   44  C   UNK N   1      20.896  20.375   1.905  0.00  0.00     0.026 A 
HETATM   45  C   UNK N   1      22.276  20.460   2.095  0.00  0.00     0.042 A 
BRANCH  44  46
HETATM   46  N   UNK N   1      20.278  21.145   0.903  0.00  0.00    -0.399 N 
HETATM   47  H   UNK N   1      20.769  21.862   0.441  0.00  0.00     0.156 HD
HETATM   48  H   UNK N   1      19.341  20.965   0.661  0.00  0.00     0.156 HD
ENDBRANCH  44  46
ENDBRANCH  35  40
ENDBRANCH  32  33
ENDBRANCH  31  32
ENDBRANCH  30  31
ENDBRANCH  29  30
ENDBRANCH  22  29
BRANCH  11  49
HETATM   49  C   UNK N   1      30.904  12.294   2.232  0.00  0.00     0.031 C 
HETATM   50  C   UNK N   1      30.883  11.916   0.759  0.00  0.00     0.007 C 
ENDBRANCH  11  49
BRANCH  18  51
HETATM   51  O   UNK N   1      23.165  15.596   4.872  0.00  0.00    -0.383 OA
HETATM   52  C   UNK N   1      23.916  16.063   5.976  0.00  0.00     0.202 C 
ENDBRANCH  18  51
BRANCH  15  53
HETATM   53  O   UNK N   1      22.281  12.954   6.205  0.00  0.00    -0.349 OA
BRANCH  53  54
HETATM   54  C   UNK N   1      21.854  13.635   7.385  0.00  0.00     0.291 C 
HETATM   55  C   UNK N   1      20.752  14.655   7.060  0.00  0.00     0.206 C 
HETATM   56  C   UNK N   1      20.487  15.476   8.362  0.00  0.00     0.257 C 
HETATM   57  C   UNK N   1      20.157  14.522   9.519  0.00  0.00     0.070 C 
HETATM   58  C   UNK N   1      21.225  13.432   9.614  0.00  0.00     0.122 C 
HETATM   59  C   UNK N   1      20.824  12.451  10.695  0.00  0.00     0.040 C 
HETATM   60  O   UNK N   1      21.343  12.746   8.371  0.00  0.00    -0.354 OA
BRANCH  55  61
HETATM   61  O   UNK N   1      19.602  13.979   6.640  0.00  0.00    -0.388 OA
HETATM   62  H   UNK N   1      19.050  13.238   6.344  0.00  0.00     0.210 HD
ENDBRANCH  55  61
BRANCH  56  63
HETATM   63  N   UNK N   1      19.453  16.523   8.248  0.00  0.00     0.087 N 
HETATM   64  C   UNK N   1      19.981  17.868   8.442  0.00  0.00     0.310 C 
HETATM   65  C   UNK N   1      18.377  16.308   9.204  0.00  0.00     0.310 C 
ENDBRANCH  56  63
ENDBRANCH  53  54
ENDBRANCH  15  53
TORSDOF 13
ENDMDL
MODEL 3
REMARK VINA RESULT:      -7.5      1.605      1.994
REMARK  13 active torsions:
REMARK  status: ('A' for Active; 'I' for Inactive)
REMARK    1  A    between atoms: C_32  and  C_12 
REMARK    2  A    between atoms: C_14  and  C_13 
REMARK    3  A    between atoms: C_18  and  C_13 
REMARK    4  A    between atoms: C_19  and  C_14 
REMARK    5  A    between atoms: N_51  and  C_18 
REMARK    6  A    between atoms: N_52  and  C_19 
REMARK    7  A    between atoms: C_30  and  C_28 
REMARK    8  A    between atoms: N_45  and  C_29 
REMARK    9  A    between atoms: C_31  and  N_50 
REMARK   10  A    between atoms: C_34  and  O_54 
REMARK   11  A    between atoms: C_37  and  O_61 
REMARK   12  A    between atoms: C_38  and  O_61 
REMARK   13  A    between atoms: C_41  and  O_58 
ROOT
HETATM    1  C   UNK N   1      25.192  14.514   1.833  0.00  0.00     0.018 C 
HETATM    2  C   UNK N   1      24.420  15.322   6.525  0.00  0.00     0.020 C 
HETATM    3  C   UNK N   1      28.816  19.068   5.291  0.00  0.00     0.021 C 
HETATM    4  C   UNK N   1      28.495  15.640   2.434  0.00  0.00     0.049 C 
HETATM    5  C   UNK N   1      26.265  20.133   3.276  0.00  0.00     0.072 C 
HETATM    6  C   UNK N   1      21.816  17.416   6.420  0.00  0.00     0.052 C 
HETATM    7  C   UNK N   1      26.452  15.655   3.675  0.00  0.00     0.052 C 
HETATM    8  C   UNK N   1      25.653  14.421   3.273  0.00  0.00     0.054 C 
HETATM    9  C   UNK N   1      23.965  15.408   5.078  0.00  0.00     0.077 C 
HETATM   10  C   UNK N   1      28.025  18.025   4.516  0.00  0.00     0.087 C 
HETATM   11  C   UNK N   1      21.997  17.938   3.942  0.00  0.00     0.168 C 
HETATM   12  C   UNK N   1      24.496  14.265   4.215  0.00  0.00     0.136 C 
HETATM   13  C   UNK N   1      22.451  15.521   4.871  0.00  0.00     0.137 C 
HETATM   14  C   UNK N   1      26.553  18.213   4.927  0.00  0.00     0.182 C 
HETATM   15  C   UNK N   1      28.594  16.575   4.813  0.00  0.00     0.170 C 
HETATM   16  C   UNK N   1      24.383  18.562   3.678  0.00  0.00     0.307 C 
HETATM   17  C   UNK N   1      20.359  15.082   5.481  0.00  0.00     0.364 C 
HETATM   18  C   UNK N   1      27.954  15.477   3.850  0.00  0.00     0.084 C 
HETATM   19  C   UNK N   1      25.595  19.241   4.310  0.00  0.00     0.246 C 
HETATM   20  C   UNK N   1      21.642  16.842   5.006  0.00  0.00     0.116 C 
HETATM   21  F   UNK N   1      25.159  20.058   5.342  0.00  0.00    -0.224 F 
HETATM   22  N   UNK N   1      21.604  14.610   5.610  0.00  0.00    -0.319 N 
HETATM   23  O   UNK N   1      23.881  13.223   4.175  0.00  0.00    -0.297 OA
HETATM   24  O   UNK N   1      26.142  17.577   5.886  0.00  0.00    -0.293 OA
HETATM   25  O   UNK N   1      24.520  17.909   2.653  0.00  0.00    -0.261 OA
HETATM   26  O   UNK N   1      19.384  14.583   6.018  0.00  0.00    -0.238 OA
HETATM   27  O   UNK N   1      23.173  18.604   4.313  0.00  0.00    -0.310 OA
HETATM   28  O   UNK N   1      20.346  16.316   4.921  0.00  0.00    -0.288 OA
ENDROOT
BRANCH  22  29
HETATM   29  C   UNK N   1      22.007  13.843   6.792  0.00  0.00     0.129 C 
BRANCH  29  30
HETATM   30  C   UNK N   1      21.325  12.510   6.981  0.00  0.00     0.022 C 
BRANCH  30  31
HETATM   31  C   UNK N   1      21.968  11.343   6.196  0.00  0.00     0.023 C 
BRANCH  31  32
HETATM   32  C   UNK N   1      20.918  10.534   5.387  0.00  0.00     0.150 C 
BRANCH  32  33
HETATM   33  N   UNK N   1      20.953  10.974   4.002  0.00  0.00    -0.287 N 
HETATM   34  C   UNK N   1      20.090  11.873   3.496  0.00  0.00     0.143 A 
HETATM   35  C   UNK N   1      20.772  12.499   2.476  0.00  0.00     0.076 A 
HETATM   36  N   UNK N   1      22.005  11.973   2.392  0.00  0.00    -0.284 N 
HETATM   37  N   UNK N   1      22.086  11.044   3.321  0.00  0.00    -0.240 N 
ATOM     38  HN  UNK N   1      22.737  12.242   1.734  1.00  0.00     0.188 HD
ATOM     39  HN  UNK N   1      22.905  10.460   3.494  1.00  0.00     0.208 HD
BRANCH  35  40
HETATM   40  C   UNK N   1      20.341  13.683   1.749  0.00  0.00    -0.004 A 
HETATM   41  C   UNK N   1      21.177  14.806   1.710  0.00  0.00     0.014 A 
HETATM   42  C   UNK N   1      20.765  15.962   1.045  0.00  0.00     0.003 A 
HETATM   43  C   UNK N   1      19.543  15.975   0.369  0.00  0.00     0.029 A 
HETATM   44  C   UNK N   1      18.718  14.845   0.390  0.00  0.00     0.026 A 
HETATM   45  C   UNK N   1      19.102  13.711   1.106  0.00  0.00     0.042 A 
BRANCH  44  46
HETATM   46  N   UNK N   1      17.520  14.835  -0.348  0.00  0.00    -0.399 N 
HETATM   47  H   UNK N   1      17.443  14.313  -1.180  0.00  0.00     0.156 HD
HETATM   48  H   UNK N   1      16.749  15.357  -0.029  0.00  0.00     0.156 HD
ENDBRANCH  44  46
ENDBRANCH  35  40
ENDBRANCH  32  33
ENDBRANCH  31  32
ENDBRANCH  30  31
ENDBRANCH  29  30
ENDBRANCH  22  29
BRANCH  11  49
HETATM   49  C   UNK N   1      20.869  18.967   3.770  0.00  0.00     0.031 C 
HETATM   50  C   UNK N   1      20.776  19.561   2.374  0.00  0.00     0.007 C 
ENDBRANCH  11  49
BRANCH  18  51
HETATM   51  O   UNK N   1      28.244  14.161   4.303  0.00  0.00    -0.383 OA
HETATM   52  C   UNK N   1      29.178  13.529   3.449  0.00  0.00     0.202 C 
ENDBRANCH  18  51
BRANCH  15  53
HETATM   53  O   UNK N   1      30.037  16.626   4.800  0.00  0.00    -0.349 OA
BRANCH  53  54
HETATM   54  C   UNK N   1      30.700  16.364   6.037  0.00  0.00     0.291 C 
HETATM   55  C   UNK N   1      32.223  16.323   5.844  0.00  0.00     0.206 C 
HETATM   56  C   UNK N   1      32.846  15.846   7.195  0.00  0.00     0.257 C 
HETATM   57  C   UNK N   1      32.368  16.756   8.335  0.00  0.00     0.070 C 
HETATM   58  C   UNK N   1      30.844  16.878   8.300  0.00  0.00     0.122 C 
HETATM   59  C   UNK N   1      30.409  17.856   9.370  0.00  0.00     0.040 C 
HETATM   60  O   UNK N   1      30.415  17.348   7.025  0.00  0.00    -0.354 OA
BRANCH  55  61
HETATM   61  O   UNK N   1      32.682  17.597   5.492  0.00  0.00    -0.388 OA
HETATM   62  H   UNK N   1      33.187  18.272   5.011  0.00  0.00     0.210 HD
ENDBRANCH  55  61
BRANCH  56  63
HETATM   63  N   UNK N   1      34.317  15.735   7.207  0.00  0.00     0.087 N 
HETATM   64  C   UNK N   1      34.830  14.865   6.156  0.00  0.00     0.310 C 
HETATM   65  C   UNK N   1      34.798  15.243   8.490  0.00  0.00     0.310 C 
ENDBRANCH  56  63
ENDBRANCH  53  54
ENDBRANCH  15  53
TORSDOF 13
ENDMDL
MODEL 4
REMARK VINA RESULT:      -7.3      5.608     12.768
REMARK  13 active torsions:
REMARK  status: ('A' for Active; 'I' for Inactive)
REMARK    1  A    between atoms: C_32  and  C_12 
REMARK    2  A    between atoms: C_14  and  C_13 
REMARK    3  A    between atoms: C_18  and  C_13 
REMARK    4  A    between atoms: C_19  and  C_14 
REMARK    5  A    between atoms: N_51  and  C_18 
REMARK    6  A    between atoms: N_52  and  C_19 
REMARK    7  A    between atoms: C_30  and  C_28 
REMARK    8  A    between atoms: N_45  and  C_29 
REMARK    9  A    between atoms: C_31  and  N_50 
REMARK   10  A    between atoms: C_34  and  O_54 
REMARK   11  A    between atoms: C_37  and  O_61 
REMARK   12  A    between atoms: C_38  and  O_61 
REMARK   13  A    between atoms: C_41  and  O_58 
ROOT
HETATM    1  C   UNK N   1      32.582  17.464   3.662  0.00  0.00     0.018 C 
HETATM    2  C   UNK N   1      31.927  14.435   7.359  0.00  0.00     0.020 C 
HETATM    3  C   UNK N   1      27.937  12.545   3.437  0.00  0.00     0.021 C 
HETATM    4  C   UNK N   1      29.206  16.793   2.834  0.00  0.00     0.049 C 
HETATM    5  C   UNK N   1      30.920  12.112   1.819  0.00  0.00     0.072 C 
HETATM    6  C   UNK N   1      34.367  12.210   6.835  0.00  0.00     0.052 C 
HETATM    7  C   UNK N   1      30.799  15.838   4.339  0.00  0.00     0.052 C 
HETATM    8  C   UNK N   1      31.727  16.954   4.804  0.00  0.00     0.054 C 
HETATM    9  C   UNK N   1      32.779  14.957   6.213  0.00  0.00     0.077 C 
HETATM   10  C   UNK N   1      28.959  13.670   3.494  0.00  0.00     0.087 C 
HETATM   11  C   UNK N   1      34.893  12.948   4.463  0.00  0.00     0.168 C 
HETATM   12  C   UNK N   1      32.567  16.443   5.938  0.00  0.00     0.136 C 
HETATM   13  C   UNK N   1      34.282  14.688   6.337  0.00  0.00     0.137 C 
HETATM   14  C   UNK N   1      30.240  13.055   4.086  0.00  0.00     0.182 C 
HETATM   15  C   UNK N   1      28.384  14.889   4.331  0.00  0.00     0.170 C 
HETATM   16  C   UNK N   1      32.663  12.953   3.375  0.00  0.00     0.307 C 
HETATM   17  C   UNK N   1      36.124  14.413   7.553  0.00  0.00     0.364 C 
HETATM   18  C   UNK N   1      29.318  16.176   4.223  0.00  0.00     0.084 C 
HETATM   19  C   UNK N   1      31.295  12.283   3.282  0.00  0.00     0.246 C 
HETATM   20  C   UNK N   1      34.966  13.337   5.980  0.00  0.00     0.116 C 
HETATM   21  F   UNK N   1      31.380  11.017   3.839  0.00  0.00    -0.224 F 
HETATM   22  N   UNK N   1      34.913  14.981   7.605  0.00  0.00    -0.319 N 
HETATM   23  O   UNK N   1      33.207  17.256   6.567  0.00  0.00    -0.297 OA
HETATM   24  O   UNK N   1      30.379  13.085   5.300  0.00  0.00    -0.293 OA
HETATM   25  O   UNK N   1      32.855  14.021   2.812  0.00  0.00    -0.261 OA
HETATM   26  O   UNK N   1      36.919  14.422   8.477  0.00  0.00    -0.238 OA
HETATM   27  O   UNK N   1      33.635  12.405   4.166  0.00  0.00    -0.310 OA
HETATM   28  O   UNK N   1      36.250  13.603   6.474  0.00  0.00    -0.288 OA
ENDROOT
BRANCH  22  29
HETATM   29  C   UNK N   1      34.216  15.165   8.881  0.00  0.00     0.129 C 
BRANCH  29  30
HETATM   30  C   UNK N   1      34.367  14.049   9.886  0.00  0.00     0.022 C 
BRANCH  30  31
HETATM   31  C   UNK N   1      34.644  14.522  11.332  0.00  0.00     0.023 C 
BRANCH  31  32
HETATM   32  C   UNK N   1      35.755  13.682  12.019  0.00  0.00     0.150 C 
BRANCH  32  33
HETATM   33  N   UNK N   1      35.788  14.017  13.434  0.00  0.00    -0.287 N 
HETATM   34  C   UNK N   1      35.144  13.299  14.372  0.00  0.00     0.143 A 
HETATM   35  C   UNK N   1      35.877  13.468  15.526  0.00  0.00     0.076 A 
HETATM   36  N   UNK N   1      36.923  14.267  15.263  0.00  0.00    -0.284 N 
HETATM   37  N   UNK N   1      36.840  14.595  13.989  0.00  0.00    -0.240 N 
ATOM     38  HN  UNK N   1      37.643  14.565  15.922  1.00  0.00     0.188 HD
ATOM     39  HN  UNK N   1      37.494  15.205  13.500  1.00  0.00     0.208 HD
BRANCH  35  40
HETATM   40  C   UNK N   1      35.703  12.739  16.772  0.00  0.00    -0.004 A 
HETATM   41  C   UNK N   1      35.935  11.358  16.796  0.00  0.00     0.014 A 
HETATM   42  C   UNK N   1      35.742  10.635  17.974  0.00  0.00     0.003 A 
HETATM   43  C   UNK N   1      35.375  11.304  19.144  0.00  0.00     0.029 A 
HETATM   44  C   UNK N   1      35.165  12.687  19.126  0.00  0.00     0.026 A 
HETATM   45  C   UNK N   1      35.297  13.399  17.933  0.00  0.00     0.042 A 
BRANCH  44  46
HETATM   46  N   UNK N   1      34.862  13.369  20.319  0.00  0.00    -0.399 N 
HETATM   47  H   UNK N   1      35.430  14.108  20.636  0.00  0.00     0.156 HD
HETATM   48  H   UNK N   1      34.073  13.103  20.843  0.00  0.00     0.156 HD
ENDBRANCH  44  46
ENDBRANCH  35  40
ENDBRANCH  32  33
ENDBRANCH  31  32
ENDBRANCH  30  31
ENDBRANCH  29  30
ENDBRANCH  22  29
BRANCH  11  49
HETATM   49  C   UNK N   1      35.980  11.936   4.070  0.00  0.00     0.031 C 
HETATM   50  C   UNK N   1      37.020  12.485   3.104  0.00  0.00     0.007 C 
ENDBRANCH  11  49
BRANCH  18  51
HETATM   51  O   UNK N   1      28.961  17.156   5.189  0.00  0.00    -0.383 OA
HETATM   52  C   UNK N   1      28.366  18.280   4.570  0.00  0.00     0.202 C 
ENDBRANCH  18  51
BRANCH  15  53
HETATM   53  O   UNK N   1      27.007  15.106   3.958  0.00  0.00    -0.349 OA
BRANCH  53  54
HETATM   54  C   UNK N   1      26.083  15.342   5.021  0.00  0.00     0.291 C 
HETATM   55  C   UNK N   1      24.713  15.767   4.473  0.00  0.00     0.206 C 
HETATM   56  C   UNK N   1      23.837  16.184   5.696  0.00  0.00     0.257 C 
HETATM   57  C   UNK N   1      23.792  15.038   6.717  0.00  0.00     0.070 C 
HETATM   58  C   UNK N   1      25.211  14.567   7.033  0.00  0.00     0.122 C 
HETATM   59  C   UNK N   1      25.133  13.375   7.962  0.00  0.00     0.040 C 
HETATM   60  O   UNK N   1      25.886  14.192   5.836  0.00  0.00    -0.354 OA
BRANCH  55  61
HETATM   61  O   UNK N   1      24.140  14.699   3.775  0.00  0.00    -0.388 OA
HETATM   62  H   UNK N   1      24.054  14.005   3.102  0.00  0.00     0.210 HD
ENDBRANCH  55  61
BRANCH  56  63
HETATM   63  N   UNK N   1      22.471  16.636   5.368  0.00  0.00     0.087 N 
HETATM   64  C   UNK N   1      22.179  17.975   5.864  0.00  0.00     0.310 C 
HETATM   65  C   UNK N   1      21.471  15.720   5.899  0.00  0.00     0.310 C 
ENDBRANCH  56  63
ENDBRANCH  53  54
ENDBRANCH  15  53
TORSDOF 13
ENDMDL
MODEL 5
REMARK VINA RESULT:      -7.1      2.321      3.981
REMARK  13 active torsions:
REMARK  status: ('A' for Active; 'I' for Inactive)
REMARK    1  A    between atoms: C_32  and  C_12 
REMARK    2  A    between atoms: C_14  and  C_13 
REMARK    3  A    between atoms: C_18  and  C_13 
REMARK    4  A    between atoms: C_19  and  C_14 
REMARK    5  A    between atoms: N_51  and  C_18 
REMARK    6  A    between atoms: N_52  and  C_19 
REMARK    7  A    between atoms: C_30  and  C_28 
REMARK    8  A    between atoms: N_45  and  C_29 
REMARK    9  A    between atoms: C_31  and  N_50 
REMARK   10  A    between atoms: C_34  and  O_54 
REMARK   11  A    between atoms: C_37  and  O_61 
REMARK   12  A    between atoms: C_38  and  O_61 
REMARK   13  A    between atoms: C_41  and  O_58 
ROOT
HETATM    1  C   UNK N   1      24.879  15.006   1.640  0.00  0.00     0.018 C 
HETATM    2  C   UNK N   1      23.768  15.906   6.247  0.00  0.00     0.020 C 
HETATM    3  C   UNK N   1      28.713  19.045   5.489  0.00  0.00     0.021 C 
HETATM    4  C   UNK N   1      28.227  15.689   2.571  0.00  0.00     0.049 C 
HETATM    5  C   UNK N   1      26.529  20.435   3.252  0.00  0.00     0.072 C 
HETATM    6  C   UNK N   1      21.481  18.323   5.919  0.00  0.00     0.052 C 
HETATM    7  C   UNK N   1      26.092  15.971   3.609  0.00  0.00     0.052 C 
HETATM    8  C   UNK N   1      25.183  14.852   3.116  0.00  0.00     0.054 C 
HETATM    9  C   UNK N   1      23.471  16.051   4.763  0.00  0.00     0.077 C 
HETATM   10  C   UNK N   1      27.871  18.115   4.628  0.00  0.00     0.087 C 
HETATM   11  C   UNK N   1      21.967  18.817   3.476  0.00  0.00     0.168 C 
HETATM   12  C   UNK N   1      23.929  14.849   3.941  0.00  0.00     0.136 C 
HETATM   13  C   UNK N   1      22.011  16.361   4.413  0.00  0.00     0.137 C 
HETATM   14  C   UNK N   1      26.403  18.494   4.898  0.00  0.00     0.182 C 
HETATM   15  C   UNK N   1      28.216  16.603   4.960  0.00  0.00     0.170 C 
HETATM   16  C   UNK N   1      24.429  19.124   3.451  0.00  0.00     0.307 C 
HETATM   17  C   UNK N   1      19.830  16.200   4.814  0.00  0.00     0.364 C 
HETATM   18  C   UNK N   1      27.535  15.598   3.925  0.00  0.00     0.084 C 
HETATM   19  C   UNK N   1      25.652  19.639   4.205  0.00  0.00     0.246 C 
HETATM   20  C   UNK N   1      21.372  17.777   4.487  0.00  0.00     0.116 C 
HETATM   21  F   UNK N   1      25.228  20.505   5.201  0.00  0.00    -0.224 F 
HETATM   22  N   UNK N   1      20.985  15.569   5.056  0.00  0.00    -0.319 N 
HETATM   23  O   UNK N   1      23.190  13.897   3.828  0.00  0.00    -0.297 OA
HETATM   24  O   UNK N   1      25.822  17.917   5.805  0.00  0.00    -0.293 OA
HETATM   25  O   UNK N   1      24.579  18.459   2.436  0.00  0.00    -0.261 OA
HETATM   26  O   UNK N   1      18.752  15.832   5.248  0.00  0.00    -0.238 OA
HETATM   27  O   UNK N   1      23.179  19.324   3.967  0.00  0.00    -0.310 OA
HETATM   28  O   UNK N   1      20.032  17.425   4.271  0.00  0.00    -0.288 OA
ENDROOT
BRANCH  22  29
HETATM   29  C   UNK N   1      21.168  14.756   6.261  0.00  0.00     0.129 C 
BRANCH  29  30
HETATM   30  C   UNK N   1      20.349  15.158   7.463  0.00  0.00     0.022 C 
BRANCH  30  31
HETATM   31  C   UNK N   1      21.157  15.289   8.775  0.00  0.00     0.023 C 
BRANCH  31  32
HETATM   32  C   UNK N   1      20.847  14.137   9.770  0.00  0.00     0.150 C 
BRANCH  32  33
HETATM   33  N   UNK N   1      21.894  13.134   9.664  0.00  0.00    -0.287 N 
HETATM   34  C   UNK N   1      21.908  12.187   8.709  0.00  0.00     0.143 A 
HETATM   35  C   UNK N   1      23.238  11.888   8.512  0.00  0.00     0.076 A 
HETATM   36  N   UNK N   1      23.979  12.645   9.336  0.00  0.00    -0.284 N 
HETATM   37  N   UNK N   1      23.139  13.384  10.032  0.00  0.00    -0.240 N 
ATOM     38  HN  UNK N   1      24.997  12.647   9.410  1.00  0.00     0.188 HD
ATOM     39  HN  UNK N   1      23.410  14.055  10.751  1.00  0.00     0.208 HD
BRANCH  35  40
HETATM   40  C   UNK N   1      23.788  11.067   7.445  0.00  0.00    -0.004 A 
HETATM   41  C   UNK N   1      23.775   9.673   7.576  0.00  0.00     0.014 A 
HETATM   42  C   UNK N   1      24.328   8.870   6.576  0.00  0.00     0.003 A 
HETATM   43  C   UNK N   1      24.841   9.460   5.419  0.00  0.00     0.029 A 
HETATM   44  C   UNK N   1      24.835  10.852   5.279  0.00  0.00     0.026 A 
HETATM   45  C   UNK N   1      24.338  11.657   6.305  0.00  0.00     0.042 A 
BRANCH  44  46
HETATM   46  N   UNK N   1      25.289  11.441   4.084  0.00  0.00    -0.399 N 
HETATM   47  H   UNK N   1      26.026  11.038   3.571  0.00  0.00     0.156 HD
HETATM   48  H   UNK N   1      24.864  12.267   3.758  0.00  0.00     0.156 HD
ENDBRANCH  44  46
ENDBRANCH  35  40
ENDBRANCH  32  33
ENDBRANCH  31  32
ENDBRANCH  30  31
ENDBRANCH  29  30
ENDBRANCH  22  29
BRANCH  11  49
HETATM   49  C   UNK N   1      21.006  19.986   3.210  0.00  0.00     0.031 C 
HETATM   50  C   UNK N   1      20.809  20.306   1.737  0.00  0.00     0.007 C 
ENDBRANCH  11  49
BRANCH  18  51
HETATM   51  O   UNK N   1      27.605  14.256   4.387  0.00  0.00    -0.383 OA
HETATM   52  C   UNK N   1      28.542  13.513   3.632  0.00  0.00     0.202 C 
ENDBRANCH  18  51
BRANCH  15  53
HETATM   53  O   UNK N   1      29.647  16.465   5.086  0.00  0.00    -0.349 OA
BRANCH  53  54
HETATM   54  C   UNK N   1      30.154  16.199   6.394  0.00  0.00     0.291 C 
HETATM   55  C   UNK N   1      31.623  15.756   6.333  0.00  0.00     0.206 C 
HETATM   56  C   UNK N   1      32.029  15.307   7.773  0.00  0.00     0.257 C 
HETATM   57  C   UNK N   1      31.741  16.440   8.769  0.00  0.00     0.070 C 
HETATM   58  C   UNK N   1      30.304  16.933   8.595  0.00  0.00     0.122 C 
HETATM   59  C   UNK N   1      30.080  18.111   9.517  0.00  0.00     0.040 C 
HETATM   60  O   UNK N   1      30.079  17.335   7.247  0.00  0.00    -0.354 OA
BRANCH  55  61
HETATM   61  O   UNK N   1      32.412  16.822   5.888  0.00  0.00    -0.388 OA
HETATM   62  H   UNK N   1      33.054  17.300   5.341  0.00  0.00     0.210 HD
ENDBRANCH  55  61
BRANCH  56  63
HETATM   63  N   UNK N   1      33.419  14.835   7.917  0.00  0.00     0.087 N 
HETATM   64  C   UNK N   1      33.507  13.465   8.408  0.00  0.00     0.310 C 
HETATM   65  C   UNK N   1      34.178  15.696   8.814  0.00  0.00     0.310 C 
ENDBRANCH  56  63
ENDBRANCH  53  54
ENDBRANCH  15  53
TORSDOF 13
ENDMDL
MODEL 6
REMARK VINA RESULT:      -7.0      7.442     10.961
REMARK  13 active torsions:
REMARK  status: ('A' for Active; 'I' for Inactive)
REMARK    1  A    between atoms: C_32  and  C_12 
REMARK    2  A    between atoms: C_14  and  C_13 
REMARK    3  A    between atoms: C_18  and  C_13 
REMARK    4  A    between atoms: C_19  and  C_14 
REMARK    5  A    between atoms: N_51  and  C_18 
REMARK    6  A    between atoms: N_52  and  C_19 
REMARK    7  A    between atoms: C_30  and  C_28 
REMARK    8  A    between atoms: N_45  and  C_29 
REMARK    9  A    between atoms: C_31  and  N_50 
REMARK   10  A    between atoms: C_34  and  O_54 
REMARK   11  A    between atoms: C_37  and  O_61 
REMARK   12  A    between atoms: C_38  and  O_61 
REMARK   13  A    between atoms: C_41  and  O_58 
ROOT
HETATM    1  C   UNK N   1      37.669  13.463   5.425  0.00  0.00     0.018 C 
HETATM    2  C   UNK N   1      33.157  11.970   6.249  0.00  0.00     0.020 C 
HETATM    3  C   UNK N   1      34.308  15.249  11.024  0.00  0.00     0.021 C 
HETATM    4  C   UNK N   1      37.964  13.722   8.944  0.00  0.00     0.049 C 
HETATM    5  C   UNK N   1      34.568  17.476   8.439  0.00  0.00     0.072 C 
HETATM    6  C   UNK N   1      31.391  14.160   4.443  0.00  0.00     0.052 C 
HETATM    7  C   UNK N   1      36.153  13.390   7.419  0.00  0.00     0.052 C 
HETATM    8  C   UNK N   1      36.690  12.621   6.218  0.00  0.00     0.054 C 
HETATM    9  C   UNK N   1      34.148  12.808   5.457  0.00  0.00     0.077 C 
HETATM   10  C   UNK N   1      35.079  14.827   9.781  0.00  0.00     0.087 C 
HETATM   11  C   UNK N   1      33.297  15.797   4.075  0.00  0.00     0.168 C 
HETATM   12  C   UNK N   1      35.534  12.174   5.373  0.00  0.00     0.136 C 
HETATM   13  C   UNK N   1      33.696  13.198   4.046  0.00  0.00     0.137 C 
HETATM   14  C   UNK N   1      34.101  14.976   8.601  0.00  0.00     0.182 C 
HETATM   15  C   UNK N   1      35.647  13.357   9.964  0.00  0.00     0.170 C 
HETATM   16  C   UNK N   1      34.167  16.162   6.370  0.00  0.00     0.307 C 
HETATM   17  C   UNK N   1      32.576  12.787   2.170  0.00  0.00     0.364 C 
HETATM   18  C   UNK N   1      36.653  12.960   8.792  0.00  0.00     0.084 C 
HETATM   19  C   UNK N   1      33.824  16.286   7.852  0.00  0.00     0.246 C 
HETATM   20  C   UNK N   1      32.733  14.377   3.726  0.00  0.00     0.116 C 
HETATM   21  F   UNK N   1      32.468  16.543   7.976  0.00  0.00    -0.224 F 
HETATM   22  N   UNK N   1      33.137  12.159   3.209  0.00  0.00    -0.319 N 
HETATM   23  O   UNK N   1      35.762  11.372   4.495  0.00  0.00    -0.297 OA
HETATM   24  O   UNK N   1      33.413  14.011   8.305  0.00  0.00    -0.293 OA
HETATM   25  O   UNK N   1      35.336  16.081   6.023  0.00  0.00    -0.261 OA
HETATM   26  O   UNK N   1      31.966  12.218   1.280  0.00  0.00    -0.238 OA
HETATM   27  O   UNK N   1      33.163  16.042   5.449  0.00  0.00    -0.310 OA
HETATM   28  O   UNK N   1      32.526  14.128   2.362  0.00  0.00    -0.288 OA
ENDROOT
BRANCH  22  29
HETATM   29  C   UNK N   1      32.627  10.869   3.681  0.00  0.00     0.129 C 
BRANCH  29  30
HETATM   30  C   UNK N   1      33.276   9.642   3.088  0.00  0.00     0.022 C 
BRANCH  30  31
HETATM   31  C   UNK N   1      32.821   8.306   3.721  0.00  0.00     0.023 C 
BRANCH  31  32
HETATM   32  C   UNK N   1      31.291   8.278   3.990  0.00  0.00     0.150 C 
BRANCH  32  33
HETATM   33  N   UNK N   1      31.070   8.226   5.426  0.00  0.00    -0.287 N 
HETATM   34  C   UNK N   1      31.964   7.710   6.287  0.00  0.00     0.143 A 
HETATM   35  C   UNK N   1      31.757   8.380   7.473  0.00  0.00     0.076 A 
HETATM   36  N   UNK N   1      30.763   9.266   7.302  0.00  0.00    -0.284 N 
HETATM   37  N   UNK N   1      30.357   9.145   6.055  0.00  0.00    -0.240 N 
ATOM     38  HN  UNK N   1      30.394   9.909   8.003  1.00  0.00     0.188 HD
ATOM     39  HN  UNK N   1      29.600   9.684   5.633  1.00  0.00     0.208 HD
BRANCH  35  40
HETATM   40  C   UNK N   1      32.603   8.323   8.655  0.00  0.00    -0.004 A 
HETATM   41  C   UNK N   1      32.295   9.129   9.757  0.00  0.00     0.014 A 
HETATM   42  C   UNK N   1      33.113   9.112  10.888  0.00  0.00     0.003 A 
HETATM   43  C   UNK N   1      34.207   8.245  10.938  0.00  0.00     0.029 A 
HETATM   44  C   UNK N   1      34.502   7.423   9.845  0.00  0.00     0.026 A 
HETATM   45  C   UNK N   1      33.719   7.486   8.691  0.00  0.00     0.042 A 
BRANCH  44  46
HETATM   46  N   UNK N   1      35.562   6.501   9.923  0.00  0.00    -0.399 N 
HETATM   47  H   UNK N   1      36.497   6.799   9.852  0.00  0.00     0.156 HD
HETATM   48  H   UNK N   1      35.365   5.545  10.051  0.00  0.00     0.156 HD
ENDBRANCH  44  46
ENDBRANCH  35  40
ENDBRANCH  32  33
ENDBRANCH  31  32
ENDBRANCH  30  31
ENDBRANCH  29  30
ENDBRANCH  22  29
BRANCH  11  49
HETATM   49  C   UNK N   1      32.586  16.913   3.295  0.00  0.00     0.031 C 
HETATM   50  C   UNK N   1      31.783  17.866   4.165  0.00  0.00     0.007 C 
ENDBRANCH  11  49
BRANCH  18  51
HETATM   51  O   UNK N   1      36.930  11.566   8.800  0.00  0.00    -0.383 OA
HETATM   52  C   UNK N   1      35.731  10.815   8.779  0.00  0.00     0.202 C 
ENDBRANCH  18  51
BRANCH  15  53
HETATM   53  O   UNK N   1      36.185  13.225  11.296  0.00  0.00    -0.349 OA
BRANCH  53  54
HETATM   54  C   UNK N   1      35.941  11.989  11.968  0.00  0.00     0.291 C 
HETATM   55  C   UNK N   1      37.259  11.330  12.401  0.00  0.00     0.206 C 
HETATM   56  C   UNK N   1      36.906   9.911  12.949  0.00  0.00     0.257 C 
HETATM   57  C   UNK N   1      35.854  10.031  14.060  0.00  0.00     0.070 C 
HETATM   58  C   UNK N   1      34.677  10.878  13.573  0.00  0.00     0.122 C 
HETATM   59  C   UNK N   1      33.704  11.062  14.718  0.00  0.00     0.040 C 
HETATM   60  O   UNK N   1      35.136  12.152  13.130  0.00  0.00    -0.354 OA
BRANCH  55  61
HETATM   61  O   UNK N   1      37.872  12.118  13.381  0.00  0.00    -0.388 OA
HETATM   62  H   UNK N   1      38.183  12.922  13.826  0.00  0.00     0.210 HD
ENDBRANCH  55  61
BRANCH  56  63
HETATM   63  N   UNK N   1      38.056   9.110  13.413  0.00  0.00     0.087 N 
HETATM   64  C   UNK N   1      38.155   7.817  12.747  0.00  0.00     0.310 C 
HETATM   65  C   UNK N   1      37.996   8.886  14.850  0.00  0.00     0.310 C 
ENDBRANCH  56  63
ENDBRANCH  53  54
ENDBRANCH  15  53
TORSDOF 13
ENDMDL
MODEL 7
REMARK VINA RESULT:      -6.9      2.780      4.929
REMARK  13 active torsions:
REMARK  status: ('A' for Active; 'I' for Inactive)
REMARK    1  A    between atoms: C_32  and  C_12 
REMARK    2  A    between atoms: C_14  and  C_13 
REMARK    3  A    between atoms: C_18  and  C_13 
REMARK    4  A    between atoms: C_19  and  C_14 
REMARK    5  A    between atoms: N_51  and  C_18 
REMARK    6  A    between atoms: N_52  and  C_19 
REMARK    7  A    between atoms: C_30  and  C_28 
REMARK    8  A    between atoms: N_45  and  C_29 
REMARK    9  A    between atoms: C_31  and  N_50 
REMARK   10  A    between atoms: C_34  and  O_54 
REMARK   11  A    between atoms: C_37  and  O_61 
REMARK   12  A    between atoms: C_38  and  O_61 
REMARK   13  A    between atoms: C_41  and  O_58 
ROOT
HETATM    1  C   UNK N   1      31.433  17.192   2.668  0.00  0.00     0.018 C 
HETATM    2  C   UNK N   1      28.662  14.085   5.104  0.00  0.00     0.020 C 
HETATM    3  C   UNK N   1      30.805  17.523   9.401  0.00  0.00     0.021 C 
HETATM    4  C   UNK N   1      33.279  17.520   5.673  0.00  0.00     0.049 C 
HETATM    5  C   UNK N   1      29.035  19.698   7.441  0.00  0.00     0.072 C 
HETATM    6  C   UNK N   1      25.634  15.448   4.715  0.00  0.00     0.052 C 
HETATM    7  C   UNK N   1      31.186  16.532   5.074  0.00  0.00     0.052 C 
HETATM    8  C   UNK N   1      31.299  16.035   3.638  0.00  0.00     0.054 C 
HETATM    9  C   UNK N   1      28.808  15.243   4.130  0.00  0.00     0.077 C 
HETATM   10  C   UNK N   1      30.973  17.435   7.891  0.00  0.00     0.087 C 
HETATM   11  C   UNK N   1      26.462  17.691   3.859  0.00  0.00     0.168 C 
HETATM   12  C   UNK N   1      30.102  15.187   3.323  0.00  0.00     0.136 C 
HETATM   13  C   UNK N   1      27.633  15.442   3.166  0.00  0.00     0.137 C 
HETATM   14  C   UNK N   1      29.563  17.208   7.317  0.00  0.00     0.182 C 
HETATM   15  C   UNK N   1      32.009  16.292   7.523  0.00  0.00     0.170 C 
HETATM   16  C   UNK N   1      28.151  18.344   5.556  0.00  0.00     0.307 C 
HETATM   17  C   UNK N   1      25.958  14.647   1.939  0.00  0.00     0.364 C 
HETATM   18  C   UNK N   1      32.394  16.317   5.976  0.00  0.00     0.084 C 
HETATM   19  C   UNK N   1      28.544  18.319   7.030  0.00  0.00     0.246 C 
HETATM   20  C   UNK N   1      26.307  16.165   3.534  0.00  0.00     0.116 C 
HETATM   21  F   UNK N   1      27.417  18.038   7.787  0.00  0.00    -0.224 F 
HETATM   22  N   UNK N   1      27.121  14.273   2.484  0.00  0.00    -0.319 N 
HETATM   23  O   UNK N   1      30.132  14.538   2.301  0.00  0.00    -0.297 OA
HETATM   24  O   UNK N   1      29.181  16.056   7.179  0.00  0.00    -0.293 OA
HETATM   25  O   UNK N   1      28.960  18.718   4.719  0.00  0.00    -0.261 OA
HETATM   26  O   UNK N   1      25.224  13.895   1.321  0.00  0.00    -0.238 OA
HETATM   27  O   UNK N   1      26.932  17.858   5.169  0.00  0.00    -0.310 OA
HETATM   28  O   UNK N   1      25.566  15.866   2.383  0.00  0.00    -0.288 OA
ENDROOT
BRANCH  22  29
HETATM   29  C   UNK N   1      27.362  12.883   2.879  0.00  0.00     0.129 C 
BRANCH  29  30
HETATM   30  C   UNK N   1      26.404  12.306   3.892  0.00  0.00     0.022 C 
BRANCH  30  31
HETATM   31  C   UNK N   1      25.393  11.289   3.312  0.00  0.00     0.023 C 
BRANCH  31  32
HETATM   32  C   UNK N   1      24.069  11.252   4.124  0.00  0.00     0.150 C 
BRANCH  32  33
HETATM   33  N   UNK N   1      23.040  11.953   3.374  0.00  0.00    -0.287 N 
HETATM   34  C   UNK N   1      22.457  13.083   3.810  0.00  0.00     0.143 A 
HETATM   35  C   UNK N   1      22.087  13.765   2.672  0.00  0.00     0.076 A 
HETATM   36  N   UNK N   1      22.449  13.046   1.598  0.00  0.00    -0.284 N 
HETATM   37  N   UNK N   1      23.015  11.946   2.051  0.00  0.00    -0.240 N 
ATOM     38  HN  UNK N   1      22.310  13.301   0.620  1.00  0.00     0.188 HD
ATOM     39  HN  UNK N   1      23.384  11.196   1.466  1.00  0.00     0.208 HD
BRANCH  35  40
HETATM   40  C   UNK N   1      21.596  15.133   2.608  0.00  0.00    -0.004 A 
HETATM   41  C   UNK N   1      22.139  16.097   3.466  0.00  0.00     0.014 A 
HETATM   42  C   UNK N   1      21.657  17.408   3.441  0.00  0.00     0.003 A 
HETATM   43  C   UNK N   1      20.674  17.767   2.517  0.00  0.00     0.029 A 
HETATM   44  C   UNK N   1      20.147  16.808   1.644  0.00  0.00     0.026 A 
HETATM   45  C   UNK N   1      20.585  15.485   1.712  0.00  0.00     0.042 A 
BRANCH  44  46
HETATM   46  N   UNK N   1      19.207  17.186   0.668  0.00  0.00    -0.399 N 
HETATM   47  H   UNK N   1      18.246  17.013   0.797  0.00  0.00     0.156 HD
HETATM   48  H   UNK N   1      19.514  17.630  -0.156  0.00  0.00     0.156 HD
ENDBRANCH  44  46
ENDBRANCH  35  40
ENDBRANCH  32  33
ENDBRANCH  31  32
ENDBRANCH  30  31
ENDBRANCH  29  30
ENDBRANCH  22  29
BRANCH  11  49
HETATM   49  C   UNK N   1      25.140  18.457   3.700  0.00  0.00     0.031 C 
HETATM   50  C   UNK N   1      25.301  19.870   3.161  0.00  0.00     0.007 C 
ENDBRANCH  11  49
BRANCH  18  51
HETATM   51  O   UNK N   1      33.085  15.133   5.596  0.00  0.00    -0.383 OA
HETATM   52  C   UNK N   1      34.427  15.422   5.257  0.00  0.00     0.202 C 
ENDBRANCH  18  51
BRANCH  15  53
HETATM   53  O   UNK N   1      33.131  16.366   8.428  0.00  0.00    -0.349 OA
BRANCH  53  54
HETATM   54  C   UNK N   1      33.784  15.136   8.743  0.00  0.00     0.291 C 
HETATM   55  C   UNK N   1      34.055  15.030  10.251  0.00  0.00     0.206 C 
HETATM   56  C   UNK N   1      34.931  13.757  10.474  0.00  0.00     0.257 C 
HETATM   57  C   UNK N   1      34.235  12.534   9.860  0.00  0.00     0.070 C 
HETATM   58  C   UNK N   1      33.835  12.835   8.415  0.00  0.00     0.122 C 
HETATM   59  C   UNK N   1      33.065  11.652   7.868  0.00  0.00     0.040 C 
HETATM   60  O   UNK N   1      33.017  14.000   8.360  0.00  0.00    -0.354 OA
BRANCH  55  61
HETATM   61  O   UNK N   1      32.838  14.939  10.937  0.00  0.00    -0.388 OA
HETATM   62  H   UNK N   1      32.205  15.036  11.665  0.00  0.00     0.210 HD
ENDBRANCH  55  61
BRANCH  56  63
HETATM   63  N   UNK N   1      35.306  13.486  11.875  0.00  0.00     0.087 N 
HETATM   64  C   UNK N   1      35.975  14.613  12.513  0.00  0.00     0.310 C 
HETATM   65  C   UNK N   1      36.173  12.320  11.973  0.00  0.00     0.310 C 
ENDBRANCH  56  63
ENDBRANCH  53  54
ENDBRANCH  15  53
TORSDOF 13
ENDMDL
MODEL 8
REMARK VINA RESULT:      -6.9      5.245      9.502
REMARK  13 active torsions:
REMARK  status: ('A' for Active; 'I' for Inactive)
REMARK    1  A    between atoms: C_32  and  C_12 
REMARK    2  A    between atoms: C_14  and  C_13 
REMARK    3  A    between atoms: C_18  and  C_13 
REMARK    4  A    between atoms: C_19  and  C_14 
REMARK    5  A    between atoms: N_51  and  C_18 
REMARK    6  A    between atoms: N_52  and  C_19 
REMARK    7  A    between atoms: C_30  and  C_28 
REMARK    8  A    between atoms: N_45  and  C_29 
REMARK    9  A    between atoms: C_31  and  N_50 
REMARK   10  A    between atoms: C_34  and  O_54 
REMARK   11  A    between atoms: C_37  and  O_61 
REMARK   12  A    between atoms: C_38  and  O_61 
REMARK   13  A    between atoms: C_41  and  O_58 
ROOT
HETATM    1  C   UNK N   1      37.626  13.629   5.261  0.00  0.00     0.018 C 
HETATM    2  C   UNK N   1      33.170  12.024   6.174  0.00  0.00     0.020 C 
HETATM    3  C   UNK N   1      34.388  15.217  10.991  0.00  0.00     0.021 C 
HETATM    4  C   UNK N   1      38.014  13.814   8.776  0.00  0.00     0.049 C 
HETATM    5  C   UNK N   1      34.531  17.507   8.453  0.00  0.00     0.072 C 
HETATM    6  C   UNK N   1      31.310  14.218   4.469  0.00  0.00     0.052 C 
HETATM    7  C   UNK N   1      36.168  13.479   7.295  0.00  0.00     0.052 C 
HETATM    8  C   UNK N   1      36.687  12.749   6.061  0.00  0.00     0.054 C 
HETATM    9  C   UNK N   1      34.121  12.901   5.375  0.00  0.00     0.077 C 
HETATM   10  C   UNK N   1      35.132  14.839   9.718  0.00  0.00     0.087 C 
HETATM   11  C   UNK N   1      33.172  15.902   4.088  0.00  0.00     0.168 C 
HETATM   12  C   UNK N   1      35.516  12.298   5.238  0.00  0.00     0.136 C 
HETATM   13  C   UNK N   1      33.622  13.314   3.987  0.00  0.00     0.137 C 
HETATM   14  C   UNK N   1      34.119  14.995   8.569  0.00  0.00     0.182 C 
HETATM   15  C   UNK N   1      35.734  13.378   9.850  0.00  0.00     0.170 C 
HETATM   16  C   UNK N   1      34.098  16.233   6.366  0.00  0.00     0.307 C 
HETATM   17  C   UNK N   1      32.458  12.923   2.133  0.00  0.00     0.364 C 
HETATM   18  C   UNK N   1      36.715  13.029   8.643  0.00  0.00     0.084 C 
HETATM   19  C   UNK N   1      33.795  16.316   7.859  0.00  0.00     0.246 C 
HETATM   20  C   UNK N   1      32.627  14.479   3.721  0.00  0.00     0.116 C 
HETATM   21  F   UNK N   1      32.438  16.542   8.026  0.00  0.00    -0.224 F 
HETATM   22  N   UNK N   1      33.060  12.282   3.142  0.00  0.00    -0.319 N 
HETATM   23  O   UNK N   1      35.736  11.521   4.336  0.00  0.00    -0.297 OA
HETATM   24  O   UNK N   1      33.442  14.023   8.270  0.00  0.00    -0.293 OA
HETATM   25  O   UNK N   1      35.259  16.184   5.984  0.00  0.00    -0.261 OA
HETATM   26  O   UNK N   1      31.835  12.362   1.248  0.00  0.00    -0.238 OA
HETATM   27  O   UNK N   1      33.072  16.114   5.470  0.00  0.00    -0.310 OA
HETATM   28  O   UNK N   1      32.387  14.257   2.358  0.00  0.00    -0.288 OA
ENDROOT
BRANCH  22  29
HETATM   29  C   UNK N   1      32.590  10.972   3.597  0.00  0.00     0.129 C 
BRANCH  29  30
HETATM   30  C   UNK N   1      31.120  10.871   3.923  0.00  0.00     0.022 C 
BRANCH  30  31
HETATM   31  C   UNK N   1      30.300  10.015   2.929  0.00  0.00     0.023 C 
BRANCH  31  32
HETATM   32  C   UNK N   1      28.772  10.119   3.190  0.00  0.00     0.150 C 
BRANCH  32  33
HETATM   33  N   UNK N   1      28.313  11.432   2.766  0.00  0.00    -0.287 N 
HETATM   34  C   UNK N   1      27.742  12.314   3.605  0.00  0.00     0.143 A 
HETATM   35  C   UNK N   1      28.038  13.555   3.085  0.00  0.00     0.076 A 
HETATM   36  N   UNK N   1      28.766  13.395   1.968  0.00  0.00    -0.284 N 
HETATM   37  N   UNK N   1      28.910  12.098   1.791  0.00  0.00    -0.240 N 
ATOM     38  HN  UNK N   1      29.136  14.135   1.371  1.00  0.00     0.188 HD
ATOM     39  HN  UNK N   1      29.411  11.667   1.014  1.00  0.00     0.208 HD
BRANCH  35  40
HETATM   40  C   UNK N   1      27.812  14.838   3.733  0.00  0.00    -0.004 A 
HETATM   41  C   UNK N   1      28.041  16.018   3.014  0.00  0.00     0.014 A 
HETATM   42  C   UNK N   1      27.861  17.258   3.629  0.00  0.00     0.003 A 
HETATM   43  C   UNK N   1      27.396  17.318   4.945  0.00  0.00     0.029 A 
HETATM   44  C   UNK N   1      27.147  16.138   5.656  0.00  0.00     0.026 A 
HETATM   45  C   UNK N   1      27.386  14.899   5.061  0.00  0.00     0.042 A 
BRANCH  44  46
HETATM   46  N   UNK N   1      26.614  16.200   6.956  0.00  0.00    -0.399 N 
HETATM   47  H   UNK N   1      25.668  15.985   7.125  0.00  0.00     0.156 HD
HETATM   48  H   UNK N   1      27.194  16.461   7.707  0.00  0.00     0.156 HD
ENDBRANCH  44  46
ENDBRANCH  35  40
ENDBRANCH  32  33
ENDBRANCH  31  32
ENDBRANCH  30  31
ENDBRANCH  29  30
ENDBRANCH  22  29
BRANCH  11  49
HETATM   49  C   UNK N   1      32.418  17.021   3.353  0.00  0.00     0.031 C 
HETATM   50  C   UNK N   1      31.441  17.791   4.228  0.00  0.00     0.007 C 
ENDBRANCH  11  49
BRANCH  18  51
HETATM   51  O   UNK N   1      37.020  11.641   8.610  0.00  0.00    -0.383 OA
HETATM   52  C   UNK N   1      38.367  11.413   8.976  0.00  0.00     0.202 C 
ENDBRANCH  18  51
BRANCH  15  53
HETATM   53  O   UNK N   1      36.312  13.227  11.164  0.00  0.00    -0.349 OA
BRANCH  53  54
HETATM   54  C   UNK N   1      36.010  12.019  11.864  0.00  0.00     0.291 C 
HETATM   55  C   UNK N   1      35.933  12.267  13.378  0.00  0.00     0.206 C 
HETATM   56  C   UNK N   1      35.790  10.872  14.066  0.00  0.00     0.257 C 
HETATM   57  C   UNK N   1      34.586  10.125  13.477  0.00  0.00     0.070 C 
HETATM   58  C   UNK N   1      34.674  10.118  11.950  0.00  0.00     0.122 C 
HETATM   59  C   UNK N   1      33.427   9.463  11.394  0.00  0.00     0.040 C 
HETATM   60  O   UNK N   1      34.771  11.450  11.455  0.00  0.00    -0.354 OA
BRANCH  55  61
HETATM   61  O   UNK N   1      34.838  13.090  13.659  0.00  0.00    -0.388 OA
HETATM   62  H   UNK N   1      33.973  13.513  13.535  0.00  0.00     0.210 HD
ENDBRANCH  55  61
BRANCH  56  63
HETATM   63  N   UNK N   1      35.708  10.902  15.539  0.00  0.00     0.087 N 
HETATM   64  C   UNK N   1      36.819  10.215  16.185  0.00  0.00     0.310 C 
HETATM   65  C   UNK N   1      34.464  10.310  16.009  0.00  0.00     0.310 C 
ENDBRANCH  56  63
ENDBRANCH  53  54
ENDBRANCH  15  53
TORSDOF 13
ENDMDL
MODEL 9
REMARK VINA RESULT:      -6.8      4.641      8.889
REMARK  13 active torsions:
REMARK  status: ('A' for Active; 'I' for Inactive)
REMARK    1  A    between atoms: C_32  and  C_12 
REMARK    2  A    between atoms: C_14  and  C_13 
REMARK    3  A    between atoms: C_18  and  C_13 
REMARK    4  A    between atoms: C_19  and  C_14 
REMARK    5  A    between atoms: N_51  and  C_18 
REMARK    6  A    between atoms: N_52  and  C_19 
REMARK    7  A    between atoms: C_30  and  C_28 
REMARK    8  A    between atoms: N_45  and  C_29 
REMARK    9  A    between atoms: C_31  and  N_50 
REMARK   10  A    between atoms: C_34  and  O_54 
REMARK   11  A    between atoms: C_37  and  O_61 
REMARK   12  A    between atoms: C_38  and  O_61 
REMARK   13  A    between atoms: C_41  and  O_58 
ROOT
HETATM    1  C   UNK N   1      32.240   8.873   4.813  0.00  0.00     0.018 C 
HETATM    2  C   UNK N   1      30.233  13.258   4.944  0.00  0.00     0.020 C 
HETATM    3  C   UNK N   1      35.996  14.480   5.347  0.00  0.00     0.021 C 
HETATM    4  C   UNK N   1      34.929  10.321   6.605  0.00  0.00     0.049 C 
HETATM    5  C   UNK N   1      35.715  12.931   2.310  0.00  0.00     0.072 C 
HETATM    6  C   UNK N   1      29.730  13.857   1.694  0.00  0.00     0.052 C 
HETATM    7  C   UNK N   1      33.016  11.170   5.450  0.00  0.00     0.052 C 
HETATM    8  C   UNK N   1      31.901  10.139   5.575  0.00  0.00     0.054 C 
HETATM    9  C   UNK N   1      30.574  11.983   4.190  0.00  0.00     0.077 C 
HETATM   10  C   UNK N   1      35.155  13.215   5.257  0.00  0.00     0.087 C 
HETATM   11  C   UNK N   1      31.198  11.965   0.846  0.00  0.00     0.168 C 
HETATM   12  C   UNK N   1      30.619  10.750   5.089  0.00  0.00     0.136 C 
HETATM   13  C   UNK N   1      29.687  11.679   2.979  0.00  0.00     0.137 C 
HETATM   14  C   UNK N   1      34.084  13.490   4.186  0.00  0.00     0.182 C 
HETATM   15  C   UNK N   1      34.562  12.851   6.682  0.00  0.00     0.170 C 
HETATM   16  C   UNK N   1      33.320  12.312   2.084  0.00  0.00     0.307 C 
HETATM   17  C   UNK N   1      27.732  11.756   1.921  0.00  0.00     0.364 C 
HETATM   18  C   UNK N   1      33.871  11.414   6.687  0.00  0.00     0.084 C 
HETATM   19  C   UNK N   1      34.293  13.329   2.674  0.00  0.00     0.246 C 
HETATM   20  C   UNK N   1      29.859  12.330   1.577  0.00  0.00     0.116 C 
HETATM   21  F   UNK N   1      34.049  14.565   2.098  0.00  0.00    -0.224 F 
HETATM   22  N   UNK N   1      28.255  11.791   3.152  0.00  0.00    -0.319 N 
HETATM   23  O   UNK N   1      29.594  10.147   5.313  0.00  0.00    -0.297 OA
HETATM   24  O   UNK N   1      33.024  13.975   4.550  0.00  0.00    -0.293 OA
HETATM   25  O   UNK N   1      33.454  11.125   2.341  0.00  0.00    -0.261 OA
HETATM   26  O   UNK N   1      26.542  11.872   1.684  0.00  0.00    -0.238 OA
HETATM   27  O   UNK N   1      32.248  12.744   1.352  0.00  0.00    -0.310 OA
HETATM   28  O   UNK N   1      28.690  11.854   0.968  0.00  0.00    -0.288 OA
ENDROOT
BRANCH  22  29
HETATM   29  C   UNK N   1      27.583  12.503   4.242  0.00  0.00     0.129 C 
BRANCH  29  30
HETATM   30  C   UNK N   1      26.809  13.738   3.849  0.00  0.00     0.022 C 
BRANCH  30  31
HETATM   31  C   UNK N   1      26.800  14.856   4.917  0.00  0.00     0.023 C 
BRANCH  31  32
HETATM   32  C   UNK N   1      26.542  16.256   4.295  0.00  0.00     0.150 C 
BRANCH  32  33
HETATM   33  N   UNK N   1      27.801  16.981   4.234  0.00  0.00    -0.287 N 
HETATM   34  C   UNK N   1      28.601  17.151   5.301  0.00  0.00     0.143 A 
HETATM   35  C   UNK N   1      29.875  17.259   4.788  0.00  0.00     0.076 A 
HETATM   36  N   UNK N   1      29.814  17.154   3.451  0.00  0.00    -0.284 N 
HETATM   37  N   UNK N   1      28.543  16.996   3.140  0.00  0.00    -0.240 N 
ATOM     38  HN  UNK N   1      30.600  17.190   2.801  1.00  0.00     0.188 HD
ATOM     39  HN  UNK N   1      28.183  16.899   2.190  1.00  0.00     0.208 HD
BRANCH  35  40
HETATM   40  C   UNK N   1      31.114  17.257   5.549  0.00  0.00    -0.004 A 
HETATM   41  C   UNK N   1      32.337  17.321   4.868  0.00  0.00     0.014 A 
HETATM   42  C   UNK N   1      33.537  17.287   5.579  0.00  0.00     0.003 A 
HETATM   43  C   UNK N   1      33.514  17.249   6.975  0.00  0.00     0.029 A 
HETATM   44  C   UNK N   1      32.292  17.208   7.656  0.00  0.00     0.026 A 
HETATM   45  C   UNK N   1      31.094  17.179   6.942  0.00  0.00     0.042 A 
BRANCH  44  46
HETATM   46  N   UNK N   1      32.269  17.239   9.063  0.00  0.00    -0.399 N 
HETATM   47  H   UNK N   1      31.570  16.765   9.568  0.00  0.00     0.156 HD
HETATM   48  H   UNK N   1      32.962  17.743   9.548  0.00  0.00     0.156 HD
ENDBRANCH  44  46
ENDBRANCH  35  40
ENDBRANCH  32  33
ENDBRANCH  31  32
ENDBRANCH  30  31
ENDBRANCH  29  30
ENDBRANCH  22  29
BRANCH  11  49
HETATM   49  C   UNK N   1      31.106  12.173  -0.673  0.00  0.00     0.031 C 
HETATM   50  C   UNK N   1      31.114  10.884  -1.479  0.00  0.00     0.007 C 
ENDBRANCH  11  49
BRANCH  18  51
HETATM   51  O   UNK N   1      33.098  11.217   7.864  0.00  0.00    -0.383 OA
HETATM   52  C   UNK N   1      33.584  10.114   8.605  0.00  0.00     0.202 C 
ENDBRANCH  18  51
BRANCH  15  53
HETATM   53  O   UNK N   1      35.589  13.033   7.678  0.00  0.00    -0.349 OA
BRANCH  53  54
HETATM   54  C   UNK N   1      35.167  13.510   8.956  0.00  0.00     0.291 C 
HETATM   55  C   UNK N   1      35.685  12.599  10.079  0.00  0.00     0.206 C 
HETATM   56  C   UNK N   1      35.022  13.083  11.408  0.00  0.00     0.257 C 
HETATM   57  C   UNK N   1      35.304  14.578  11.613  0.00  0.00     0.070 C 
HETATM   58  C   UNK N   1      34.931  15.356  10.351  0.00  0.00     0.122 C 
HETATM   59  C   UNK N   1      35.311  16.808  10.544  0.00  0.00     0.040 C 
HETATM   60  O   UNK N   1      35.626  14.830   9.223  0.00  0.00    -0.354 OA
BRANCH  55  61
HETATM   61  O   UNK N   1      37.080  12.687  10.143  0.00  0.00    -0.388 OA
HETATM   62  H   UNK N   1      37.976  12.974   9.906  0.00  0.00     0.210 HD
ENDBRANCH  55  61
BRANCH  56  63
HETATM   63  N   UNK N   1      35.395  12.318  12.614  0.00  0.00     0.087 N 
HETATM   64  C   UNK N   1      34.515  11.183  12.863  0.00  0.00     0.310 C 
HETATM   65  C   UNK N   1      35.399  13.167  13.796  0.00  0.00     0.310 C 
ENDBRANCH  56  63
ENDBRANCH  53  54
ENDBRANCH  15  53
TORSDOF 13
ENDMDL
