REMARK  8 active torsions:
REMARK  status: ('A' for Active; 'I' for Inactive)
REMARK    1  A    between atoms: C_2  and  C_16 
REMARK    2  A    between atoms: C_4  and  O_15 
REMARK    3  A    between atoms: C_5  and  O_23 
REMARK    4  A    between atoms: C_9  and  C_6 
REMARK    5  A    between atoms: C_8  and  C_7 
REMARK    6  A    between atoms: C_16  and  C_17 
REMARK    7  A    between atoms: C_17  and  C_18 
REMARK    8  A    between atoms: C_18  and  C_19 
ROOT
HETATM    1  C   UNK N   1       0.076  -2.383  -0.030  0.00  0.00     0.044 A 
HETATM    2  C   UNK N   1       1.047  -1.643   0.641  0.00  0.00    -0.053 A 
HETATM    3  C   UNK N   1       0.809  -0.307   0.945  0.00  0.00     0.044 A 
HETATM    4  C   UNK N   1      -0.396   0.304   0.584  0.00  0.00     0.075 A 
HETATM    5  C   UNK N   1      -1.131  -1.794  -0.413  0.00  0.00     0.075 A 
HETATM    6  C   UNK N   1      -1.399  -0.436  -0.110  0.00  0.00     0.017 A 
ENDROOT
BRANCH   6   7
HETATM    7  C   UNK N   1      -2.727   0.196  -0.558  0.00  0.00     0.055 C 
HETATM    8  C   UNK N   1      -2.648   1.702  -0.758  0.00  0.00    -0.014 C 
HETATM    9  C   UNK N   1      -3.525   2.565  -0.220  0.00  0.00    -0.087 C 
HETATM   10  C   UNK N   1      -4.676   2.092   0.617  0.00  0.00     0.034 C 
HETATM   11  C   UNK N   1      -3.349   4.025  -0.449  0.00  0.00     0.043 C 
HETATM   12  C   UNK N   1      -5.124   0.713   0.170  0.00  0.00     0.014 C 
HETATM   13  C   UNK N   1      -3.952  -0.260   0.289  0.00  0.00     0.026 C 
BRANCH  13  14
HETATM   14  C   UNK N   1      -4.440  -1.636  -0.069  0.00  0.00    -0.088 C 
HETATM   15  C   UNK N   1      -4.917  -1.903  -1.289  0.00  0.00     0.014 C 
HETATM   16  C   UNK N   1      -4.450  -2.705   0.968  0.00  0.00     0.043 C 
ENDBRANCH  13  14
ENDBRANCH   6   7
BRANCH   4  17
HETATM   17  O   UNK N   1      -0.571   1.596   0.911  0.00  0.00    -0.360 OA
HETATM   18  H   UNK N   1       0.148   2.152   1.139  0.00  0.00     0.217 HD
ENDBRANCH   4  17
BRANCH   5  19
HETATM   19  O   UNK N   1      -2.013  -2.539  -1.094  0.00  0.00    -0.360 OA
HETATM   20  H   UNK N   1      -2.772  -2.266  -1.570  0.00  0.00     0.217 HD
ENDBRANCH   5  19
BRANCH   2  21
HETATM   21  C   UNK N   1       2.348  -2.267   1.021  0.00  0.00     0.039 C 
BRANCH  21  22
HETATM   22  C   UNK N   1       3.069  -2.787  -0.215  0.00  0.00     0.005 C 
BRANCH  22  23
HETATM   23  C   UNK N   1       4.570  -2.721  -0.022  0.00  0.00    -0.000 C 
BRANCH  23  24
HETATM   24  C   UNK N   1       5.056  -1.310  -0.290  0.00  0.00    -0.005 C 
HETATM   25  C   UNK N   1       6.548  -1.232  -0.054  0.00  0.00     0.005 C 
ENDBRANCH  23  24
ENDBRANCH  22  23
ENDBRANCH  21  22
ENDBRANCH   2  21
TORSDOF 8
