REMARK  6 active torsions:
REMARK  status: ('A' for Active; 'I' for Inactive)
REMARK    1  A    between atoms: C_7  and  O_3 
REMARK    2  A    between atoms: O_4  and  C_15 
REMARK    3  A    between atoms: C_7  and  C_8 
REMARK    4  A    between atoms: C_7  and  C_9 
REMARK    5  A    between atoms: C_7  and  C_10 
REMARK    6  A    between atoms: C_10  and  C_11 
ROOT
HETATM    1  C   UNK N   1       0.661   0.502  -0.030  0.00  0.00     0.093 C 
ENDROOT
BRANCH   1   2
HETATM    2  O   UNK N   1       0.369   0.578   1.337  0.00  0.00    -0.386 OA
HETATM    3  H   UNK N   1       0.313   0.780   2.285  0.00  0.00     0.210 HD
ENDBRANCH   1   2
BRANCH   1   4
HETATM    4  C   UNK N   1       1.776   1.550  -0.352  0.00  0.00     0.173 C 
HETATM    5  O   UNK N   1       1.264   2.871  -0.147  0.00  0.00    -0.380 OA
HETATM    6  C   UNK N   1       2.179   3.757   0.475  0.00  0.00     0.187 C 
HETATM    7  C   UNK N   1       3.590   3.610  -0.100  0.00  0.00     0.140 C 
HETATM    8  N   UNK N   1       4.120   2.254   0.091  0.00  0.00    -0.417 N 
HETATM    9  C   UNK N   1       3.073   1.295   0.456  0.00  0.00     0.149 C 
HETATM   10  H   UNK N   1       5.104   2.007  -0.018  0.00  0.00     0.153 HD
ENDBRANCH   1   4
BRANCH   1  11
HETATM   11  C   UNK N   1       1.077  -0.965  -0.416  0.00  0.00     0.027 C 
HETATM   12  C   UNK N   1       0.118  -2.030   0.128  0.00  0.00     0.034 C 
HETATM   13  C   UNK N   1       0.558  -3.412  -0.352  0.00  0.00     0.168 C 
HETATM   14  O   UNK N   1       1.836  -3.698   0.158  0.00  0.00    -0.391 OA
HETATM   15  C   UNK N   1       2.730  -2.835  -0.499  0.00  0.00     0.168 C 
HETATM   16  C   UNK N   1       2.495  -1.400  -0.022  0.00  0.00     0.034 C 
ENDBRANCH   1  11
BRANCH   1  17
HETATM   17  C   UNK N   1      -0.583   0.945  -0.860  0.00  0.00     0.082 C 
BRANCH  17  18
HETATM   18  C   UNK N   1      -1.966   0.532  -0.406  0.00  0.00    -0.019 A 
HETATM   19  C   UNK N   1      -2.948   1.472   0.040  0.00  0.00     0.074 A 
HETATM   20  C   UNK N   1      -4.202   0.995   0.447  0.00  0.00     0.040 A 
HETATM   21  C   UNK N   1      -4.507  -0.365   0.409  0.00  0.00     0.045 A 
HETATM   22  C   UNK N   1      -3.560  -1.273  -0.054  0.00  0.00     0.117 A 
HETATM   23  F   UNK N   1      -3.846  -2.596  -0.095  0.00  0.00    -0.206 F 
HETATM   24  C   UNK N   1      -2.311  -0.821  -0.463  0.00  0.00     0.052 A 
BRANCH  19  25
HETATM   25  O   UNK N   1      -2.758   2.817   0.097  0.00  0.00    -0.355 OA
HETATM   26  C   UNK N   1      -1.661   3.507  -0.357  0.00  0.00     0.210 C 
ENDBRANCH  19  25
ENDBRANCH  17  18
ENDBRANCH   1  17
TORSDOF 6
