MODEL 1
REMARK VINA RESULT:      -5.2      0.000      0.000
REMARK  10 active torsions:
REMARK  status: ('A' for Active; 'I' for Inactive)
REMARK    1  A    between atoms: C_5  and  C_4 
REMARK    2  A    between atoms: C_16  and  C_5 
REMARK    3  A    between atoms: C_17  and  C_15 
REMARK    4  A    between atoms: N_22  and  C_15 
REMARK    5  A    between atoms: S_23  and  C_16 
REMARK    6  A    between atoms: S_24  and  C_17 
REMARK    7  A    between atoms: C_21  and  C_18 
REMARK    8  A    between atoms: C_21  and  C_19 
REMARK    9  A    between atoms: S_23  and  C_20 
REMARK   10  A    between atoms: S_24  and  C_21 
ROOT
HETATM    1  C   UNK N   1      28.691  17.338   4.190  0.00  0.00     0.113 C 
ENDROOT
BRANCH   1   2
HETATM    2  C   UNK N   1      28.214  18.579   4.923  0.00  0.00    -0.040 A 
HETATM    3  C   UNK N   1      28.239  18.602   6.324  0.00  0.00     0.009 A 
HETATM    4  C   UNK N   1      27.739  19.703   7.028  0.00  0.00     0.001 A 
HETATM    5  C   UNK N   1      27.194  20.785   6.333  0.00  0.00     0.000 A 
HETATM    6  C   UNK N   1      27.147  20.767   4.938  0.00  0.00     0.001 A 
HETATM    7  C   UNK N   1      27.649  19.668   4.234  0.00  0.00     0.009 A 
ENDBRANCH   1   2
BRANCH   1   8
HETATM    8  C   UNK N   1      30.053  16.859   4.595  0.00  0.00    -0.040 A 
HETATM    9  C   UNK N   1      31.206  17.632   4.362  0.00  0.00     0.010 A 
HETATM   10  C   UNK N   1      32.453  17.179   4.797  0.00  0.00     0.019 A 
HETATM   11  C   UNK N   1      32.564  15.952   5.463  0.00  0.00     0.000 A 
HETATM   12  C   UNK N   1      31.418  15.181   5.690  0.00  0.00     0.019 A 
HETATM   13  C   UNK N   1      30.172  15.634   5.260  0.00  0.00     0.010 A 
BRANCH  11  14
HETATM   14  S   UNK N   1      34.154  15.398   6.066  0.00  0.00    -0.130 SA
BRANCH  14  15
HETATM   15  C   UNK N   1      34.412  16.866   7.103  0.00  0.00     0.079 C 
BRANCH  15  16
HETATM   16  C   UNK N   1      33.488  16.802   8.307  0.00  0.00     0.010 C 
BRANCH  16  17
HETATM   17  C   UNK N   1      32.682  18.082   8.426  0.00  0.00    -0.004 C 
HETATM   18  C   UNK N   1      31.198  17.773   8.394  0.00  0.00     0.005 C 
ENDBRANCH  16  17
ENDBRANCH  15  16
ENDBRANCH  14  15
ENDBRANCH  11  14
ENDBRANCH   1   8
BRANCH   1  19
HETATM   19  S   UNK N   1      27.543  15.887   4.120  0.00  0.00    -0.153 SA
BRANCH  19  20
HETATM   20  C   UNK N   1      26.284  16.453   2.939  0.00  0.00     0.105 C 
BRANCH  20  21
HETATM   21  C   UNK N   1      24.905  16.276   3.578  0.00  0.00     0.281 C 
BRANCH  21  22
HETATM   22  N   UNK N   1      24.781  16.892   4.902  0.00  0.00     0.080 N 
HETATM   23  C   UNK N   1      24.262  18.247   4.784  0.00  0.00     0.309 C 
HETATM   24  C   UNK N   1      23.881  16.116   5.740  0.00  0.00     0.309 C 
ENDBRANCH  21  22
ENDBRANCH  20  21
ENDBRANCH  19  20
ENDBRANCH   1  19
TORSDOF 10
ENDMDL
MODEL 2
REMARK VINA RESULT:      -5.1     11.103     14.192
REMARK  10 active torsions:
REMARK  status: ('A' for Active; 'I' for Inactive)
REMARK    1  A    between atoms: C_5  and  C_4 
REMARK    2  A    between atoms: C_16  and  C_5 
REMARK    3  A    between atoms: C_17  and  C_15 
REMARK    4  A    between atoms: N_22  and  C_15 
REMARK    5  A    between atoms: S_23  and  C_16 
REMARK    6  A    between atoms: S_24  and  C_17 
REMARK    7  A    between atoms: C_21  and  C_18 
REMARK    8  A    between atoms: C_21  and  C_19 
REMARK    9  A    between atoms: S_23  and  C_20 
REMARK   10  A    between atoms: S_24  and  C_21 
ROOT
HETATM    1  C   UNK N   1      29.892  22.818  -4.936  0.00  0.00     0.113 C 
ENDROOT
BRANCH   1   2
HETATM    2  C   UNK N   1      29.382  21.887  -6.023  0.00  0.00    -0.040 A 
HETATM    3  C   UNK N   1      30.048  20.677  -6.260  0.00  0.00     0.009 A 
HETATM    4  C   UNK N   1      29.646  19.835  -7.302  0.00  0.00     0.001 A 
HETATM    5  C   UNK N   1      28.582  20.207  -8.127  0.00  0.00     0.000 A 
HETATM    6  C   UNK N   1      27.922  21.418  -7.913  0.00  0.00     0.001 A 
HETATM    7  C   UNK N   1      28.322  22.259  -6.870  0.00  0.00     0.009 A 
ENDBRANCH   1   2
BRANCH   1   8
HETATM    8  C   UNK N   1      28.949  23.926  -4.572  0.00  0.00    -0.040 A 
HETATM    9  C   UNK N   1      27.815  23.698  -3.771  0.00  0.00     0.010 A 
HETATM   10  C   UNK N   1      26.986  24.761  -3.409  0.00  0.00     0.019 A 
HETATM   11  C   UNK N   1      27.276  26.061  -3.847  0.00  0.00     0.000 A 
HETATM   12  C   UNK N   1      28.401  26.287  -4.648  0.00  0.00     0.019 A 
HETATM   13  C   UNK N   1      29.232  25.226  -5.006  0.00  0.00     0.010 A 
BRANCH  11  14
HETATM   14  S   UNK N   1      26.244  27.430  -3.340  0.00  0.00    -0.130 SA
BRANCH  14  15
HETATM   15  C   UNK N   1      25.898  27.961  -5.042  0.00  0.00     0.079 C 
BRANCH  15  16
HETATM   16  C   UNK N   1      24.991  26.944  -5.713  0.00  0.00     0.010 C 
BRANCH  16  17
HETATM   17  C   UNK N   1      25.579  26.504  -7.040  0.00  0.00    -0.004 C 
HETATM   18  C   UNK N   1      25.785  25.002  -7.052  0.00  0.00     0.005 C 
ENDBRANCH  16  17
ENDBRANCH  15  16
ENDBRANCH  14  15
ENDBRANCH  11  14
ENDBRANCH   1   8
BRANCH   1  19
HETATM   19  S   UNK N   1      30.540  22.050  -3.382  0.00  0.00    -0.153 SA
BRANCH  19  20
HETATM   20  C   UNK N   1      32.333  22.297  -3.554  0.00  0.00     0.105 C 
BRANCH  20  21
HETATM   21  C   UNK N   1      33.041  21.000  -3.156  0.00  0.00     0.281 C 
BRANCH  21  22
HETATM   22  N   UNK N   1      34.045  20.551  -4.126  0.00  0.00     0.080 N 
HETATM   23  C   UNK N   1      34.126  19.098  -4.135  0.00  0.00     0.309 C 
HETATM   24  C   UNK N   1      33.700  21.011  -5.462  0.00  0.00     0.309 C 
ENDBRANCH  21  22
ENDBRANCH  20  21
ENDBRANCH  19  20
ENDBRANCH   1  19
TORSDOF 10
ENDMDL
MODEL 3
REMARK VINA RESULT:      -5.0      4.035      6.617
REMARK  10 active torsions:
REMARK  status: ('A' for Active; 'I' for Inactive)
REMARK    1  A    between atoms: C_5  and  C_4 
REMARK    2  A    between atoms: C_16  and  C_5 
REMARK    3  A    between atoms: C_17  and  C_15 
REMARK    4  A    between atoms: N_22  and  C_15 
REMARK    5  A    between atoms: S_23  and  C_16 
REMARK    6  A    between atoms: S_24  and  C_17 
REMARK    7  A    between atoms: C_21  and  C_18 
REMARK    8  A    between atoms: C_21  and  C_19 
REMARK    9  A    between atoms: S_23  and  C_20 
REMARK   10  A    between atoms: S_24  and  C_21 
ROOT
HETATM    1  C   UNK N   1      31.829  16.786   7.261  0.00  0.00     0.113 C 
ENDROOT
BRANCH   1   2
HETATM    2  C   UNK N   1      30.543  17.377   7.813  0.00  0.00    -0.040 A 
HETATM    3  C   UNK N   1      30.594  18.187   8.955  0.00  0.00     0.009 A 
HETATM    4  C   UNK N   1      29.419  18.685   9.528  0.00  0.00     0.001 A 
HETATM    5  C   UNK N   1      28.181  18.362   8.970  0.00  0.00     0.000 A 
HETATM    6  C   UNK N   1      28.115  17.542   7.842  0.00  0.00     0.001 A 
HETATM    7  C   UNK N   1      29.289  17.045   7.268  0.00  0.00     0.009 A 
ENDBRANCH   1   2
BRANCH   1   8
HETATM    8  C   UNK N   1      32.856  16.449   8.301  0.00  0.00    -0.040 A 
HETATM    9  C   UNK N   1      33.942  17.302   8.569  0.00  0.00     0.010 A 
HETATM   10  C   UNK N   1      34.852  16.984   9.578  0.00  0.00     0.019 A 
HETATM   11  C   UNK N   1      34.692  15.809  10.326  0.00  0.00     0.000 A 
HETATM   12  C   UNK N   1      33.615  14.958  10.056  0.00  0.00     0.019 A 
HETATM   13  C   UNK N   1      32.703  15.278   9.051  0.00  0.00     0.010 A 
BRANCH  11  14
HETATM   14  S   UNK N   1      35.828  15.428  11.653  0.00  0.00    -0.130 SA
BRANCH  14  15
HETATM   15  C   UNK N   1      35.058  13.824  12.019  0.00  0.00     0.079 C 
BRANCH  15  16
HETATM   16  C   UNK N   1      35.488  13.362  13.401  0.00  0.00     0.010 C 
BRANCH  16  17
HETATM   17  C   UNK N   1      36.456  14.356  14.015  0.00  0.00    -0.004 C 
HETATM   18  C   UNK N   1      36.857  13.909  15.407  0.00  0.00     0.005 C 
ENDBRANCH  16  17
ENDBRANCH  15  16
ENDBRANCH  14  15
ENDBRANCH  11  14
ENDBRANCH   1   8
BRANCH   1  19
HETATM   19  S   UNK N   1      31.685  15.368   6.080  0.00  0.00    -0.153 SA
BRANCH  19  20
HETATM   20  C   UNK N   1      32.673  15.945   4.669  0.00  0.00     0.105 C 
BRANCH  20  21
HETATM   21  C   UNK N   1      34.155  15.779   5.014  0.00  0.00     0.281 C 
BRANCH  21  22
HETATM   22  N   UNK N   1      34.472  14.505   5.667  0.00  0.00     0.080 N 
HETATM   23  C   UNK N   1      34.769  13.486   4.672  0.00  0.00     0.309 C 
HETATM   24  C   UNK N   1      35.625  14.657   6.541  0.00  0.00     0.309 C 
ENDBRANCH  21  22
ENDBRANCH  20  21
ENDBRANCH  19  20
ENDBRANCH   1  19
TORSDOF 10
ENDMDL
MODEL 4
REMARK VINA RESULT:      -5.0     11.914     13.936
REMARK  10 active torsions:
REMARK  status: ('A' for Active; 'I' for Inactive)
REMARK    1  A    between atoms: C_5  and  C_4 
REMARK    2  A    between atoms: C_16  and  C_5 
REMARK    3  A    between atoms: C_17  and  C_15 
REMARK    4  A    between atoms: N_22  and  C_15 
REMARK    5  A    between atoms: S_23  and  C_16 
REMARK    6  A    between atoms: S_24  and  C_17 
REMARK    7  A    between atoms: C_21  and  C_18 
REMARK    8  A    between atoms: C_21  and  C_19 
REMARK    9  A    between atoms: S_23  and  C_20 
REMARK   10  A    between atoms: S_24  and  C_21 
ROOT
HETATM    1  C   UNK N   1      27.137  26.879  -5.934  0.00  0.00     0.113 C 
ENDROOT
BRANCH   1   2
HETATM    2  C   UNK N   1      27.145  28.310  -5.424  0.00  0.00    -0.040 A 
HETATM    3  C   UNK N   1      28.035  29.235  -5.986  0.00  0.00     0.009 A 
HETATM    4  C   UNK N   1      28.116  30.539  -5.487  0.00  0.00     0.001 A 
HETATM    5  C   UNK N   1      27.316  30.923  -4.408  0.00  0.00     0.000 A 
HETATM    6  C   UNK N   1      26.438  30.006  -3.828  0.00  0.00     0.001 A 
HETATM    7  C   UNK N   1      26.356  28.703  -4.328  0.00  0.00     0.009 A 
ENDBRANCH   1   2
BRANCH   1   8
HETATM    8  C   UNK N   1      27.776  25.885  -5.011  0.00  0.00    -0.040 A 
HETATM    9  C   UNK N   1      29.168  25.854  -4.809  0.00  0.00     0.010 A 
HETATM   10  C   UNK N   1      29.726  24.949  -3.903  0.00  0.00     0.019 A 
HETATM   11  C   UNK N   1      28.902  24.063  -3.195  0.00  0.00     0.000 A 
HETATM   12  C   UNK N   1      27.518  24.090  -3.400  0.00  0.00     0.019 A 
HETATM   13  C   UNK N   1      26.960  24.998  -4.301  0.00  0.00     0.010 A 
BRANCH  11  14
HETATM   14  S   UNK N   1      29.611  22.940  -1.997  0.00  0.00    -0.130 SA
BRANCH  14  15
HETATM   15  C   UNK N   1      30.907  22.355  -3.127  0.00  0.00     0.079 C 
BRANCH  15  16
HETATM   16  C   UNK N   1      30.444  21.076  -3.805  0.00  0.00     0.010 C 
BRANCH  16  17
HETATM   17  C   UNK N   1      30.694  21.148  -5.299  0.00  0.00    -0.004 C 
HETATM   18  C   UNK N   1      29.530  21.824  -5.996  0.00  0.00     0.005 C 
ENDBRANCH  16  17
ENDBRANCH  15  16
ENDBRANCH  14  15
ENDBRANCH  11  14
ENDBRANCH   1   8
BRANCH   1  19
HETATM   19  S   UNK N   1      25.529  26.190  -6.535  0.00  0.00    -0.153 SA
BRANCH  19  20
HETATM   20  C   UNK N   1      25.981  25.535  -8.169  0.00  0.00     0.105 C 
BRANCH  20  21
HETATM   21  C   UNK N   1      25.558  24.066  -8.236  0.00  0.00     0.281 C 
BRANCH  21  22
HETATM   22  N   UNK N   1      26.642  23.123  -7.946  0.00  0.00     0.080 N 
HETATM   23  C   UNK N   1      26.128  21.763  -7.886  0.00  0.00     0.309 C 
HETATM   24  C   UNK N   1      27.665  23.194  -8.977  0.00  0.00     0.309 C 
ENDBRANCH  21  22
ENDBRANCH  20  21
ENDBRANCH  19  20
ENDBRANCH   1  19
TORSDOF 10
ENDMDL
MODEL 5
REMARK VINA RESULT:      -5.0      1.401      2.247
REMARK  10 active torsions:
REMARK  status: ('A' for Active; 'I' for Inactive)
REMARK    1  A    between atoms: C_5  and  C_4 
REMARK    2  A    between atoms: C_16  and  C_5 
REMARK    3  A    between atoms: C_17  and  C_15 
REMARK    4  A    between atoms: N_22  and  C_15 
REMARK    5  A    between atoms: S_23  and  C_16 
REMARK    6  A    between atoms: S_24  and  C_17 
REMARK    7  A    between atoms: C_21  and  C_18 
REMARK    8  A    between atoms: C_21  and  C_19 
REMARK    9  A    between atoms: S_23  and  C_20 
REMARK   10  A    between atoms: S_24  and  C_21 
ROOT
HETATM    1  C   UNK N   1      28.170  17.038   4.789  0.00  0.00     0.113 C 
ENDROOT
BRANCH   1   2
HETATM    2  C   UNK N   1      27.824  18.472   5.153  0.00  0.00    -0.040 A 
HETATM    3  C   UNK N   1      27.930  18.887   6.488  0.00  0.00     0.009 A 
HETATM    4  C   UNK N   1      27.549  20.179   6.864  0.00  0.00     0.001 A 
HETATM    5  C   UNK N   1      27.040  21.062   5.909  0.00  0.00     0.000 A 
HETATM    6  C   UNK N   1      26.912  20.655   4.580  0.00  0.00     0.001 A 
HETATM    7  C   UNK N   1      27.296  19.364   4.202  0.00  0.00     0.009 A 
ENDBRANCH   1   2
BRANCH   1   8
HETATM    8  C   UNK N   1      29.593  16.652   5.067  0.00  0.00    -0.040 A 
HETATM    9  C   UNK N   1      29.915  15.460   5.742  0.00  0.00     0.010 A 
HETATM   10  C   UNK N   1      31.251  15.105   5.939  0.00  0.00     0.019 A 
HETATM   11  C   UNK N   1      32.277  15.937   5.471  0.00  0.00     0.000 A 
HETATM   12  C   UNK N   1      31.957  17.125   4.805  0.00  0.00     0.019 A 
HETATM   13  C   UNK N   1      30.622  17.477   4.603  0.00  0.00     0.010 A 
BRANCH  11  14
HETATM   14  S   UNK N   1      33.987  15.456   5.678  0.00  0.00    -0.130 SA
BRANCH  14  15
HETATM   15  C   UNK N   1      34.378  16.853   6.771  0.00  0.00     0.079 C 
BRANCH  15  16
HETATM   16  C   UNK N   1      33.533  16.759   8.030  0.00  0.00     0.010 C 
BRANCH  16  17
HETATM   17  C   UNK N   1      32.857  18.087   8.315  0.00  0.00    -0.004 C 
HETATM   18  C   UNK N   1      31.369  17.885   8.527  0.00  0.00     0.005 C 
ENDBRANCH  16  17
ENDBRANCH  15  16
ENDBRANCH  14  15
ENDBRANCH  11  14
ENDBRANCH   1   8
BRANCH   1  19
HETATM   19  S   UNK N   1      27.054  15.700   5.411  0.00  0.00    -0.153 SA
BRANCH  19  20
HETATM   20  C   UNK N   1      25.978  15.404   3.977  0.00  0.00     0.105 C 
BRANCH  20  21
HETATM   21  C   UNK N   1      26.708  15.878   2.718  0.00  0.00     0.281 C 
BRANCH  21  22
HETATM   22  N   UNK N   1      27.199  14.786   1.871  0.00  0.00     0.080 N 
HETATM   23  C   UNK N   1      28.643  14.659   1.996  0.00  0.00     0.309 C 
HETATM   24  C   UNK N   1      26.581  13.527   2.258  0.00  0.00     0.309 C 
ENDBRANCH  21  22
ENDBRANCH  20  21
ENDBRANCH  19  20
ENDBRANCH   1  19
TORSDOF 10
ENDMDL
MODEL 6
REMARK VINA RESULT:      -5.0      2.787      6.634
REMARK  10 active torsions:
REMARK  status: ('A' for Active; 'I' for Inactive)
REMARK    1  A    between atoms: C_5  and  C_4 
REMARK    2  A    between atoms: C_16  and  C_5 
REMARK    3  A    between atoms: C_17  and  C_15 
REMARK    4  A    between atoms: N_22  and  C_15 
REMARK    5  A    between atoms: S_23  and  C_16 
REMARK    6  A    between atoms: S_24  and  C_17 
REMARK    7  A    between atoms: C_21  and  C_18 
REMARK    8  A    between atoms: C_21  and  C_19 
REMARK    9  A    between atoms: S_23  and  C_20 
REMARK   10  A    between atoms: S_24  and  C_21 
ROOT
HETATM    1  C   UNK N   1      28.823  17.380   6.735  0.00  0.00     0.113 C 
ENDROOT
BRANCH   1   2
HETATM    2  C   UNK N   1      28.255  18.676   6.184  0.00  0.00    -0.040 A 
HETATM    3  C   UNK N   1      27.773  19.648   7.070  0.00  0.00     0.009 A 
HETATM    4  C   UNK N   1      27.178  20.818   6.589  0.00  0.00     0.001 A 
HETATM    5  C   UNK N   1      27.046  21.018   5.214  0.00  0.00     0.000 A 
HETATM    6  C   UNK N   1      27.506  20.050   4.320  0.00  0.00     0.001 A 
HETATM    7  C   UNK N   1      28.103  18.880   4.800  0.00  0.00     0.009 A 
ENDBRANCH   1   2
BRANCH   1   8
HETATM    8  C   UNK N   1      28.118  16.141   6.268  0.00  0.00    -0.040 A 
HETATM    9  C   UNK N   1      26.783  15.875   6.624  0.00  0.00     0.010 A 
HETATM   10  C   UNK N   1      26.139  14.738   6.130  0.00  0.00     0.019 A 
HETATM   11  C   UNK N   1      26.822  13.855   5.283  0.00  0.00     0.000 A 
HETATM   12  C   UNK N   1      28.151  14.117   4.934  0.00  0.00     0.019 A 
HETATM   13  C   UNK N   1      28.793  15.255   5.423  0.00  0.00     0.010 A 
BRANCH  11  14
HETATM   14  S   UNK N   1      25.981  12.427   4.609  0.00  0.00    -0.130 SA
BRANCH  14  15
HETATM   15  C   UNK N   1      26.251  12.926   2.884  0.00  0.00     0.079 C 
BRANCH  15  16
HETATM   16  C   UNK N   1      25.331  14.086   2.545  0.00  0.00     0.010 C 
BRANCH  16  17
HETATM   17  C   UNK N   1      26.122  15.233   1.945  0.00  0.00    -0.004 C 
HETATM   18  C   UNK N   1      25.992  16.471   2.811  0.00  0.00     0.005 C 
ENDBRANCH  16  17
ENDBRANCH  15  16
ENDBRANCH  14  15
ENDBRANCH  11  14
ENDBRANCH   1   8
BRANCH   1  19
HETATM   19  S   UNK N   1      30.650  17.115   6.599  0.00  0.00    -0.153 SA
BRANCH  19  20
HETATM   20  C   UNK N   1      31.218  17.500   8.282  0.00  0.00     0.105 C 
BRANCH  20  21
HETATM   21  C   UNK N   1      32.599  16.871   8.482  0.00  0.00     0.281 C 
BRANCH  21  22
HETATM   22  N   UNK N   1      33.610  17.346   7.534  0.00  0.00     0.080 N 
HETATM   23  C   UNK N   1      34.452  18.357   8.154  0.00  0.00     0.309 C 
HETATM   24  C   UNK N   1      34.450  16.242   7.094  0.00  0.00     0.309 C 
ENDBRANCH  21  22
ENDBRANCH  20  21
ENDBRANCH  19  20
ENDBRANCH   1  19
TORSDOF 10
ENDMDL
MODEL 7
REMARK VINA RESULT:      -5.0      9.616     13.377
REMARK  10 active torsions:
REMARK  status: ('A' for Active; 'I' for Inactive)
REMARK    1  A    between atoms: C_5  and  C_4 
REMARK    2  A    between atoms: C_16  and  C_5 
REMARK    3  A    between atoms: C_17  and  C_15 
REMARK    4  A    between atoms: N_22  and  C_15 
REMARK    5  A    between atoms: S_23  and  C_16 
REMARK    6  A    between atoms: S_24  and  C_17 
REMARK    7  A    between atoms: C_21  and  C_18 
REMARK    8  A    between atoms: C_21  and  C_19 
REMARK    9  A    between atoms: S_23  and  C_20 
REMARK   10  A    between atoms: S_24  and  C_21 
ROOT
HETATM    1  C   UNK N   1      36.504  13.009  14.211  0.00  0.00     0.113 C 
ENDROOT
BRANCH   1   2
HETATM    2  C   UNK N   1      36.407  13.858  15.466  0.00  0.00    -0.040 A 
HETATM    3  C   UNK N   1      37.250  14.968  15.613  0.00  0.00     0.009 A 
HETATM    4  C   UNK N   1      37.234  15.725  16.789  0.00  0.00     0.001 A 
HETATM    5  C   UNK N   1      36.384  15.365  17.837  0.00  0.00     0.000 A 
HETATM    6  C   UNK N   1      35.552  14.252  17.711  0.00  0.00     0.001 A 
HETATM    7  C   UNK N   1      35.566  13.496  16.534  0.00  0.00     0.009 A 
ENDBRANCH   1   2
BRANCH   1   8
HETATM    8  C   UNK N   1      36.521  11.530  14.459  0.00  0.00    -0.040 A 
HETATM    9  C   UNK N   1      37.707  10.851  14.795  0.00  0.00     0.010 A 
HETATM   10  C   UNK N   1      37.678   9.483  15.069  0.00  0.00     0.019 A 
HETATM   11  C   UNK N   1      36.470   8.777  15.006  0.00  0.00     0.000 A 
HETATM   12  C   UNK N   1      35.291   9.450  14.667  0.00  0.00     0.019 A 
HETATM   13  C   UNK N   1      35.318  10.819  14.398  0.00  0.00     0.010 A 
BRANCH  11  14
HETATM   14  S   UNK N   1      36.425   7.035  15.409  0.00  0.00    -0.130 SA
BRANCH  14  15
HETATM   15  C   UNK N   1      37.166   7.267  17.050  0.00  0.00     0.079 C 
BRANCH  15  16
HETATM   16  C   UNK N   1      36.158   7.937  17.968  0.00  0.00     0.010 C 
BRANCH  16  17
HETATM   17  C   UNK N   1      36.797   9.107  18.693  0.00  0.00    -0.004 C 
HETATM   18  C   UNK N   1      36.056  10.391  18.374  0.00  0.00     0.005 C 
ENDBRANCH  16  17
ENDBRANCH  15  16
ENDBRANCH  14  15
ENDBRANCH  11  14
ENDBRANCH   1   8
BRANCH   1  19
HETATM   19  S   UNK N   1      35.321  13.372  12.835  0.00  0.00    -0.153 SA
BRANCH  19  20
HETATM   20  C   UNK N   1      35.958  14.946  12.189  0.00  0.00     0.105 C 
BRANCH  20  21
HETATM   21  C   UNK N   1      35.686  14.998  10.684  0.00  0.00     0.281 C 
BRANCH  21  22
HETATM   22  N   UNK N   1      34.443  15.688  10.329  0.00  0.00     0.080 N 
HETATM   23  C   UNK N   1      34.728  16.865   9.522  0.00  0.00     0.309 C 
HETATM   24  C   UNK N   1      33.569  14.802   9.576  0.00  0.00     0.309 C 
ENDBRANCH  21  22
ENDBRANCH  20  21
ENDBRANCH  19  20
ENDBRANCH   1  19
TORSDOF 10
ENDMDL
MODEL 8
REMARK VINA RESULT:      -4.9      8.515     12.847
REMARK  10 active torsions:
REMARK  status: ('A' for Active; 'I' for Inactive)
REMARK    1  A    between atoms: C_5  and  C_4 
REMARK    2  A    between atoms: C_16  and  C_5 
REMARK    3  A    between atoms: C_17  and  C_15 
REMARK    4  A    between atoms: N_22  and  C_15 
REMARK    5  A    between atoms: S_23  and  C_16 
REMARK    6  A    between atoms: S_24  and  C_17 
REMARK    7  A    between atoms: C_21  and  C_18 
REMARK    8  A    between atoms: C_21  and  C_19 
REMARK    9  A    between atoms: S_23  and  C_20 
REMARK   10  A    between atoms: S_24  and  C_21 
ROOT
HETATM    1  C   UNK N   1      36.221  12.545  14.411  0.00  0.00     0.113 C 
ENDROOT
BRANCH   1   2
HETATM    2  C   UNK N   1      36.241  13.566  15.536  0.00  0.00    -0.040 A 
HETATM    3  C   UNK N   1      37.131  14.647  15.468  0.00  0.00     0.009 A 
HETATM    4  C   UNK N   1      37.222  15.561  16.522  0.00  0.00     0.001 A 
HETATM    5  C   UNK N   1      36.434  15.392  17.662  0.00  0.00     0.000 A 
HETATM    6  C   UNK N   1      35.556  14.310  17.750  0.00  0.00     0.001 A 
HETATM    7  C   UNK N   1      35.462  13.396  16.695  0.00  0.00     0.009 A 
ENDBRANCH   1   2
BRANCH   1   8
HETATM    8  C   UNK N   1      36.118  13.135  13.036  0.00  0.00    -0.040 A 
HETATM    9  C   UNK N   1      37.130  12.952  12.077  0.00  0.00     0.010 A 
HETATM   10  C   UNK N   1      36.979  13.472  10.789  0.00  0.00     0.019 A 
HETATM   11  C   UNK N   1      35.821  14.182  10.449  0.00  0.00     0.000 A 
HETATM   12  C   UNK N   1      34.816  14.369  11.404  0.00  0.00     0.019 A 
HETATM   13  C   UNK N   1      34.964  13.846  12.689  0.00  0.00     0.010 A 
BRANCH  11  14
HETATM   14  S   UNK N   1      35.605  14.802   8.785  0.00  0.00    -0.130 SA
BRANCH  14  15
HETATM   15  C   UNK N   1      34.259  15.931   9.247  0.00  0.00     0.079 C 
BRANCH  15  16
HETATM   16  C   UNK N   1      34.727  17.367   9.085  0.00  0.00     0.010 C 
BRANCH  16  17
HETATM   17  C   UNK N   1      33.846  18.104   8.095  0.00  0.00    -0.004 C 
HETATM   18  C   UNK N   1      32.384  17.822   8.380  0.00  0.00     0.005 C 
ENDBRANCH  16  17
ENDBRANCH  15  16
ENDBRANCH  14  15
ENDBRANCH  11  14
ENDBRANCH   1   8
BRANCH   1  19
HETATM   19  S   UNK N   1      37.539  11.246  14.408  0.00  0.00    -0.153 SA
BRANCH  19  20
HETATM   20  C   UNK N   1      36.652   9.802  15.064  0.00  0.00     0.105 C 
BRANCH  20  21
HETATM   21  C   UNK N   1      37.135   9.544  16.493  0.00  0.00     0.281 C 
BRANCH  21  22
HETATM   22  N   UNK N   1      36.163   9.918  17.524  0.00  0.00     0.080 N 
HETATM   23  C   UNK N   1      34.806   9.772  17.019  0.00  0.00     0.309 C 
HETATM   24  C   UNK N   1      36.320   9.073  18.699  0.00  0.00     0.309 C 
ENDBRANCH  21  22
ENDBRANCH  20  21
ENDBRANCH  19  20
ENDBRANCH   1  19
TORSDOF 10
ENDMDL
MODEL 9
REMARK VINA RESULT:      -4.9     11.777     14.403
REMARK  10 active torsions:
REMARK  status: ('A' for Active; 'I' for Inactive)
REMARK    1  A    between atoms: C_5  and  C_4 
REMARK    2  A    between atoms: C_16  and  C_5 
REMARK    3  A    between atoms: C_17  and  C_15 
REMARK    4  A    between atoms: N_22  and  C_15 
REMARK    5  A    between atoms: S_23  and  C_16 
REMARK    6  A    between atoms: S_24  and  C_17 
REMARK    7  A    between atoms: C_21  and  C_18 
REMARK    8  A    between atoms: C_21  and  C_19 
REMARK    9  A    between atoms: S_23  and  C_20 
REMARK   10  A    between atoms: S_24  and  C_21 
ROOT
HETATM    1  C   UNK N   1      27.290  25.054  -4.804  0.00  0.00     0.113 C 
ENDROOT
BRANCH   1   2
HETATM    2  C   UNK N   1      28.356  24.449  -3.907  0.00  0.00    -0.040 A 
HETATM    3  C   UNK N   1      29.709  24.668  -4.202  0.00  0.00     0.009 A 
HETATM    4  C   UNK N   1      30.711  24.065  -3.437  0.00  0.00     0.001 A 
HETATM    5  C   UNK N   1      30.368  23.221  -2.379  0.00  0.00     0.000 A 
HETATM    6  C   UNK N   1      29.025  22.980  -2.085  0.00  0.00     0.001 A 
HETATM    7  C   UNK N   1      28.021  23.586  -2.848  0.00  0.00     0.009 A 
ENDBRANCH   1   2
BRANCH   1   8
HETATM    8  C   UNK N   1      27.050  26.519  -4.585  0.00  0.00    -0.040 A 
HETATM    9  C   UNK N   1      26.450  27.000  -3.407  0.00  0.00     0.010 A 
HETATM   10  C   UNK N   1      26.287  28.374  -3.214  0.00  0.00     0.019 A 
HETATM   11  C   UNK N   1      26.715  29.278  -4.194  0.00  0.00     0.000 A 
HETATM   12  C   UNK N   1      27.307  28.799  -5.369  0.00  0.00     0.019 A 
HETATM   13  C   UNK N   1      27.474  27.428  -5.560  0.00  0.00     0.010 A 
BRANCH  11  14
HETATM   14  S   UNK N   1      26.554  31.039  -3.923  0.00  0.00    -0.130 SA
BRANCH  14  15
HETATM   15  C   UNK N   1      27.593  31.031  -2.434  0.00  0.00     0.079 C 
BRANCH  15  16
HETATM   16  C   UNK N   1      29.038  30.781  -2.829  0.00  0.00     0.010 C 
BRANCH  16  17
HETATM   17  C   UNK N   1      29.621  29.641  -2.015  0.00  0.00    -0.004 C 
HETATM   18  C   UNK N   1      30.165  28.563  -2.933  0.00  0.00     0.005 C 
ENDBRANCH  16  17
ENDBRANCH  15  16
ENDBRANCH  14  15
ENDBRANCH  11  14
ENDBRANCH   1   8
BRANCH   1  19
HETATM   19  S   UNK N   1      27.413  24.733  -6.622  0.00  0.00    -0.153 SA
BRANCH  19  20
HETATM   20  C   UNK N   1      25.790  24.004  -6.991  0.00  0.00     0.105 C 
BRANCH  20  21
HETATM   21  C   UNK N   1      25.804  23.497  -8.435  0.00  0.00     0.281 C 
BRANCH  21  22
HETATM   22  N   UNK N   1      25.259  22.145  -8.594  0.00  0.00     0.080 N 
HETATM   23  C   UNK N   1      26.249  21.266  -9.197  0.00  0.00     0.309 C 
HETATM   24  C   UNK N   1      24.872  21.600  -7.301  0.00  0.00     0.309 C 
ENDBRANCH  21  22
ENDBRANCH  20  21
ENDBRANCH  19  20
ENDBRANCH   1  19
TORSDOF 10
ENDMDL
