MODEL 1
REMARK VINA RESULT:      -5.2      0.000      0.000
REMARK  15 active torsions:
REMARK  status: ('A' for Active; 'I' for Inactive)
REMARK    1  A    between atoms: C_5  and  C_4 
REMARK    2  A    between atoms: C_6  and  C_4 
REMARK    3  A    between atoms: C_7  and  C_5 
REMARK    4  A    between atoms: C_8  and  C_6 
REMARK    5  A    between atoms: C_9  and  C_7 
REMARK    6  A    between atoms: C_10  and  C_8 
REMARK    7  A    between atoms: C_11  and  C_9 
REMARK    8  A    between atoms: C_12  and  C_10 
REMARK    9  A    between atoms: C_13  and  C_11 
REMARK   10  A    between atoms: C_15  and  C_12 
REMARK   11  A    between atoms: C_20  and  C_13 
REMARK   12  A    between atoms: O_23  and  C_18 
REMARK   13  A    between atoms: O_24  and  C_19 
REMARK   14  A    between atoms: C_20  and  C_25 
REMARK   15  A    between atoms: C_25  and  O_26 
ROOT
HETATM    1  C   UNK N   1      27.097  27.132  -7.440  0.00  0.00     0.043 C 
ENDROOT
BRANCH   1   2
HETATM    2  C   UNK N   1      27.509  25.672  -7.525  0.00  0.00     0.005 C 
BRANCH   2   3
HETATM    3  C   UNK N   1      26.319  24.844  -7.973  0.00  0.00     0.000 C 
BRANCH   3   4
HETATM    4  C   UNK N   1      25.972  23.835  -6.891  0.00  0.00     0.000 C 
BRANCH   4   5
HETATM    5  C   UNK N   1      27.020  23.829  -5.793  0.00  0.00     0.000 C 
BRANCH   5   6
HETATM    6  C   UNK N   1      26.376  23.993  -4.423  0.00  0.00     0.000 C 
BRANCH   6   7
HETATM    7  C   UNK N   1      27.429  24.235  -3.353  0.00  0.00     0.000 C 
BRANCH   7   8
HETATM    8  C   UNK N   1      28.596  25.040  -3.907  0.00  0.00     0.000 C 
BRANCH   8   9
HETATM    9  C   UNK N   1      29.918  24.430  -3.476  0.00  0.00     0.000 C 
BRANCH   9  10
HETATM   10  C   UNK N   1      29.710  23.027  -2.956  0.00  0.00     0.002 C 
BRANCH  10  11
HETATM   11  C   UNK N   1      30.250  22.031  -3.958  0.00  0.00     0.026 C 
BRANCH  11  12
HETATM   12  C   UNK N   1      31.673  21.677  -3.588  0.00  0.00     0.164 C 
BRANCH  12  13
HETATM   13  O   UNK N   1      31.832  21.788  -2.209  0.00  0.00    -0.401 OA
HETATM   14  H   UNK N   1      32.514  22.352  -1.811  0.00  0.00     0.209 HD
ENDBRANCH  12  13
ENDBRANCH  11  12
ENDBRANCH  10  11
ENDBRANCH   9  10
ENDBRANCH   8   9
ENDBRANCH   7   8
ENDBRANCH   6   7
ENDBRANCH   5   6
ENDBRANCH   4   5
ENDBRANCH   3   4
ENDBRANCH   2   3
ENDBRANCH   1   2
BRANCH   1  15
HETATM   15  C   UNK N   1      27.212  27.669  -6.037  0.00  0.00     0.005 A 
HETATM   16  C   UNK N   1      26.148  27.654  -5.206  0.00  0.00     0.001 A 
HETATM   17  C   UNK N   1      24.821  27.126  -5.659  0.00  0.00     0.053 C 
HETATM   18  C   UNK N   1      26.282  28.148  -3.816  0.00  0.00     0.214 A 
HETATM   19  C   UNK N   1      27.590  28.620  -3.299  0.00  0.00     0.156 A 
HETATM   20  O   UNK N   1      25.309  28.141  -3.073  0.00  0.00    -0.285 OA
HETATM   21  C   UNK N   1      28.666  28.657  -4.147  0.00  0.00     0.156 A 
HETATM   22  C   UNK N   1      28.514  28.191  -5.549  0.00  0.00     0.214 A 
HETATM   23  O   UNK N   1      29.476  28.233  -6.303  0.00  0.00    -0.285 OA
BRANCH  19  24
HETATM   24  O   UNK N   1      27.645  28.970  -1.981  0.00  0.00    -0.350 OA
HETATM   25  C   UNK N   1      28.027  30.194  -1.484  0.00  0.00     0.210 C 
ENDBRANCH  19  24
BRANCH  21  26
HETATM   26  O   UNK N   1      29.886  29.110  -3.768  0.00  0.00    -0.350 OA
HETATM   27  C   UNK N   1      30.863  28.261  -3.303  0.00  0.00     0.210 C 
ENDBRANCH  21  26
ENDBRANCH   1  15
TORSDOF 15
ENDMDL
MODEL 2
REMARK VINA RESULT:      -5.2     10.679     13.401
REMARK  15 active torsions:
REMARK  status: ('A' for Active; 'I' for Inactive)
REMARK    1  A    between atoms: C_5  and  C_4 
REMARK    2  A    between atoms: C_6  and  C_4 
REMARK    3  A    between atoms: C_7  and  C_5 
REMARK    4  A    between atoms: C_8  and  C_6 
REMARK    5  A    between atoms: C_9  and  C_7 
REMARK    6  A    between atoms: C_10  and  C_8 
REMARK    7  A    between atoms: C_11  and  C_9 
REMARK    8  A    between atoms: C_12  and  C_10 
REMARK    9  A    between atoms: C_13  and  C_11 
REMARK   10  A    between atoms: C_15  and  C_12 
REMARK   11  A    between atoms: C_20  and  C_13 
REMARK   12  A    between atoms: O_23  and  C_18 
REMARK   13  A    between atoms: O_24  and  C_19 
REMARK   14  A    between atoms: C_20  and  C_25 
REMARK   15  A    between atoms: C_25  and  O_26 
ROOT
HETATM    1  C   UNK N   1      26.251  20.156   3.412  0.00  0.00     0.043 C 
ENDROOT
BRANCH   1   2
HETATM    2  C   UNK N   1      26.594  20.873   4.707  0.00  0.00     0.005 C 
BRANCH   2   3
HETATM    3  C   UNK N   1      27.829  20.236   5.317  0.00  0.00     0.000 C 
BRANCH   3   4
HETATM    4  C   UNK N   1      27.592  19.995   6.798  0.00  0.00     0.000 C 
BRANCH   4   5
HETATM    5  C   UNK N   1      28.014  18.594   7.199  0.00  0.00     0.000 C 
BRANCH   5   6
HETATM    6  C   UNK N   1      29.060  18.044   6.238  0.00  0.00     0.000 C 
BRANCH   6   7
HETATM    7  C   UNK N   1      29.668  16.757   6.776  0.00  0.00     0.000 C 
BRANCH   7   8
HETATM    8  C   UNK N   1      30.769  16.247   5.856  0.00  0.00     0.000 C 
BRANCH   8   9
HETATM    9  C   UNK N   1      32.079  16.121   6.613  0.00  0.00     0.000 C 
BRANCH   9  10
HETATM   10  C   UNK N   1      32.628  17.486   6.955  0.00  0.00     0.002 C 
BRANCH  10  11
HETATM   11  C   UNK N   1      34.130  17.403   7.110  0.00  0.00     0.026 C 
BRANCH  11  12
HETATM   12  C   UNK N   1      34.518  17.914   8.479  0.00  0.00     0.164 C 
BRANCH  12  13
HETATM   13  O   UNK N   1      34.992  19.219   8.366  0.00  0.00    -0.401 OA
HETATM   14  H   UNK N   1      35.748  19.447   7.801  0.00  0.00     0.209 HD
ENDBRANCH  12  13
ENDBRANCH  11  12
ENDBRANCH  10  11
ENDBRANCH   9  10
ENDBRANCH   8   9
ENDBRANCH   7   8
ENDBRANCH   6   7
ENDBRANCH   5   6
ENDBRANCH   4   5
ENDBRANCH   3   4
ENDBRANCH   2   3
ENDBRANCH   1   2
BRANCH   1  15
HETATM   15  C   UNK N   1      24.924  19.448   3.494  0.00  0.00     0.005 A 
HETATM   16  C   UNK N   1      24.865  18.130   3.780  0.00  0.00     0.001 A 
HETATM   17  C   UNK N   1      26.113  17.331   4.001  0.00  0.00     0.053 C 
HETATM   18  C   UNK N   1      23.553  17.452   3.897  0.00  0.00     0.214 A 
HETATM   19  C   UNK N   1      22.288  18.213   3.752  0.00  0.00     0.156 A 
HETATM   20  O   UNK N   1      23.509  16.254   4.146  0.00  0.00    -0.285 OA
HETATM   21  C   UNK N   1      22.345  19.546   3.439  0.00  0.00     0.156 A 
HETATM   22  C   UNK N   1      23.666  20.210   3.291  0.00  0.00     0.214 A 
HETATM   23  O   UNK N   1      23.711  21.399   3.005  0.00  0.00    -0.285 OA
BRANCH  19  24
HETATM   24  O   UNK N   1      21.127  17.529   3.967  0.00  0.00    -0.350 OA
HETATM   25  C   UNK N   1      20.335  16.953   3.000  0.00  0.00     0.210 C 
ENDBRANCH  19  24
BRANCH  21  26
HETATM   26  O   UNK N   1      21.239  20.306   3.250  0.00  0.00    -0.350 OA
HETATM   27  C   UNK N   1      20.688  20.487   2.003  0.00  0.00     0.210 C 
ENDBRANCH  21  26
ENDBRANCH   1  15
TORSDOF 15
ENDMDL
MODEL 3
REMARK VINA RESULT:      -5.0     10.328     14.600
REMARK  15 active torsions:
REMARK  status: ('A' for Active; 'I' for Inactive)
REMARK    1  A    between atoms: C_5  and  C_4 
REMARK    2  A    between atoms: C_6  and  C_4 
REMARK    3  A    between atoms: C_7  and  C_5 
REMARK    4  A    between atoms: C_8  and  C_6 
REMARK    5  A    between atoms: C_9  and  C_7 
REMARK    6  A    between atoms: C_10  and  C_8 
REMARK    7  A    between atoms: C_11  and  C_9 
REMARK    8  A    between atoms: C_12  and  C_10 
REMARK    9  A    between atoms: C_13  and  C_11 
REMARK   10  A    between atoms: C_15  and  C_12 
REMARK   11  A    between atoms: C_20  and  C_13 
REMARK   12  A    between atoms: O_23  and  C_18 
REMARK   13  A    between atoms: O_24  and  C_19 
REMARK   14  A    between atoms: C_20  and  C_25 
REMARK   15  A    between atoms: C_25  and  O_26 
ROOT
HETATM    1  C   UNK N   1      28.600  17.588   7.450  0.00  0.00     0.043 C 
ENDROOT
BRANCH   1   2
HETATM    2  C   UNK N   1      28.301  19.058   7.691  0.00  0.00     0.005 C 
BRANCH   2   3
HETATM    3  C   UNK N   1      27.339  19.552   6.627  0.00  0.00     0.000 C 
BRANCH   3   4
HETATM    4  C   UNK N   1      28.128  20.175   5.487  0.00  0.00     0.000 C 
BRANCH   4   5
HETATM    5  C   UNK N   1      27.551  19.777   4.141  0.00  0.00     0.000 C 
BRANCH   5   6
HETATM    6  C   UNK N   1      26.066  20.107   4.066  0.00  0.00     0.000 C 
BRANCH   6   7
HETATM    7  C   UNK N   1      25.704  20.676   2.702  0.00  0.00     0.000 C 
BRANCH   7   8
HETATM    8  C   UNK N   1      24.204  20.599   2.458  0.00  0.00     0.000 C 
BRANCH   8   9
HETATM    9  C   UNK N   1      23.530  19.767   3.536  0.00  0.00     0.000 C 
BRANCH   9  10
HETATM   10  C   UNK N   1      22.067  19.569   3.216  0.00  0.00     0.002 C 
BRANCH  10  11
HETATM   11  C   UNK N   1      21.593  20.680   2.306  0.00  0.00     0.026 C 
BRANCH  11  12
HETATM   12  C   UNK N   1      20.469  20.165   1.437  0.00  0.00     0.164 C 
BRANCH  12  13
HETATM   13  O   UNK N   1      20.723  20.498   0.109  0.00  0.00    -0.401 OA
HETATM   14  H   UNK N   1      20.027  20.494  -0.567  0.00  0.00     0.209 HD
ENDBRANCH  12  13
ENDBRANCH  11  12
ENDBRANCH  10  11
ENDBRANCH   9  10
ENDBRANCH   8   9
ENDBRANCH   7   8
ENDBRANCH   6   7
ENDBRANCH   5   6
ENDBRANCH   4   5
ENDBRANCH   3   4
ENDBRANCH   2   3
ENDBRANCH   1   2
BRANCH   1  15
HETATM   15  C   UNK N   1      30.033  17.364   7.042  0.00  0.00     0.005 A 
HETATM   16  C   UNK N   1      30.333  16.934   5.798  0.00  0.00     0.001 A 
HETATM   17  C   UNK N   1      29.254  16.647   4.798  0.00  0.00     0.053 C 
HETATM   18  C   UNK N   1      31.747  16.754   5.393  0.00  0.00     0.214 A 
HETATM   19  C   UNK N   1      32.853  17.087   6.324  0.00  0.00     0.156 A 
HETATM   20  O   UNK N   1      32.009  16.353   4.267  0.00  0.00    -0.285 OA
HETATM   21  C   UNK N   1      32.550  17.502   7.595  0.00  0.00     0.156 A 
HETATM   22  C   UNK N   1      31.129  17.648   8.002  0.00  0.00     0.214 A 
HETATM   23  O   UNK N   1      30.865  18.012   9.139  0.00  0.00    -0.285 OA
BRANCH  19  24
HETATM   24  O   UNK N   1      34.123  16.980   5.839  0.00  0.00    -0.350 OA
HETATM   25  C   UNK N   1      34.914  15.855   5.879  0.00  0.00     0.210 C 
ENDBRANCH  19  24
BRANCH  21  26
HETATM   26  O   UNK N   1      33.498  17.789   8.521  0.00  0.00    -0.350 OA
HETATM   27  C   UNK N   1      34.084  16.808   9.287  0.00  0.00     0.210 C 
ENDBRANCH  21  26
ENDBRANCH   1  15
TORSDOF 15
ENDMDL
MODEL 4
REMARK VINA RESULT:      -4.9      2.608      6.374
REMARK  15 active torsions:
REMARK  status: ('A' for Active; 'I' for Inactive)
REMARK    1  A    between atoms: C_5  and  C_4 
REMARK    2  A    between atoms: C_6  and  C_4 
REMARK    3  A    between atoms: C_7  and  C_5 
REMARK    4  A    between atoms: C_8  and  C_6 
REMARK    5  A    between atoms: C_9  and  C_7 
REMARK    6  A    between atoms: C_10  and  C_8 
REMARK    7  A    between atoms: C_11  and  C_9 
REMARK    8  A    between atoms: C_12  and  C_10 
REMARK    9  A    between atoms: C_13  and  C_11 
REMARK   10  A    between atoms: C_15  and  C_12 
REMARK   11  A    between atoms: C_20  and  C_13 
REMARK   12  A    between atoms: O_23  and  C_18 
REMARK   13  A    between atoms: O_24  and  C_19 
REMARK   14  A    between atoms: C_20  and  C_25 
REMARK   15  A    between atoms: C_25  and  O_26 
ROOT
HETATM    1  C   UNK N   1      27.803  24.197  -6.096  0.00  0.00     0.043 C 
ENDROOT
BRANCH   1   2
HETATM    2  C   UNK N   1      26.403  23.659  -5.853  0.00  0.00     0.005 C 
BRANCH   2   3
HETATM    3  C   UNK N   1      25.529  24.772  -5.307  0.00  0.00     0.000 C 
BRANCH   3   4
HETATM    4  C   UNK N   1      25.468  25.905  -6.318  0.00  0.00     0.000 C 
BRANCH   4   5
HETATM    5  C   UNK N   1      25.017  27.198  -5.664  0.00  0.00     0.000 C 
BRANCH   5   6
HETATM    6  C   UNK N   1      25.515  27.284  -4.227  0.00  0.00     0.000 C 
BRANCH   6   7
HETATM    7  C   UNK N   1      26.230  28.604  -3.978  0.00  0.00     0.000 C 
BRANCH   7   8
HETATM    8  C   UNK N   1      26.974  29.065  -5.224  0.00  0.00     0.000 C 
BRANCH   8   9
HETATM    9  C   UNK N   1      28.438  28.668  -5.149  0.00  0.00     0.000 C 
BRANCH   9  10
HETATM   10  C   UNK N   1      28.811  27.795  -6.324  0.00  0.00     0.002 C 
BRANCH  10  11
HETATM   11  C   UNK N   1      28.073  28.264  -7.558  0.00  0.00     0.026 C 
BRANCH  11  12
HETATM   12  C   UNK N   1      28.470  27.399  -8.732  0.00  0.00     0.164 C 
BRANCH  12  13
HETATM   13  O   UNK N   1      27.351  26.711  -9.196  0.00  0.00    -0.401 OA
HETATM   14  H   UNK N   1      27.066  25.867  -8.810  0.00  0.00     0.209 HD
ENDBRANCH  12  13
ENDBRANCH  11  12
ENDBRANCH  10  11
ENDBRANCH   9  10
ENDBRANCH   8   9
ENDBRANCH   7   8
ENDBRANCH   6   7
ENDBRANCH   5   6
ENDBRANCH   4   5
ENDBRANCH   3   4
ENDBRANCH   2   3
ENDBRANCH   1   2
BRANCH   1  15
HETATM   15  C   UNK N   1      28.833  23.490  -5.253  0.00  0.00     0.005 A 
HETATM   16  C   UNK N   1      29.231  24.011  -4.073  0.00  0.00     0.001 A 
HETATM   17  C   UNK N   1      28.678  25.314  -3.578  0.00  0.00     0.053 C 
HETATM   18  C   UNK N   1      30.214  23.288  -3.234  0.00  0.00     0.214 A 
HETATM   19  C   UNK N   1      30.741  21.965  -3.648  0.00  0.00     0.156 A 
HETATM   20  O   UNK N   1      30.577  23.774  -2.170  0.00  0.00    -0.285 OA
HETATM   21  C   UNK N   1      30.356  21.445  -4.857  0.00  0.00     0.156 A 
HETATM   22  C   UNK N   1      29.395  22.192  -5.707  0.00  0.00     0.214 A 
HETATM   23  O   UNK N   1      29.060  21.727  -6.787  0.00  0.00    -0.285 OA
BRANCH  19  24
HETATM   24  O   UNK N   1      31.571  21.328  -2.773  0.00  0.00    -0.350 OA
HETATM   25  C   UNK N   1      32.944  21.288  -2.841  0.00  0.00     0.210 C 
ENDBRANCH  19  24
BRANCH  21  26
HETATM   26  O   UNK N   1      30.819  20.261  -5.329  0.00  0.00    -0.350 OA
HETATM   27  C   UNK N   1      31.952  20.184  -6.105  0.00  0.00     0.210 C 
ENDBRANCH  21  26
ENDBRANCH   1  15
TORSDOF 15
ENDMDL
MODEL 5
REMARK VINA RESULT:      -4.8     10.726     13.550
REMARK  15 active torsions:
REMARK  status: ('A' for Active; 'I' for Inactive)
REMARK    1  A    between atoms: C_5  and  C_4 
REMARK    2  A    between atoms: C_6  and  C_4 
REMARK    3  A    between atoms: C_7  and  C_5 
REMARK    4  A    between atoms: C_8  and  C_6 
REMARK    5  A    between atoms: C_9  and  C_7 
REMARK    6  A    between atoms: C_10  and  C_8 
REMARK    7  A    between atoms: C_11  and  C_9 
REMARK    8  A    between atoms: C_12  and  C_10 
REMARK    9  A    between atoms: C_13  and  C_11 
REMARK   10  A    between atoms: C_15  and  C_12 
REMARK   11  A    between atoms: C_20  and  C_13 
REMARK   12  A    between atoms: O_23  and  C_18 
REMARK   13  A    between atoms: O_24  and  C_19 
REMARK   14  A    between atoms: C_20  and  C_25 
REMARK   15  A    between atoms: C_25  and  O_26 
ROOT
HETATM    1  C   UNK N   1      26.593  17.699   3.624  0.00  0.00     0.043 C 
ENDROOT
BRANCH   1   2
HETATM    2  C   UNK N   1      27.080  17.379   5.027  0.00  0.00     0.005 C 
BRANCH   2   3
HETATM    3  C   UNK N   1      28.102  18.418   5.448  0.00  0.00     0.000 C 
BRANCH   3   4
HETATM    4  C   UNK N   1      27.471  19.363   6.458  0.00  0.00     0.000 C 
BRANCH   4   5
HETATM    5  C   UNK N   1      28.214  19.324   7.781  0.00  0.00     0.000 C 
BRANCH   5   6
HETATM    6  C   UNK N   1      28.499  17.889   8.205  0.00  0.00     0.000 C 
BRANCH   6   7
HETATM    7  C   UNK N   1      29.585  17.842   9.268  0.00  0.00     0.000 C 
BRANCH   7   8
HETATM    8  C   UNK N   1      30.742  16.956   8.828  0.00  0.00     0.000 C 
BRANCH   8   9
HETATM    9  C   UNK N   1      30.670  16.687   7.336  0.00  0.00     0.000 C 
BRANCH   9  10
HETATM   10  C   UNK N   1      31.782  17.411   6.612  0.00  0.00     0.002 C 
BRANCH  10  11
HETATM   11  C   UNK N   1      32.466  16.459   5.656  0.00  0.00     0.026 C 
BRANCH  11  12
HETATM   12  C   UNK N   1      33.957  16.499   5.898  0.00  0.00     0.164 C 
BRANCH  12  13
HETATM   13  O   UNK N   1      34.335  17.797   6.235  0.00  0.00    -0.401 OA
HETATM   14  H   UNK N   1      34.751  18.397   5.596  0.00  0.00     0.209 HD
ENDBRANCH  12  13
ENDBRANCH  11  12
ENDBRANCH  10  11
ENDBRANCH   9  10
ENDBRANCH   8   9
ENDBRANCH   7   8
ENDBRANCH   6   7
ENDBRANCH   5   6
ENDBRANCH   4   5
ENDBRANCH   3   4
ENDBRANCH   2   3
ENDBRANCH   1   2
BRANCH   1  15
HETATM   15  C   UNK N   1      25.222  18.325   3.633  0.00  0.00     0.005 A 
HETATM   16  C   UNK N   1      25.062  19.633   3.337  0.00  0.00     0.001 A 
HETATM   17  C   UNK N   1      26.240  20.502   3.014  0.00  0.00     0.053 C 
HETATM   18  C   UNK N   1      23.706  20.229   3.310  0.00  0.00     0.214 A 
HETATM   19  C   UNK N   1      22.504  19.397   3.558  0.00  0.00     0.156 A 
HETATM   20  O   UNK N   1      23.572  21.418   3.051  0.00  0.00    -0.285 OA
HETATM   21  C   UNK N   1      22.666  18.074   3.881  0.00  0.00     0.156 A 
HETATM   22  C   UNK N   1      24.031  17.493   3.938  0.00  0.00     0.214 A 
HETATM   23  O   UNK N   1      24.170  16.314   4.233  0.00  0.00    -0.285 OA
BRANCH  19  24
HETATM   24  O   UNK N   1      21.291  20.006   3.422  0.00  0.00    -0.350 OA
HETATM   25  C   UNK N   1      20.501  19.997   2.296  0.00  0.00     0.210 C 
ENDBRANCH  19  24
BRANCH  21  26
HETATM   26  O   UNK N   1      21.624  17.253   4.161  0.00  0.00    -0.350 OA
HETATM   27  C   UNK N   1      21.089  17.165   5.425  0.00  0.00     0.210 C 
ENDBRANCH  21  26
ENDBRANCH   1  15
TORSDOF 15
ENDMDL
MODEL 6
REMARK VINA RESULT:      -4.8      2.232      4.667
REMARK  15 active torsions:
REMARK  status: ('A' for Active; 'I' for Inactive)
REMARK    1  A    between atoms: C_5  and  C_4 
REMARK    2  A    between atoms: C_6  and  C_4 
REMARK    3  A    between atoms: C_7  and  C_5 
REMARK    4  A    between atoms: C_8  and  C_6 
REMARK    5  A    between atoms: C_9  and  C_7 
REMARK    6  A    between atoms: C_10  and  C_8 
REMARK    7  A    between atoms: C_11  and  C_9 
REMARK    8  A    between atoms: C_12  and  C_10 
REMARK    9  A    between atoms: C_13  and  C_11 
REMARK   10  A    between atoms: C_15  and  C_12 
REMARK   11  A    between atoms: C_20  and  C_13 
REMARK   12  A    between atoms: O_23  and  C_18 
REMARK   13  A    between atoms: O_24  and  C_19 
REMARK   14  A    between atoms: C_20  and  C_25 
REMARK   15  A    between atoms: C_25  and  O_26 
ROOT
HETATM    1  C   UNK N   1      27.513  28.861  -6.220  0.00  0.00     0.043 C 
ENDROOT
BRANCH   1   2
HETATM    2  C   UNK N   1      28.942  28.794  -5.708  0.00  0.00     0.005 C 
BRANCH   2   3
HETATM    3  C   UNK N   1      28.972  29.240  -4.258  0.00  0.00     0.000 C 
BRANCH   3   4
HETATM    4  C   UNK N   1      29.266  28.042  -3.370  0.00  0.00     0.000 C 
BRANCH   4   5
HETATM    5  C   UNK N   1      30.621  27.440  -3.695  0.00  0.00     0.000 C 
BRANCH   5   6
HETATM    6  C   UNK N   1      30.564  25.918  -3.662  0.00  0.00     0.000 C 
BRANCH   6   7
HETATM    7  C   UNK N   1      30.088  25.363  -4.996  0.00  0.00     0.000 C 
BRANCH   7   8
HETATM    8  C   UNK N   1      28.863  24.478  -4.813  0.00  0.00     0.000 C 
BRANCH   8   9
HETATM    9  C   UNK N   1      29.153  23.364  -3.823  0.00  0.00     0.000 C 
BRANCH   9  10
HETATM   10  C   UNK N   1      29.975  22.276  -4.474  0.00  0.00     0.002 C 
BRANCH  10  11
HETATM   11  C   UNK N   1      30.623  21.425  -3.405  0.00  0.00     0.026 C 
BRANCH  11  12
HETATM   12  C   UNK N   1      31.958  22.029  -3.032  0.00  0.00     0.164 C 
BRANCH  12  13
HETATM   13  O   UNK N   1      32.557  21.250  -2.045  0.00  0.00    -0.401 OA
HETATM   14  H   UNK N   1      33.269  20.621  -2.244  0.00  0.00     0.209 HD
ENDBRANCH  12  13
ENDBRANCH  11  12
ENDBRANCH  10  11
ENDBRANCH   9  10
ENDBRANCH   8   9
ENDBRANCH   7   8
ENDBRANCH   6   7
ENDBRANCH   5   6
ENDBRANCH   4   5
ENDBRANCH   3   4
ENDBRANCH   2   3
ENDBRANCH   1   2
BRANCH   1  15
HETATM   15  C   UNK N   1      26.969  27.495  -6.552  0.00  0.00     0.005 A 
HETATM   16  C   UNK N   1      26.122  26.869  -5.707  0.00  0.00     0.001 A 
HETATM   17  C   UNK N   1      25.717  27.501  -4.410  0.00  0.00     0.053 C 
HETATM   18  C   UNK N   1      25.562  25.544  -6.061  0.00  0.00     0.214 A 
HETATM   19  C   UNK N   1      25.881  24.906  -7.362  0.00  0.00     0.156 A 
HETATM   20  O   UNK N   1      24.804  24.979  -5.284  0.00  0.00    -0.285 OA
HETATM   21  C   UNK N   1      26.758  25.530  -8.211  0.00  0.00     0.156 A 
HETATM   22  C   UNK N   1      27.340  26.843  -7.833  0.00  0.00     0.214 A 
HETATM   23  O   UNK N   1      28.128  27.391  -8.592  0.00  0.00    -0.285 OA
BRANCH  19  24
HETATM   24  O   UNK N   1      25.250  23.730  -7.646  0.00  0.00    -0.350 OA
HETATM   25  C   UNK N   1      25.709  22.470  -7.341  0.00  0.00     0.210 C 
ENDBRANCH  19  24
BRANCH  21  26
HETATM   26  O   UNK N   1      27.134  24.999  -9.401  0.00  0.00    -0.350 OA
HETATM   27  C   UNK N   1      28.196  24.131  -9.505  0.00  0.00     0.210 C 
ENDBRANCH  21  26
ENDBRANCH   1  15
TORSDOF 15
ENDMDL
MODEL 7
REMARK VINA RESULT:      -4.8     17.240     21.418
REMARK  15 active torsions:
REMARK  status: ('A' for Active; 'I' for Inactive)
REMARK    1  A    between atoms: C_5  and  C_4 
REMARK    2  A    between atoms: C_6  and  C_4 
REMARK    3  A    between atoms: C_7  and  C_5 
REMARK    4  A    between atoms: C_8  and  C_6 
REMARK    5  A    between atoms: C_9  and  C_7 
REMARK    6  A    between atoms: C_10  and  C_8 
REMARK    7  A    between atoms: C_11  and  C_9 
REMARK    8  A    between atoms: C_12  and  C_10 
REMARK    9  A    between atoms: C_13  and  C_11 
REMARK   10  A    between atoms: C_15  and  C_12 
REMARK   11  A    between atoms: C_20  and  C_13 
REMARK   12  A    between atoms: O_23  and  C_18 
REMARK   13  A    between atoms: O_24  and  C_19 
REMARK   14  A    between atoms: C_20  and  C_25 
REMARK   15  A    between atoms: C_25  and  O_26 
ROOT
HETATM    1  C   UNK N   1      34.448  13.940  10.958  0.00  0.00     0.043 C 
ENDROOT
BRANCH   1   2
HETATM    2  C   UNK N   1      35.819  13.358  10.656  0.00  0.00     0.005 C 
BRANCH   2   3
HETATM    3  C   UNK N   1      36.592  13.205  11.953  0.00  0.00     0.000 C 
BRANCH   3   4
HETATM    4  C   UNK N   1      35.697  13.591  13.119  0.00  0.00     0.000 C 
BRANCH   4   5
HETATM    5  C   UNK N   1      36.501  14.228  14.238  0.00  0.00     0.000 C 
BRANCH   5   6
HETATM    6  C   UNK N   1      36.643  13.275  15.418  0.00  0.00     0.000 C 
BRANCH   6   7
HETATM    7  C   UNK N   1      35.368  13.245  16.247  0.00  0.00     0.000 C 
BRANCH   7   8
HETATM    8  C   UNK N   1      35.353  12.042  17.181  0.00  0.00     0.000 C 
BRANCH   8   9
HETATM    9  C   UNK N   1      36.022  10.848  16.524  0.00  0.00     0.000 C 
BRANCH   9  10
HETATM   10  C   UNK N   1      34.996   9.974  15.841  0.00  0.00     0.002 C 
BRANCH  10  11
HETATM   11  C   UNK N   1      35.233   9.991  14.347  0.00  0.00     0.026 C 
BRANCH  11  12
HETATM   12  C   UNK N   1      33.970  10.444  13.650  0.00  0.00     0.164 C 
BRANCH  12  13
HETATM   13  O   UNK N   1      33.043  10.862  14.601  0.00  0.00    -0.401 OA
HETATM   14  H   UNK N   1      33.197  11.634  15.168  0.00  0.00     0.209 HD
ENDBRANCH  12  13
ENDBRANCH  11  12
ENDBRANCH  10  11
ENDBRANCH   9  10
ENDBRANCH   8   9
ENDBRANCH   7   8
ENDBRANCH   6   7
ENDBRANCH   5   6
ENDBRANCH   4   5
ENDBRANCH   3   4
ENDBRANCH   2   3
ENDBRANCH   1   2
BRANCH   1  15
HETATM   15  C   UNK N   1      33.993  14.895   9.886  0.00  0.00     0.005 A 
HETATM   16  C   UNK N   1      34.505  16.143   9.815  0.00  0.00     0.001 A 
HETATM   17  C   UNK N   1      35.521  16.619  10.808  0.00  0.00     0.053 C 
HETATM   18  C   UNK N   1      34.080  17.061   8.733  0.00  0.00     0.214 A 
HETATM   19  C   UNK N   1      33.127  16.615   7.687  0.00  0.00     0.156 A 
HETATM   20  O   UNK N   1      34.542  18.193   8.682  0.00  0.00    -0.285 OA
HETATM   21  C   UNK N   1      32.588  15.357   7.771  0.00  0.00     0.156 A 
HETATM   22  C   UNK N   1      32.996  14.455   8.878  0.00  0.00     0.214 A 
HETATM   23  O   UNK N   1      32.507  13.336   8.951  0.00  0.00    -0.285 OA
BRANCH  19  24
HETATM   24  O   UNK N   1      32.861  17.493   6.677  0.00  0.00    -0.350 OA
HETATM   25  C   UNK N   1      33.407  17.465   5.414  0.00  0.00     0.210 C 
ENDBRANCH  19  24
BRANCH  21  26
HETATM   26  O   UNK N   1      31.682  14.884   6.881  0.00  0.00    -0.350 OA
HETATM   27  C   UNK N   1      32.056  14.114   5.804  0.00  0.00     0.210 C 
ENDBRANCH  21  26
ENDBRANCH   1  15
TORSDOF 15
ENDMDL
MODEL 8
REMARK VINA RESULT:      -4.7     10.373     14.530
REMARK  15 active torsions:
REMARK  status: ('A' for Active; 'I' for Inactive)
REMARK    1  A    between atoms: C_5  and  C_4 
REMARK    2  A    between atoms: C_6  and  C_4 
REMARK    3  A    between atoms: C_7  and  C_5 
REMARK    4  A    between atoms: C_8  and  C_6 
REMARK    5  A    between atoms: C_9  and  C_7 
REMARK    6  A    between atoms: C_10  and  C_8 
REMARK    7  A    between atoms: C_11  and  C_9 
REMARK    8  A    between atoms: C_12  and  C_10 
REMARK    9  A    between atoms: C_13  and  C_11 
REMARK   10  A    between atoms: C_15  and  C_12 
REMARK   11  A    between atoms: C_20  and  C_13 
REMARK   12  A    between atoms: O_23  and  C_18 
REMARK   13  A    between atoms: O_24  and  C_19 
REMARK   14  A    between atoms: C_20  and  C_25 
REMARK   15  A    between atoms: C_25  and  O_26 
ROOT
HETATM    1  C   UNK N   1      28.583  16.310   5.378  0.00  0.00     0.043 C 
ENDROOT
BRANCH   1   2
HETATM    2  C   UNK N   1      28.596  17.102   4.081  0.00  0.00     0.005 C 
BRANCH   2   3
HETATM    3  C   UNK N   1      27.404  18.041   4.060  0.00  0.00     0.000 C 
BRANCH   3   4
HETATM    4  C   UNK N   1      27.852  19.431   4.478  0.00  0.00     0.000 C 
BRANCH   4   5
HETATM    5  C   UNK N   1      26.709  20.424   4.389  0.00  0.00     0.000 C 
BRANCH   5   6
HETATM    6  C   UNK N   1      26.165  20.504   2.968  0.00  0.00     0.000 C 
BRANCH   6   7
HETATM    7  C   UNK N   1      24.644  20.537   2.970  0.00  0.00     0.000 C 
BRANCH   7   8
HETATM    8  C   UNK N   1      24.070  19.262   3.571  0.00  0.00     0.000 C 
BRANCH   8   9
HETATM    9  C   UNK N   1      22.560  19.360   3.689  0.00  0.00     0.000 C 
BRANCH   9  10
HETATM   10  C   UNK N   1      22.015  20.367   2.703  0.00  0.00     0.002 C 
BRANCH  10  11
HETATM   11  C   UNK N   1      20.849  19.761   1.955  0.00  0.00     0.026 C 
BRANCH  11  12
HETATM   12  C   UNK N   1      20.286  20.786   0.997  0.00  0.00     0.164 C 
BRANCH  12  13
HETATM   13  O   UNK N   1      21.176  20.969  -0.058  0.00  0.00    -0.401 OA
HETATM   14  H   UNK N   1      21.788  20.273  -0.345  0.00  0.00     0.209 HD
ENDBRANCH  12  13
ENDBRANCH  11  12
ENDBRANCH  10  11
ENDBRANCH   9  10
ENDBRANCH   8   9
ENDBRANCH   7   8
ENDBRANCH   6   7
ENDBRANCH   5   6
ENDBRANCH   4   5
ENDBRANCH   3   4
ENDBRANCH   2   3
ENDBRANCH   1   2
BRANCH   1  15
HETATM   15  C   UNK N   1      29.828  16.546   6.194  0.00  0.00     0.005 A 
HETATM   16  C   UNK N   1      29.806  17.381   7.255  0.00  0.00     0.001 A 
HETATM   17  C   UNK N   1      28.554  18.112   7.637  0.00  0.00     0.053 C 
HETATM   18  C   UNK N   1      31.024  17.576   8.075  0.00  0.00     0.214 A 
HETATM   19  C   UNK N   1      32.269  16.826   7.777  0.00  0.00     0.156 A 
HETATM   20  O   UNK N   1      30.998  18.343   9.028  0.00  0.00    -0.285 OA
HETATM   21  C   UNK N   1      32.300  15.995   6.687  0.00  0.00     0.156 A 
HETATM   22  C   UNK N   1      31.083  15.831   5.852  0.00  0.00     0.214 A 
HETATM   23  O   UNK N   1      31.119  15.094   4.877  0.00  0.00    -0.285 OA
BRANCH  19  24
HETATM   24  O   UNK N   1      33.314  16.996   8.637  0.00  0.00    -0.350 OA
HETATM   25  C   UNK N   1      34.361  17.874   8.476  0.00  0.00     0.210 C 
ENDBRANCH  19  24
BRANCH  21  26
HETATM   26  O   UNK N   1      33.407  15.303   6.321  0.00  0.00    -0.350 OA
HETATM   27  C   UNK N   1      34.418  15.885   5.591  0.00  0.00     0.210 C 
ENDBRANCH  21  26
ENDBRANCH   1  15
TORSDOF 15
ENDMDL
MODEL 9
REMARK VINA RESULT:      -4.7     13.850     17.279
REMARK  15 active torsions:
REMARK  status: ('A' for Active; 'I' for Inactive)
REMARK    1  A    between atoms: C_5  and  C_4 
REMARK    2  A    between atoms: C_6  and  C_4 
REMARK    3  A    between atoms: C_7  and  C_5 
REMARK    4  A    between atoms: C_8  and  C_6 
REMARK    5  A    between atoms: C_9  and  C_7 
REMARK    6  A    between atoms: C_10  and  C_8 
REMARK    7  A    between atoms: C_11  and  C_9 
REMARK    8  A    between atoms: C_12  and  C_10 
REMARK    9  A    between atoms: C_13  and  C_11 
REMARK   10  A    between atoms: C_15  and  C_12 
REMARK   11  A    between atoms: C_20  and  C_13 
REMARK   12  A    between atoms: O_23  and  C_18 
REMARK   13  A    between atoms: O_24  and  C_19 
REMARK   14  A    between atoms: C_20  and  C_25 
REMARK   15  A    between atoms: C_25  and  O_26 
ROOT
HETATM    1  C   UNK N   1      32.727  16.486   6.411  0.00  0.00     0.043 C 
ENDROOT
BRANCH   1   2
HETATM    2  C   UNK N   1      33.456  16.864   5.132  0.00  0.00     0.005 C 
BRANCH   2   3
HETATM    3  C   UNK N   1      32.522  17.666   4.245  0.00  0.00     0.000 C 
BRANCH   3   4
HETATM    4  C   UNK N   1      31.791  16.724   3.303  0.00  0.00     0.000 C 
BRANCH   4   5
HETATM    5  C   UNK N   1      30.310  16.667   3.628  0.00  0.00     0.000 C 
BRANCH   5   6
HETATM    6  C   UNK N   1      29.942  15.333   4.267  0.00  0.00     0.000 C 
BRANCH   6   7
HETATM    7  C   UNK N   1      29.159  15.544   5.553  0.00  0.00     0.000 C 
BRANCH   7   8
HETATM    8  C   UNK N   1      29.171  17.010   5.966  0.00  0.00     0.000 C 
BRANCH   8   9
HETATM    9  C   UNK N   1      27.927  17.349   6.767  0.00  0.00     0.000 C 
BRANCH   9  10
HETATM   10  C   UNK N   1      28.214  17.280   8.249  0.00  0.00     0.002 C 
BRANCH  10  11
HETATM   11  C   UNK N   1      28.539  18.664   8.765  0.00  0.00     0.026 C 
BRANCH  11  12
HETATM   12  C   UNK N   1      29.658  18.567   9.776  0.00  0.00     0.164 C 
BRANCH  12  13
HETATM   13  O   UNK N   1      30.546  17.566   9.387  0.00  0.00    -0.401 OA
HETATM   14  H   UNK N   1      30.819  17.448   8.464  0.00  0.00     0.209 HD
ENDBRANCH  12  13
ENDBRANCH  11  12
ENDBRANCH  10  11
ENDBRANCH   9  10
ENDBRANCH   8   9
ENDBRANCH   7   8
ENDBRANCH   6   7
ENDBRANCH   5   6
ENDBRANCH   4   5
ENDBRANCH   3   4
ENDBRANCH   2   3
ENDBRANCH   1   2
BRANCH   1  15
HETATM   15  C   UNK N   1      33.682  16.146   7.525  0.00  0.00     0.005 A 
HETATM   16  C   UNK N   1      34.155  17.110   8.343  0.00  0.00     0.001 A 
HETATM   17  C   UNK N   1      33.763  18.544   8.154  0.00  0.00     0.053 C 
HETATM   18  C   UNK N   1      35.063  16.759   9.460  0.00  0.00     0.214 A 
HETATM   19  C   UNK N   1      35.428  15.347   9.728  0.00  0.00     0.156 A 
HETATM   20  O   UNK N   1      35.495  17.642  10.190  0.00  0.00    -0.285 OA
HETATM   21  C   UNK N   1      34.968  14.369   8.885  0.00  0.00     0.156 A 
HETATM   22  C   UNK N   1      34.085  14.734   7.748  0.00  0.00     0.214 A 
HETATM   23  O   UNK N   1      33.682  13.858   6.995  0.00  0.00    -0.285 OA
BRANCH  19  24
HETATM   24  O   UNK N   1      36.194  15.105  10.831  0.00  0.00    -0.350 OA
HETATM   25  C   UNK N   1      35.728  14.860  12.103  0.00  0.00     0.210 C 
ENDBRANCH  19  24
BRANCH  21  26
HETATM   26  O   UNK N   1      35.285  13.060   9.034  0.00  0.00    -0.350 OA
HETATM   27  C   UNK N   1      34.534  12.216   9.819  0.00  0.00     0.210 C 
ENDBRANCH  21  26
ENDBRANCH   1  15
TORSDOF 15
ENDMDL
