MODEL 1
REMARK VINA RESULT:      -5.8      0.000      0.000
REMARK  7 active torsions:
REMARK  status: ('A' for Active; 'I' for Inactive)
REMARK    1  A    between atoms: N_2  and  C_4 
REMARK    2  A    between atoms: C_4  and  C_5 
REMARK    3  A    between atoms: C_5  and  C_6 
REMARK    4  A    between atoms: C_13  and  O_14 
REMARK    5  A    between atoms: O_14  and  P_15 
REMARK    6  A    between atoms: P_15  and  O_16 
REMARK    7  A    between atoms: P_15  and  O_17 
ROOT
HETATM    1  C   UNK N   1      32.805  17.535   6.954  0.00  0.00    -0.026 A 
HETATM    2  C   UNK N   1      33.680  17.444   5.878  0.00  0.00     0.096 A 
HETATM    3  N   UNK N   1      32.996  17.060   4.768  0.00  0.00    -0.365 N 
HETATM    4  C   UNK N   1      31.714  16.924   5.148  0.00  0.00     0.045 A 
HETATM    5  C   UNK N   1      30.639  16.558   4.340  0.00  0.00     0.030 A 
HETATM    6  C   UNK N   1      29.367  16.483   4.933  0.00  0.00     0.005 A 
HETATM    7  C   UNK N   1      29.201  16.768   6.307  0.00  0.00     0.038 A 
HETATM    8  C   UNK N   1      30.312  17.137   7.101  0.00  0.00     0.094 A 
HETATM    9  C   UNK N   1      31.558  17.204   6.475  0.00  0.00     0.032 A 
HETATM   10  H   UNK N   1      33.365  16.911   3.868  0.00  0.00     0.165 HD
ENDROOT
BRANCH   8  11
HETATM   11  O   UNK N   1      30.198  17.408   8.422  0.00  0.00    -0.254 OA
BRANCH  11  12
HETATM   12  P   UNK N   1      28.696  17.515   9.252  0.00  0.00     0.396 P 
HETATM   13  O   UNK N   1      28.589  16.707  10.573  0.00  0.00    -0.631 OA
BRANCH  12  14
HETATM   14  O   UNK N   1      27.617  18.864   9.092  0.00  0.00    -0.307 OA
HETATM   15  H   UNK N   1      26.855  18.867   8.491  0.00  0.00     0.222 HD
ENDBRANCH  12  14
BRANCH  12  16
HETATM   16  O   UNK N   1      29.588  18.658  10.196  0.00  0.00    -0.307 OA
HETATM   17  H   UNK N   1      30.222  19.377  10.047  0.00  0.00     0.222 HD
ENDBRANCH  12  16
ENDBRANCH  11  12
ENDBRANCH   8  11
BRANCH   1  18
HETATM   18  C   UNK N   1      33.141  17.962   8.347  0.00  0.00     0.071 C 
BRANCH  18  19
HETATM   19  C   UNK N   1      34.543  17.529   8.774  0.00  0.00     0.276 C 
BRANCH  19  20
HETATM   20  N   UNK N   1      34.526  16.362   9.656  0.00  0.00     0.080 N 
HETATM   21  C   UNK N   1      35.078  15.260   8.887  0.00  0.00     0.309 C 
HETATM   22  C   UNK N   1      35.430  16.561  10.780  0.00  0.00     0.309 C 
ENDBRANCH  19  20
ENDBRANCH  18  19
ENDBRANCH   1  18
TORSDOF 7
ENDMDL
MODEL 2
REMARK VINA RESULT:      -5.7      3.569      5.355
REMARK  7 active torsions:
REMARK  status: ('A' for Active; 'I' for Inactive)
REMARK    1  A    between atoms: N_2  and  C_4 
REMARK    2  A    between atoms: C_4  and  C_5 
REMARK    3  A    between atoms: C_5  and  C_6 
REMARK    4  A    between atoms: C_13  and  O_14 
REMARK    5  A    between atoms: O_14  and  P_15 
REMARK    6  A    between atoms: P_15  and  O_16 
REMARK    7  A    between atoms: P_15  and  O_17 
ROOT
HETATM    1  C   UNK N   1      29.881  16.388   6.154  0.00  0.00    -0.026 A 
HETATM    2  C   UNK N   1      28.519  16.134   6.038  0.00  0.00     0.096 A 
HETATM    3  N   UNK N   1      27.858  16.724   7.068  0.00  0.00    -0.365 N 
HETATM    4  C   UNK N   1      28.795  17.344   7.806  0.00  0.00     0.045 A 
HETATM    5  C   UNK N   1      28.584  18.097   8.959  0.00  0.00     0.030 A 
HETATM    6  C   UNK N   1      29.705  18.675   9.581  0.00  0.00     0.005 A 
HETATM    7  C   UNK N   1      30.997  18.485   9.043  0.00  0.00     0.038 A 
HETATM    8  C   UNK N   1      31.178  17.716   7.870  0.00  0.00     0.094 A 
HETATM    9  C   UNK N   1      30.042  17.161   7.280  0.00  0.00     0.032 A 
HETATM   10  H   UNK N   1      26.889  16.703   7.239  0.00  0.00     0.165 HD
ENDROOT
BRANCH   8  11
HETATM   11  O   UNK N   1      32.400  17.501   7.329  0.00  0.00    -0.254 OA
BRANCH  11  12
HETATM   12  P   UNK N   1      33.875  17.657   8.199  0.00  0.00     0.396 P 
HETATM   13  O   UNK N   1      34.703  16.356   8.374  0.00  0.00    -0.631 OA
BRANCH  12  14
HETATM   14  O   UNK N   1      34.760  19.145   8.310  0.00  0.00    -0.307 OA
HETATM   15  H   UNK N   1      34.929  19.721   7.547  0.00  0.00     0.222 HD
ENDBRANCH  12  14
BRANCH  12  16
HETATM   16  O   UNK N   1      34.525  17.678   6.595  0.00  0.00    -0.307 OA
HETATM   17  H   UNK N   1      34.210  17.539   5.689  0.00  0.00     0.222 HD
ENDBRANCH  12  16
ENDBRANCH  11  12
ENDBRANCH   8  11
BRANCH   1  18
HETATM   18  C   UNK N   1      30.955  15.955   5.209  0.00  0.00     0.071 C 
BRANCH  18  19
HETATM   19  C   UNK N   1      30.667  16.357   3.763  0.00  0.00     0.276 C 
BRANCH  19  20
HETATM   20  N   UNK N   1      31.886  16.581   2.987  0.00  0.00     0.080 N 
HETATM   21  C   UNK N   1      32.630  17.617   3.684  0.00  0.00     0.309 C 
HETATM   22  C   UNK N   1      32.730  15.393   3.013  0.00  0.00     0.309 C 
ENDBRANCH  19  20
ENDBRANCH  18  19
ENDBRANCH   1  18
TORSDOF 7
ENDMDL
MODEL 3
REMARK VINA RESULT:      -5.6      3.221      4.509
REMARK  7 active torsions:
REMARK  status: ('A' for Active; 'I' for Inactive)
REMARK    1  A    between atoms: N_2  and  C_4 
REMARK    2  A    between atoms: C_4  and  C_5 
REMARK    3  A    between atoms: C_5  and  C_6 
REMARK    4  A    between atoms: C_13  and  O_14 
REMARK    5  A    between atoms: O_14  and  P_15 
REMARK    6  A    between atoms: P_15  and  O_16 
REMARK    7  A    between atoms: P_15  and  O_17 
ROOT
HETATM    1  C   UNK N   1      29.583  17.194   5.744  0.00  0.00    -0.026 A 
HETATM    2  C   UNK N   1      28.906  17.249   4.531  0.00  0.00     0.096 A 
HETATM    3  N   UNK N   1      29.803  17.270   3.510  0.00  0.00    -0.365 N 
HETATM    4  C   UNK N   1      31.019  17.218   4.081  0.00  0.00     0.045 A 
HETATM    5  C   UNK N   1      32.248  17.201   3.425  0.00  0.00     0.030 A 
HETATM    6  C   UNK N   1      33.412  17.135   4.211  0.00  0.00     0.005 A 
HETATM    7  C   UNK N   1      33.321  17.091   5.620  0.00  0.00     0.038 A 
HETATM    8  C   UNK N   1      32.058  17.109   6.256  0.00  0.00     0.094 A 
HETATM    9  C   UNK N   1      30.926  17.172   5.443  0.00  0.00     0.032 A 
HETATM   10  H   UNK N   1      29.603  17.313   2.548  0.00  0.00     0.165 HD
ENDROOT
BRANCH   8  11
HETATM   11  O   UNK N   1      31.928  17.079   7.603  0.00  0.00    -0.254 OA
BRANCH  11  12
HETATM   12  P   UNK N   1      32.323  15.716   8.574  0.00  0.00     0.396 P 
HETATM   13  O   UNK N   1      33.720  15.086   8.329  0.00  0.00    -0.631 OA
BRANCH  12  14
HETATM   14  O   UNK N   1      31.616  15.424  10.132  0.00  0.00    -0.307 OA
HETATM   15  H   UNK N   1      30.744  15.759  10.391  0.00  0.00     0.222 HD
ENDBRANCH  12  14
BRANCH  12  16
HETATM   16  O   UNK N   1      33.186  16.921   9.467  0.00  0.00    -0.307 OA
HETATM   17  H   UNK N   1      33.449  17.087  10.386  0.00  0.00     0.222 HD
ENDBRANCH  12  16
ENDBRANCH  11  12
ENDBRANCH   8  11
BRANCH   1  18
HETATM   18  C   UNK N   1      28.974  17.117   7.106  0.00  0.00     0.071 C 
BRANCH  18  19
HETATM   19  C   UNK N   1      28.576  18.487   7.653  0.00  0.00     0.276 C 
BRANCH  19  20
HETATM   20  N   UNK N   1      28.424  18.489   9.108  0.00  0.00     0.080 N 
HETATM   21  C   UNK N   1      27.953  17.164   9.472  0.00  0.00     0.309 C 
HETATM   22  C   UNK N   1      29.721  18.647   9.754  0.00  0.00     0.309 C 
ENDBRANCH  19  20
ENDBRANCH  18  19
ENDBRANCH   1  18
TORSDOF 7
ENDMDL
MODEL 4
REMARK VINA RESULT:      -5.5      2.002      5.142
REMARK  7 active torsions:
REMARK  status: ('A' for Active; 'I' for Inactive)
REMARK    1  A    between atoms: N_2  and  C_4 
REMARK    2  A    between atoms: C_4  and  C_5 
REMARK    3  A    between atoms: C_5  and  C_6 
REMARK    4  A    between atoms: C_13  and  O_14 
REMARK    5  A    between atoms: O_14  and  P_15 
REMARK    6  A    between atoms: P_15  and  O_16 
REMARK    7  A    between atoms: P_15  and  O_17 
ROOT
HETATM    1  C   UNK N   1      30.964  17.012   4.812  0.00  0.00    -0.026 A 
HETATM    2  C   UNK N   1      32.023  17.062   3.913  0.00  0.00     0.096 A 
HETATM    3  N   UNK N   1      33.175  17.330   4.583  0.00  0.00    -0.365 N 
HETATM    4  C   UNK N   1      32.838  17.434   5.879  0.00  0.00     0.045 A 
HETATM    5  C   UNK N   1      33.696  17.688   6.947  0.00  0.00     0.030 A 
HETATM    6  C   UNK N   1      33.141  17.748   8.237  0.00  0.00     0.005 A 
HETATM    7  C   UNK N   1      31.754  17.560   8.427  0.00  0.00     0.038 A 
HETATM    8  C   UNK N   1      30.908  17.303   7.323  0.00  0.00     0.094 A 
HETATM    9  C   UNK N   1      31.496  17.247   6.059  0.00  0.00     0.032 A 
HETATM   10  H   UNK N   1      34.075  17.427   4.197  0.00  0.00     0.165 HD
ENDROOT
BRANCH   8  11
HETATM   11  O   UNK N   1      29.573  17.127   7.462  0.00  0.00    -0.254 OA
BRANCH  11  12
HETATM   12  P   UNK N   1      28.494  18.354   7.997  0.00  0.00     0.396 P 
HETATM   13  O   UNK N   1      28.027  19.368   6.919  0.00  0.00    -0.631 OA
BRANCH  12  14
HETATM   14  O   UNK N   1      27.454  18.169   9.373  0.00  0.00    -0.307 OA
HETATM   15  H   UNK N   1      27.440  18.792  10.117  0.00  0.00     0.222 HD
ENDBRANCH  12  14
BRANCH  12  16
HETATM   16  O   UNK N   1      27.331  17.288   7.286  0.00  0.00    -0.307 OA
HETATM   17  H   UNK N   1      27.326  16.517   6.698  0.00  0.00     0.222 HD
ENDBRANCH  12  16
ENDBRANCH  11  12
ENDBRANCH   8  11
BRANCH   1  18
HETATM   18  C   UNK N   1      29.536  16.706   4.496  0.00  0.00     0.071 C 
BRANCH  18  19
HETATM   19  C   UNK N   1      29.306  16.434   3.010  0.00  0.00     0.276 C 
BRANCH  19  20
HETATM   20  N   UNK N   1      27.994  15.845   2.742  0.00  0.00     0.080 N 
HETATM   21  C   UNK N   1      28.050  14.480   3.237  0.00  0.00     0.309 C 
HETATM   22  C   UNK N   1      26.966  16.516   3.526  0.00  0.00     0.309 C 
ENDBRANCH  19  20
ENDBRANCH  18  19
ENDBRANCH   1  18
TORSDOF 7
ENDMDL
MODEL 5
REMARK VINA RESULT:      -5.5      3.669      6.196
REMARK  7 active torsions:
REMARK  status: ('A' for Active; 'I' for Inactive)
REMARK    1  A    between atoms: N_2  and  C_4 
REMARK    2  A    between atoms: C_4  and  C_5 
REMARK    3  A    between atoms: C_5  and  C_6 
REMARK    4  A    between atoms: C_13  and  O_14 
REMARK    5  A    between atoms: O_14  and  P_15 
REMARK    6  A    between atoms: P_15  and  O_16 
REMARK    7  A    between atoms: P_15  and  O_17 
ROOT
HETATM    1  C   UNK N   1      30.116  17.092   7.307  0.00  0.00    -0.026 A 
HETATM    2  C   UNK N   1      29.865  17.718   8.524  0.00  0.00     0.096 A 
HETATM    3  N   UNK N   1      31.036  18.155   9.059  0.00  0.00    -0.365 N 
HETATM    4  C   UNK N   1      31.997  17.815   8.183  0.00  0.00     0.045 A 
HETATM    5  C   UNK N   1      33.361  18.073   8.300  0.00  0.00     0.030 A 
HETATM    6  C   UNK N   1      34.204  17.640   7.261  0.00  0.00     0.005 A 
HETATM    7  C   UNK N   1      33.668  16.963   6.143  0.00  0.00     0.038 A 
HETATM    8  C   UNK N   1      32.278  16.717   6.052  0.00  0.00     0.094 A 
HETATM    9  C   UNK N   1      31.474  17.164   7.101  0.00  0.00     0.032 A 
HETATM   10  H   UNK N   1      31.156  18.625   9.915  0.00  0.00     0.165 HD
ENDROOT
BRANCH   8  11
HETATM   11  O   UNK N   1      31.728  16.063   5.003  0.00  0.00    -0.254 OA
BRANCH  11  12
HETATM   12  P   UNK N   1      31.742  16.655   3.389  0.00  0.00     0.396 P 
HETATM   13  O   UNK N   1      33.028  16.367   2.569  0.00  0.00    -0.631 OA
BRANCH  12  14
HETATM   14  O   UNK N   1      30.298  16.941   2.470  0.00  0.00    -0.307 OA
HETATM   15  H   UNK N   1      30.159  16.591   1.576  0.00  0.00     0.222 HD
ENDBRANCH  12  14
BRANCH  12  16
HETATM   16  O   UNK N   1      31.334  15.008   3.050  0.00  0.00    -0.307 OA
HETATM   17  H   UNK N   1      30.968  14.244   3.523  0.00  0.00     0.222 HD
ENDBRANCH  12  16
ENDBRANCH  11  12
ENDBRANCH   8  11
BRANCH   1  18
HETATM   18  C   UNK N   1      29.103  16.507   6.377  0.00  0.00     0.071 C 
BRANCH  18  19
HETATM   19  C   UNK N   1      27.898  17.423   6.165  0.00  0.00     0.276 C 
BRANCH  19  20
HETATM   20  N   UNK N   1      28.233  18.622   5.396  0.00  0.00     0.080 N 
HETATM   21  C   UNK N   1      27.562  18.487   4.115  0.00  0.00     0.309 C 
HETATM   22  C   UNK N   1      27.663  19.805   6.026  0.00  0.00     0.309 C 
ENDBRANCH  19  20
ENDBRANCH  18  19
ENDBRANCH   1  18
TORSDOF 7
ENDMDL
MODEL 6
REMARK VINA RESULT:      -5.5     14.306     15.405
REMARK  7 active torsions:
REMARK  status: ('A' for Active; 'I' for Inactive)
REMARK    1  A    between atoms: N_2  and  C_4 
REMARK    2  A    between atoms: C_4  and  C_5 
REMARK    3  A    between atoms: C_5  and  C_6 
REMARK    4  A    between atoms: C_13  and  O_14 
REMARK    5  A    between atoms: O_14  and  P_15 
REMARK    6  A    between atoms: P_15  and  O_16 
REMARK    7  A    between atoms: P_15  and  O_17 
ROOT
HETATM    1  C   UNK N   1      26.790  24.510  -4.907  0.00  0.00    -0.026 A 
HETATM    2  C   UNK N   1      25.568  24.634  -5.559  0.00  0.00     0.096 A 
HETATM    3  N   UNK N   1      25.545  23.809  -6.639  0.00  0.00    -0.365 N 
HETATM    4  C   UNK N   1      26.729  23.174  -6.650  0.00  0.00     0.045 A 
HETATM    5  C   UNK N   1      27.155  22.216  -7.568  0.00  0.00     0.030 A 
HETATM    6  C   UNK N   1      28.436  21.663  -7.396  0.00  0.00     0.005 A 
HETATM    7  C   UNK N   1      29.255  22.079  -6.323  0.00  0.00     0.038 A 
HETATM    8  C   UNK N   1      28.795  23.053  -5.407  0.00  0.00     0.094 A 
HETATM    9  C   UNK N   1      27.517  23.576  -5.609  0.00  0.00     0.032 A 
HETATM   10  H   UNK N   1      24.809  23.697  -7.283  0.00  0.00     0.165 HD
ENDROOT
BRANCH   8  11
HETATM   11  O   UNK N   1      29.552  23.486  -4.372  0.00  0.00    -0.254 OA
BRANCH  11  12
HETATM   12  P   UNK N   1      30.039  22.490  -3.057  0.00  0.00     0.396 P 
HETATM   13  O   UNK N   1      30.655  21.117  -3.435  0.00  0.00    -0.631 OA
BRANCH  12  14
HETATM   14  O   UNK N   1      30.472  23.119  -1.500  0.00  0.00    -0.307 OA
HETATM   15  H   UNK N   1      29.829  23.267  -0.788  0.00  0.00     0.222 HD
ENDBRANCH  12  14
BRANCH  12  16
HETATM   16  O   UNK N   1      31.590  23.135  -3.474  0.00  0.00    -0.307 OA
HETATM   17  H   UNK N   1      32.495  23.116  -3.126  0.00  0.00     0.222 HD
ENDBRANCH  12  16
ENDBRANCH  11  12
ENDBRANCH   8  11
BRANCH   1  18
HETATM   18  C   UNK N   1      27.210  25.210  -3.655  0.00  0.00     0.071 C 
BRANCH  18  19
HETATM   19  C   UNK N   1      27.544  26.683  -3.887  0.00  0.00     0.276 C 
BRANCH  19  20
HETATM   20  N   UNK N   1      26.657  27.584  -3.151  0.00  0.00     0.080 N 
HETATM   21  C   UNK N   1      27.442  28.765  -2.837  0.00  0.00     0.309 C 
HETATM   22  C   UNK N   1      25.569  28.038  -4.007  0.00  0.00     0.309 C 
ENDBRANCH  19  20
ENDBRANCH  18  19
ENDBRANCH   1  18
TORSDOF 7
ENDMDL
MODEL 7
REMARK VINA RESULT:      -5.5      8.483     10.521
REMARK  7 active torsions:
REMARK  status: ('A' for Active; 'I' for Inactive)
REMARK    1  A    between atoms: N_2  and  C_4 
REMARK    2  A    between atoms: C_4  and  C_5 
REMARK    3  A    between atoms: C_5  and  C_6 
REMARK    4  A    between atoms: C_13  and  O_14 
REMARK    5  A    between atoms: O_14  and  P_15 
REMARK    6  A    between atoms: P_15  and  O_16 
REMARK    7  A    between atoms: P_15  and  O_17 
ROOT
HETATM    1  C   UNK N   1      23.410  17.275   4.665  0.00  0.00    -0.026 A 
HETATM    2  C   UNK N   1      24.457  16.404   4.947  0.00  0.00     0.096 A 
HETATM    3  N   UNK N   1      25.631  16.963   4.554  0.00  0.00    -0.365 N 
HETATM    4  C   UNK N   1      25.320  18.167   4.045  0.00  0.00     0.045 A 
HETATM    5  C   UNK N   1      26.206  19.110   3.529  0.00  0.00     0.030 A 
HETATM    6  C   UNK N   1      25.675  20.321   3.052  0.00  0.00     0.005 A 
HETATM    7  C   UNK N   1      24.283  20.557   3.097  0.00  0.00     0.038 A 
HETATM    8  C   UNK N   1      23.408  19.580   3.628  0.00  0.00     0.094 A 
HETATM    9  C   UNK N   1      23.973  18.393   4.095  0.00  0.00     0.032 A 
HETATM   10  H   UNK N   1      26.529  16.567   4.627  0.00  0.00     0.165 HD
ENDROOT
BRANCH   8  11
HETATM   11  O   UNK N   1      22.068  19.764   3.680  0.00  0.00    -0.254 OA
BRANCH  11  12
HETATM   12  P   UNK N   1      21.056  19.844   2.292  0.00  0.00     0.396 P 
HETATM   13  O   UNK N   1      19.532  19.711   2.552  0.00  0.00    -0.631 OA
BRANCH  12  14
HETATM   14  O   UNK N   1      21.514  20.658   0.830  0.00  0.00    -0.307 OA
HETATM   15  H   UNK N   1      20.989  20.623   0.015  0.00  0.00     0.222 HD
ENDBRANCH  12  14
BRANCH  12  16
HETATM   16  O   UNK N   1      20.858  21.473   2.844  0.00  0.00    -0.307 OA
HETATM   17  H   UNK N   1      21.229  22.051   3.527  0.00  0.00     0.222 HD
ENDBRANCH  12  16
ENDBRANCH  11  12
ENDBRANCH   8  11
BRANCH   1  18
HETATM   18  C   UNK N   1      21.963  17.063   4.973  0.00  0.00     0.071 C 
BRANCH  18  19
HETATM   19  C   UNK N   1      21.599  17.461   6.402  0.00  0.00     0.276 C 
BRANCH  19  20
HETATM   20  N   UNK N   1      20.347  16.856   6.853  0.00  0.00     0.080 N 
HETATM   21  C   UNK N   1      20.285  15.539   6.243  0.00  0.00     0.309 C 
HETATM   22  C   UNK N   1      20.380  16.631   8.292  0.00  0.00     0.309 C 
ENDBRANCH  19  20
ENDBRANCH  18  19
ENDBRANCH   1  18
TORSDOF 7
ENDMDL
MODEL 8
REMARK VINA RESULT:      -5.3     10.107     12.052
REMARK  7 active torsions:
REMARK  status: ('A' for Active; 'I' for Inactive)
REMARK    1  A    between atoms: N_2  and  C_4 
REMARK    2  A    between atoms: C_4  and  C_5 
REMARK    3  A    between atoms: C_5  and  C_6 
REMARK    4  A    between atoms: C_13  and  O_14 
REMARK    5  A    between atoms: O_14  and  P_15 
REMARK    6  A    between atoms: P_15  and  O_16 
REMARK    7  A    between atoms: P_15  and  O_17 
ROOT
HETATM    1  C   UNK N   1      35.229  10.127  16.324  0.00  0.00    -0.026 A 
HETATM    2  C   UNK N   1      35.182   9.095  17.255  0.00  0.00     0.096 A 
HETATM    3  N   UNK N   1      35.175   9.616  18.510  0.00  0.00    -0.365 N 
HETATM    4  C   UNK N   1      35.206  10.952  18.361  0.00  0.00     0.045 A 
HETATM    5  C   UNK N   1      35.196  11.906  19.376  0.00  0.00     0.030 A 
HETATM    6  C   UNK N   1      35.222  13.261  19.005  0.00  0.00     0.005 A 
HETATM    7  C   UNK N   1      35.261  13.628  17.642  0.00  0.00     0.038 A 
HETATM    8  C   UNK N   1      35.270  12.636  16.634  0.00  0.00     0.094 A 
HETATM    9  C   UNK N   1      35.239  11.302  17.041  0.00  0.00     0.032 A 
HETATM   10  H   UNK N   1      35.152   9.117  19.358  0.00  0.00     0.165 HD
ENDROOT
BRANCH   8  11
HETATM   11  O   UNK N   1      35.318  12.946  15.317  0.00  0.00    -0.254 OA
BRANCH  11  12
HETATM   12  P   UNK N   1      36.452  14.041  14.629  0.00  0.00     0.396 P 
HETATM   13  O   UNK N   1      37.446  14.702  15.620  0.00  0.00    -0.631 OA
BRANCH  12  14
HETATM   14  O   UNK N   1      36.961  13.963  12.973  0.00  0.00    -0.307 OA
HETATM   15  H   UNK N   1      36.505  14.429  12.254  0.00  0.00     0.222 HD
ENDBRANCH  12  14
BRANCH  12  16
HETATM   16  O   UNK N   1      37.481  12.654  14.752  0.00  0.00    -0.307 OA
HETATM   17  H   UNK N   1      37.390  11.702  14.906  0.00  0.00     0.222 HD
ENDBRANCH  12  16
ENDBRANCH  11  12
ENDBRANCH   8  11
BRANCH   1  18
HETATM   18  C   UNK N   1      35.212   9.991  14.836  0.00  0.00     0.071 C 
BRANCH  18  19
HETATM   19  C   UNK N   1      35.859   8.693  14.355  0.00  0.00     0.276 C 
BRANCH  19  20
HETATM   20  N   UNK N   1      36.859   8.916  13.311  0.00  0.00     0.080 N 
HETATM   21  C   UNK N   1      36.440  10.107  12.591  0.00  0.00     0.309 C 
HETATM   22  C   UNK N   1      38.150   9.237  13.903  0.00  0.00     0.309 C 
ENDBRANCH  19  20
ENDBRANCH  18  19
ENDBRANCH   1  18
TORSDOF 7
ENDMDL
MODEL 9
REMARK VINA RESULT:      -5.3     14.107     15.382
REMARK  7 active torsions:
REMARK  status: ('A' for Active; 'I' for Inactive)
REMARK    1  A    between atoms: N_2  and  C_4 
REMARK    2  A    between atoms: C_4  and  C_5 
REMARK    3  A    between atoms: C_5  and  C_6 
REMARK    4  A    between atoms: C_13  and  O_14 
REMARK    5  A    between atoms: O_14  and  P_15 
REMARK    6  A    between atoms: P_15  and  O_16 
REMARK    7  A    between atoms: P_15  and  O_17 
ROOT
HETATM    1  C   UNK N   1      27.486  23.796  -5.846  0.00  0.00    -0.026 A 
HETATM    2  C   UNK N   1      26.459  23.661  -6.775  0.00  0.00     0.096 A 
HETATM    3  N   UNK N   1      26.711  22.593  -7.577  0.00  0.00    -0.365 N 
HETATM    4  C   UNK N   1      27.870  22.067  -7.147  0.00  0.00     0.045 A 
HETATM    5  C   UNK N   1      28.519  20.945  -7.659  0.00  0.00     0.030 A 
HETATM    6  C   UNK N   1      29.726  20.551  -7.055  0.00  0.00     0.005 A 
HETATM    7  C   UNK N   1      30.253  21.282  -5.967  0.00  0.00     0.038 A 
HETATM    8  C   UNK N   1      29.570  22.416  -5.469  0.00  0.00     0.094 A 
HETATM    9  C   UNK N   1      28.374  22.774  -6.092  0.00  0.00     0.032 A 
HETATM   10  H   UNK N   1      26.156  22.269  -8.323  0.00  0.00     0.165 HD
ENDROOT
BRANCH   8  11
HETATM   11  O   UNK N   1      30.046  23.149  -4.436  0.00  0.00    -0.254 OA
BRANCH  11  12
HETATM   12  P   UNK N   1      30.103  22.591  -2.810  0.00  0.00     0.396 P 
HETATM   13  O   UNK N   1      31.512  22.245  -2.257  0.00  0.00    -0.631 OA
BRANCH  12  14
HETATM   14  O   UNK N   1      28.895  22.984  -1.629  0.00  0.00    -0.307 OA
HETATM   15  H   UNK N   1      27.954  22.772  -1.740  0.00  0.00     0.222 HD
ENDBRANCH  12  14
BRANCH  12  16
HETATM   16  O   UNK N   1      30.559  24.237  -2.528  0.00  0.00    -0.307 OA
HETATM   17  H   UNK N   1      30.134  25.108  -2.509  0.00  0.00     0.222 HD
ENDBRANCH  12  16
ENDBRANCH  11  12
ENDBRANCH   8  11
BRANCH   1  18
HETATM   18  C   UNK N   1      27.578  24.816  -4.758  0.00  0.00     0.071 C 
BRANCH  18  19
HETATM   19  C   UNK N   1      26.218  25.402  -4.381  0.00  0.00     0.276 C 
BRANCH  19  20
HETATM   20  N   UNK N   1      26.100  26.817  -4.730  0.00  0.00     0.080 N 
HETATM   21  C   UNK N   1      24.928  26.933  -5.581  0.00  0.00     0.309 C 
HETATM   22  C   UNK N   1      25.814  27.611  -3.543  0.00  0.00     0.309 C 
ENDBRANCH  19  20
ENDBRANCH  18  19
ENDBRANCH   1  18
TORSDOF 7
ENDMDL
