MODEL 1
REMARK VINA RESULT:      -7.3      0.000      0.000
REMARK  6 active torsions:
REMARK  status: ('A' for Active; 'I' for Inactive)
REMARK    1  A    between atoms: N_24  and  C_6 
REMARK    2  A    between atoms: N_25  and  C_7 
REMARK    3  A    between atoms: C_13  and  C_9 
REMARK    4  A    between atoms: C_16  and  C_11 
REMARK    5  A    between atoms: O_28  and  C_14 
REMARK    6  A    between atoms: O_29  and  C_15 
ROOT
HETATM    1  C   UNK N   1      28.267  17.210   7.877  0.00  0.00     0.158 C 
HETATM    2  C   UNK N   1      28.835  17.618   5.452  0.00  0.00     0.109 A 
HETATM    3  C   UNK N   1      30.513  17.274   6.744  0.00  0.00     0.149 A 
HETATM    4  C   UNK N   1      30.960  17.475   5.484  0.00  0.00     0.146 A 
HETATM    5  C   UNK N   1      31.415  17.065   7.782  0.00  0.00     0.282 A 
HETATM    6  C   UNK N   1      33.200  17.275   6.170  0.00  0.00     0.333 A 
HETATM    7  N   UNK N   1      29.930  17.693   4.652  0.00  0.00    -0.326 N 
ATOM      8  HN  UNK N   1      29.963  17.874   3.649  1.00  0.00     0.169 HD
HETATM    9  N   UNK N   1      29.167  17.345   6.742  0.00  0.00    -0.330 N 
HETATM   10  N   UNK N   1      32.274  17.475   5.157  0.00  0.00    -0.283 N 
HETATM   11  N   UNK N   1      32.769  17.073   7.483  0.00  0.00    -0.264 N 
HETATM   12  O   UNK N   1      31.024  16.896   8.926  0.00  0.00    -0.265 OA
HETATM   13  O   UNK N   1      34.393  17.282   5.911  0.00  0.00    -0.246 OA
ENDROOT
BRANCH   2  14
HETATM   14  C   UNK N   1      27.464  17.872   4.949  0.00  0.00     0.050 C 
HETATM   15  C   UNK N   1      27.200  19.055   4.362  0.00  0.00     0.015 C 
BRANCH  15  16
HETATM   16  C   UNK N   1      25.885  19.477   3.844  0.00  0.00    -0.033 A 
HETATM   17  C   UNK N   1      25.718  20.532   2.952  0.00  0.00     0.014 A 
HETATM   18  C   UNK N   1      24.435  20.879   2.527  0.00  0.00     0.040 A 
HETATM   19  C   UNK N   1      23.287  20.195   2.968  0.00  0.00     0.101 A 
HETATM   20  C   UNK N   1      23.466  19.093   3.893  0.00  0.00     0.102 A 
HETATM   21  C   UNK N   1      24.767  18.779   4.289  0.00  0.00     0.051 A 
BRANCH  19  22
HETATM   22  O   UNK N   1      22.118  20.660   2.445  0.00  0.00    -0.353 OA
HETATM   23  C   UNK N   1      21.093  19.993   1.832  0.00  0.00     0.210 C 
ENDBRANCH  19  22
BRANCH  20  24
HETATM   24  O   UNK N   1      22.511  18.297   4.450  0.00  0.00    -0.353 OA
HETATM   25  C   UNK N   1      22.200  18.070   5.763  0.00  0.00     0.210 C 
ENDBRANCH  20  24
ENDBRANCH  15  16
ENDBRANCH   2  14
BRANCH  10  26
HETATM   26  C   UNK N   1      32.677  17.676   3.764  0.00  0.00     0.131 C 
HETATM   27  C   UNK N   1      32.808  16.351   3.035  0.00  0.00     0.027 C 
ENDBRANCH  10  26
BRANCH  11  28
HETATM   28  C   UNK N   1      33.745  16.899   8.564  0.00  0.00     0.133 C 
HETATM   29  C   UNK N   1      34.089  15.434   8.764  0.00  0.00     0.027 C 
ENDBRANCH  11  28
TORSDOF 6
ENDMDL
MODEL 2
REMARK VINA RESULT:      -7.3      2.658      9.690
REMARK  6 active torsions:
REMARK  status: ('A' for Active; 'I' for Inactive)
REMARK    1  A    between atoms: N_24  and  C_6 
REMARK    2  A    between atoms: N_25  and  C_7 
REMARK    3  A    between atoms: C_13  and  C_9 
REMARK    4  A    between atoms: C_16  and  C_11 
REMARK    5  A    between atoms: O_28  and  C_14 
REMARK    6  A    between atoms: O_29  and  C_15 
ROOT
HETATM    1  C   UNK N   1      26.488  20.580   3.166  0.00  0.00     0.158 C 
HETATM    2  C   UNK N   1      26.205  18.708   4.835  0.00  0.00     0.109 A 
HETATM    3  C   UNK N   1      24.394  19.407   3.921  0.00  0.00     0.149 A 
HETATM    4  C   UNK N   1      24.096  18.411   4.785  0.00  0.00     0.146 A 
HETATM    5  C   UNK N   1      23.379  20.057   3.226  0.00  0.00     0.282 A 
HETATM    6  C   UNK N   1      21.797  18.616   4.343  0.00  0.00     0.333 A 
HETATM    7  N   UNK N   1      25.212  17.953   5.372  0.00  0.00    -0.326 N 
ATOM      8  HN  UNK N   1      25.296  17.208   6.065  1.00  0.00     0.169 HD
HETATM    9  N   UNK N   1      25.728  19.600   3.926  0.00  0.00    -0.330 N 
HETATM   10  N   UNK N   1      22.832  17.984   5.016  0.00  0.00    -0.283 N 
HETATM   11  N   UNK N   1      22.071  19.654   3.450  0.00  0.00    -0.264 N 
HETATM   12  O   UNK N   1      23.634  20.967   2.454  0.00  0.00    -0.265 OA
HETATM   13  O   UNK N   1      20.643  18.264   4.537  0.00  0.00    -0.246 OA
ENDROOT
BRANCH   2  14
HETATM   14  C   UNK N   1      27.619  18.584   5.261  0.00  0.00     0.050 C 
HETATM   15  C   UNK N   1      27.889  17.985   6.437  0.00  0.00     0.015 C 
BRANCH  15  16
HETATM   16  C   UNK N   1      29.233  17.816   7.021  0.00  0.00    -0.033 A 
HETATM   17  C   UNK N   1      29.551  18.179   8.326  0.00  0.00     0.014 A 
HETATM   18  C   UNK N   1      30.854  18.004   8.793  0.00  0.00     0.040 A 
HETATM   19  C   UNK N   1      31.873  17.465   7.987  0.00  0.00     0.101 A 
HETATM   20  C   UNK N   1      31.537  17.082   6.630  0.00  0.00     0.102 A 
HETATM   21  C   UNK N   1      30.222  17.273   6.206  0.00  0.00     0.051 A 
BRANCH  19  22
HETATM   22  O   UNK N   1      33.082  17.355   8.606  0.00  0.00    -0.353 OA
HETATM   23  C   UNK N   1      34.265  18.000   8.365  0.00  0.00     0.210 C 
ENDBRANCH  19  22
BRANCH  20  24
HETATM   24  O   UNK N   1      32.353  16.549   5.678  0.00  0.00    -0.353 OA
HETATM   25  C   UNK N   1      33.163  17.160   4.759  0.00  0.00     0.210 C 
ENDBRANCH  20  24
ENDBRANCH  15  16
ENDBRANCH   2  14
BRANCH  10  26
HETATM   26  C   UNK N   1      22.593  16.883   5.949  0.00  0.00     0.131 C 
HETATM   27  C   UNK N   1      22.624  15.544   5.234  0.00  0.00     0.027 C 
ENDBRANCH  10  26
BRANCH  11  28
HETATM   28  C   UNK N   1      20.977  20.350   2.764  0.00  0.00     0.133 C 
HETATM   29  C   UNK N   1      20.707  19.740   1.400  0.00  0.00     0.027 C 
ENDBRANCH  11  28
TORSDOF 6
ENDMDL
MODEL 3
REMARK VINA RESULT:      -6.6      1.638      2.824
REMARK  6 active torsions:
REMARK  status: ('A' for Active; 'I' for Inactive)
REMARK    1  A    between atoms: N_24  and  C_6 
REMARK    2  A    between atoms: N_25  and  C_7 
REMARK    3  A    between atoms: C_13  and  C_9 
REMARK    4  A    between atoms: C_16  and  C_11 
REMARK    5  A    between atoms: O_28  and  C_14 
REMARK    6  A    between atoms: O_29  and  C_15 
ROOT
HETATM    1  C   UNK N   1      29.738  16.408   3.060  0.00  0.00     0.158 C 
HETATM    2  C   UNK N   1      28.680  17.808   4.875  0.00  0.00     0.109 A 
HETATM    3  C   UNK N   1      30.346  16.606   5.494  0.00  0.00     0.149 A 
HETATM    4  C   UNK N   1      29.882  17.299   6.559  0.00  0.00     0.146 A 
HETATM    5  C   UNK N   1      31.406  15.720   5.646  0.00  0.00     0.282 A 
HETATM    6  C   UNK N   1      31.464  16.309   7.986  0.00  0.00     0.333 A 
HETATM    7  N   UNK N   1      28.837  18.061   6.200  0.00  0.00    -0.326 N 
ATOM      8  HN  UNK N   1      28.287  18.688   6.788  1.00  0.00     0.169 HD
HETATM    9  N   UNK N   1      29.607  16.927   4.413  0.00  0.00    -0.330 N 
HETATM   10  N   UNK N   1      30.409  17.189   7.801  0.00  0.00    -0.283 N 
HETATM   11  N   UNK N   1      31.961  15.572   6.908  0.00  0.00    -0.264 N 
HETATM   12  O   UNK N   1      31.825  15.078   4.695  0.00  0.00    -0.265 OA
HETATM   13  O   UNK N   1      31.955  16.175   9.096  0.00  0.00    -0.246 OA
ENDROOT
BRANCH   2  14
HETATM   14  C   UNK N   1      27.576  18.396   4.078  0.00  0.00     0.050 C 
HETATM   15  C   UNK N   1      26.427  18.717   4.703  0.00  0.00     0.015 C 
BRANCH  15  16
HETATM   16  C   UNK N   1      25.227  19.273   4.051  0.00  0.00    -0.033 A 
HETATM   17  C   UNK N   1      25.254  20.400   3.236  0.00  0.00     0.014 A 
HETATM   18  C   UNK N   1      24.067  20.873   2.674  0.00  0.00     0.040 A 
HETATM   19  C   UNK N   1      22.828  20.247   2.899  0.00  0.00     0.101 A 
HETATM   20  C   UNK N   1      22.805  19.068   3.744  0.00  0.00     0.102 A 
HETATM   21  C   UNK N   1      24.015  18.630   4.283  0.00  0.00     0.051 A 
BRANCH  19  22
HETATM   22  O   UNK N   1      21.775  20.836   2.265  0.00  0.00    -0.353 OA
HETATM   23  C   UNK N   1      20.964  20.365   1.269  0.00  0.00     0.210 C 
ENDBRANCH  19  22
BRANCH  20  24
HETATM   24  O   UNK N   1      21.733  18.307   4.101  0.00  0.00    -0.353 OA
HETATM   25  C   UNK N   1      21.470  16.983   3.876  0.00  0.00     0.210 C 
ENDBRANCH  20  24
ENDBRANCH  15  16
ENDBRANCH   2  14
BRANCH  10  26
HETATM   26  C   UNK N   1      29.865  17.992   8.897  0.00  0.00     0.131 C 
HETATM   27  C   UNK N   1      28.585  17.383   9.438  0.00  0.00     0.027 C 
ENDBRANCH  10  26
BRANCH  11  28
HETATM   28  C   UNK N   1      33.052  14.612   7.107  0.00  0.00     0.133 C 
HETATM   29  C   UNK N   1      34.406  15.271   6.913  0.00  0.00     0.027 C 
ENDBRANCH  11  28
TORSDOF 6
ENDMDL
MODEL 4
REMARK VINA RESULT:      -6.4      2.590      9.457
REMARK  6 active torsions:
REMARK  status: ('A' for Active; 'I' for Inactive)
REMARK    1  A    between atoms: N_24  and  C_6 
REMARK    2  A    between atoms: N_25  and  C_7 
REMARK    3  A    between atoms: C_13  and  C_9 
REMARK    4  A    between atoms: C_16  and  C_11 
REMARK    5  A    between atoms: O_28  and  C_14 
REMARK    6  A    between atoms: O_29  and  C_15 
ROOT
HETATM    1  C   UNK N   1      27.301  15.006   5.971  0.00  0.00     0.158 C 
HETATM    2  C   UNK N   1      28.476  17.224   6.247  0.00  0.00     0.109 A 
HETATM    3  C   UNK N   1      26.502  17.326   5.411  0.00  0.00     0.149 A 
HETATM    4  C   UNK N   1      27.008  18.576   5.502  0.00  0.00     0.146 A 
HETATM    5  C   UNK N   1      25.242  17.120   4.861  0.00  0.00     0.282 A 
HETATM    6  C   UNK N   1      25.080  19.506   4.530  0.00  0.00     0.333 A 
HETATM    7  N   UNK N   1      28.244  18.543   6.023  0.00  0.00    -0.326 N 
ATOM      8  HN  UNK N   1      28.867  19.329   6.209  1.00  0.00     0.169 HD
HETATM    9  N   UNK N   1      27.411  16.455   5.893  0.00  0.00    -0.330 N 
HETATM   10  N   UNK N   1      26.338  19.678   5.089  0.00  0.00    -0.283 N 
HETATM   11  N   UNK N   1      24.533  18.226   4.414  0.00  0.00    -0.264 N 
HETATM   12  O   UNK N   1      24.780  15.994   4.761  0.00  0.00    -0.265 OA
HETATM   13  O   UNK N   1      24.454  20.477   4.135  0.00  0.00    -0.246 OA
ENDROOT
BRANCH   2  14
HETATM   14  C   UNK N   1      29.772  16.719   6.760  0.00  0.00     0.050 C 
HETATM   15  C   UNK N   1      30.522  17.530   7.531  0.00  0.00     0.015 C 
BRANCH  15  16
HETATM   16  C   UNK N   1      31.846  17.194   8.087  0.00  0.00    -0.033 A 
HETATM   17  C   UNK N   1      32.901  18.100   8.146  0.00  0.00     0.014 A 
HETATM   18  C   UNK N   1      34.129  17.694   8.669  0.00  0.00     0.040 A 
HETATM   19  C   UNK N   1      34.346  16.390   9.150  0.00  0.00     0.101 A 
HETATM   20  C   UNK N   1      33.243  15.452   9.093  0.00  0.00     0.102 A 
HETATM   21  C   UNK N   1      32.032  15.901   8.563  0.00  0.00     0.051 A 
BRANCH  19  22
HETATM   22  O   UNK N   1      35.601  16.170   9.635  0.00  0.00    -0.353 OA
HETATM   23  C   UNK N   1      36.039  16.011  10.921  0.00  0.00     0.210 C 
ENDBRANCH  19  22
BRANCH  20  24
HETATM   24  O   UNK N   1      33.222  14.150   9.493  0.00  0.00    -0.353 OA
HETATM   25  C   UNK N   1      33.913  13.065   9.024  0.00  0.00     0.210 C 
ENDBRANCH  20  24
ENDBRANCH  15  16
ENDBRANCH   2  14
BRANCH  10  26
HETATM   26  C   UNK N   1      26.945  21.001   5.244  0.00  0.00     0.131 C 
HETATM   27  C   UNK N   1      26.638  21.586   6.611  0.00  0.00     0.027 C 
ENDBRANCH  10  26
BRANCH  11  28
HETATM   28  C   UNK N   1      23.221  18.035   3.790  0.00  0.00     0.133 C 
HETATM   29  C   UNK N   1      22.100  18.223   4.798  0.00  0.00     0.027 C 
ENDBRANCH  11  28
TORSDOF 6
ENDMDL
MODEL 5
REMARK VINA RESULT:      -6.3      7.520     13.981
REMARK  6 active torsions:
REMARK  status: ('A' for Active; 'I' for Inactive)
REMARK    1  A    between atoms: N_24  and  C_6 
REMARK    2  A    between atoms: N_25  and  C_7 
REMARK    3  A    between atoms: C_13  and  C_9 
REMARK    4  A    between atoms: C_16  and  C_11 
REMARK    5  A    between atoms: O_28  and  C_14 
REMARK    6  A    between atoms: O_29  and  C_15 
ROOT
HETATM    1  C   UNK N   1      36.382  15.651  13.017  0.00  0.00     0.158 C 
HETATM    2  C   UNK N   1      35.350  13.413  12.471  0.00  0.00     0.109 A 
HETATM    3  C   UNK N   1      35.129  14.921  10.961  0.00  0.00     0.149 A 
HETATM    4  C   UNK N   1      34.534  13.782  10.538  0.00  0.00     0.146 A 
HETATM    5  C   UNK N   1      35.090  16.064  10.171  0.00  0.00     0.282 A 
HETATM    6  C   UNK N   1      33.830  14.804   8.542  0.00  0.00     0.333 A 
HETATM    7  N   UNK N   1      34.657  12.820  11.465  0.00  0.00    -0.326 N 
ATOM      8  HN  UNK N   1      34.310  11.862  11.424  1.00  0.00     0.169 HD
HETATM    9  N   UNK N   1      35.666  14.703  12.178  0.00  0.00    -0.330 N 
HETATM   10  N   UNK N   1      33.892  13.679   9.351  0.00  0.00    -0.283 N 
HETATM   11  N   UNK N   1      34.427  15.998   8.954  0.00  0.00    -0.264 N 
HETATM   12  O   UNK N   1      35.611  17.102  10.548  0.00  0.00    -0.265 OA
HETATM   13  O   UNK N   1      33.247  14.749   7.471  0.00  0.00    -0.246 OA
ENDROOT
BRANCH   2  14
HETATM   14  C   UNK N   1      35.651  12.720  13.747  0.00  0.00     0.050 C 
HETATM   15  C   UNK N   1      34.936  13.044  14.842  0.00  0.00     0.015 C 
BRANCH  15  16
HETATM   16  C   UNK N   1      35.135  12.477  16.190  0.00  0.00    -0.033 A 
HETATM   17  C   UNK N   1      34.939  13.203  17.360  0.00  0.00     0.014 A 
HETATM   18  C   UNK N   1      35.170  12.596  18.595  0.00  0.00     0.040 A 
HETATM   19  C   UNK N   1      35.595  11.260  18.707  0.00  0.00     0.101 A 
HETATM   20  C   UNK N   1      35.792  10.504  17.485  0.00  0.00     0.102 A 
HETATM   21  C   UNK N   1      35.547  11.151  16.272  0.00  0.00     0.051 A 
BRANCH  19  22
HETATM   22  O   UNK N   1      35.761  10.827  19.988  0.00  0.00    -0.353 OA
HETATM   23  C   UNK N   1      36.898  10.487  20.669  0.00  0.00     0.210 C 
ENDBRANCH  19  22
BRANCH  20  24
HETATM   24  O   UNK N   1      36.198   9.212  17.349  0.00  0.00    -0.353 OA
HETATM   25  C   UNK N   1      35.624   8.165  16.681  0.00  0.00     0.210 C 
ENDBRANCH  20  24
ENDBRANCH  15  16
ENDBRANCH   2  14
BRANCH  10  26
HETATM   26  C   UNK N   1      33.294  12.404   8.955  0.00  0.00     0.131 C 
HETATM   27  C   UNK N   1      34.286  11.550   8.186  0.00  0.00     0.027 C 
ENDBRANCH  10  26
BRANCH  11  28
HETATM   28  C   UNK N   1      34.333  17.200   8.120  0.00  0.00     0.133 C 
HETATM   29  C   UNK N   1      33.004  17.907   8.322  0.00  0.00     0.027 C 
ENDBRANCH  11  28
TORSDOF 6
ENDMDL
MODEL 6
REMARK VINA RESULT:      -6.2      3.321     10.191
REMARK  6 active torsions:
REMARK  status: ('A' for Active; 'I' for Inactive)
REMARK    1  A    between atoms: N_24  and  C_6 
REMARK    2  A    between atoms: N_25  and  C_7 
REMARK    3  A    between atoms: C_13  and  C_9 
REMARK    4  A    between atoms: C_16  and  C_11 
REMARK    5  A    between atoms: O_28  and  C_14 
REMARK    6  A    between atoms: O_29  and  C_15 
ROOT
HETATM    1  C   UNK N   1      30.164  18.232   9.046  0.00  0.00     0.158 C 
HETATM    2  C   UNK N   1      31.868  16.953   7.693  0.00  0.00     0.109 A 
HETATM    3  C   UNK N   1      30.081  17.503   6.639  0.00  0.00     0.149 A 
HETATM    4  C   UNK N   1      30.900  16.829   5.799  0.00  0.00     0.146 A 
HETATM    5  C   UNK N   1      28.835  17.936   6.202  0.00  0.00     0.282 A 
HETATM    6  C   UNK N   1      29.336  16.965   4.050  0.00  0.00     0.333 A 
HETATM    7  N   UNK N   1      32.028  16.472   6.433  0.00  0.00    -0.326 N 
ATOM      8  HN  UNK N   1      32.823  15.958   6.054  1.00  0.00     0.169 HD
HETATM    9  N   UNK N   1      30.684  17.606   7.840  0.00  0.00    -0.330 N 
HETATM   10  N   UNK N   1      30.575  16.551   4.515  0.00  0.00    -0.283 N 
HETATM   11  N   UNK N   1      28.464  17.656   4.896  0.00  0.00    -0.264 N 
HETATM   12  O   UNK N   1      28.082  18.533   6.955  0.00  0.00    -0.265 OA
HETATM   13  O   UNK N   1      29.006  16.720   2.900  0.00  0.00    -0.246 OA
ENDROOT
BRANCH   2  14
HETATM   14  C   UNK N   1      32.864  16.719   8.766  0.00  0.00     0.050 C 
HETATM   15  C   UNK N   1      33.163  15.450   9.103  0.00  0.00     0.015 C 
BRANCH  15  16
HETATM   16  C   UNK N   1      34.100  15.048  10.169  0.00  0.00    -0.033 A 
HETATM   17  C   UNK N   1      34.863  15.956  10.897  0.00  0.00     0.014 A 
HETATM   18  C   UNK N   1      35.742  15.489  11.876  0.00  0.00     0.040 A 
HETATM   19  C   UNK N   1      35.888  14.120  12.162  0.00  0.00     0.101 A 
HETATM   20  C   UNK N   1      35.087  13.178  11.406  0.00  0.00     0.102 A 
HETATM   21  C   UNK N   1      34.220  13.688  10.438  0.00  0.00     0.051 A 
BRANCH  19  22
HETATM   22  O   UNK N   1      36.781  13.843  13.153  0.00  0.00    -0.353 OA
HETATM   23  C   UNK N   1      36.606  13.760  14.508  0.00  0.00     0.210 C 
ENDBRANCH  19  22
BRANCH  20  24
HETATM   24  O   UNK N   1      35.063  11.819  11.507  0.00  0.00    -0.353 OA
HETATM   25  C   UNK N   1      34.361  10.887  10.792  0.00  0.00     0.210 C 
ENDBRANCH  20  24
ENDBRANCH  15  16
ENDBRANCH   2  14
BRANCH  10  26
HETATM   26  C   UNK N   1      31.526  15.838   3.661  0.00  0.00     0.131 C 
HETATM   27  C   UNK N   1      32.441  16.806   2.933  0.00  0.00     0.027 C 
ENDBRANCH  10  26
BRANCH  11  28
HETATM   28  C   UNK N   1      27.138  18.063   4.421  0.00  0.00     0.133 C 
HETATM   29  C   UNK N   1      27.164  19.474   3.861  0.00  0.00     0.027 C 
ENDBRANCH  11  28
TORSDOF 6
ENDMDL
MODEL 7
REMARK VINA RESULT:      -6.2      2.913      9.406
REMARK  6 active torsions:
REMARK  status: ('A' for Active; 'I' for Inactive)
REMARK    1  A    between atoms: N_24  and  C_6 
REMARK    2  A    between atoms: N_25  and  C_7 
REMARK    3  A    between atoms: C_13  and  C_9 
REMARK    4  A    between atoms: C_16  and  C_11 
REMARK    5  A    between atoms: O_28  and  C_14 
REMARK    6  A    between atoms: O_29  and  C_15 
ROOT
HETATM    1  C   UNK N   1      24.730  15.194   5.986  0.00  0.00     0.158 C 
HETATM    2  C   UNK N   1      25.874  17.364   5.393  0.00  0.00     0.109 A 
HETATM    3  C   UNK N   1      23.816  17.219   4.804  0.00  0.00     0.149 A 
HETATM    4  C   UNK N   1      24.299  18.425   4.427  0.00  0.00     0.146 A 
HETATM    5  C   UNK N   1      22.507  16.864   4.500  0.00  0.00     0.282 A 
HETATM    6  C   UNK N   1      22.251  19.017   3.438  0.00  0.00     0.333 A 
HETATM    7  N   UNK N   1      25.587  18.543   4.784  0.00  0.00    -0.326 N 
ATOM      8  HN  UNK N   1      26.209  19.338   4.632  1.00  0.00     0.169 HD
HETATM    9  N   UNK N   1      24.795  16.538   5.432  0.00  0.00    -0.330 N 
HETATM   10  N   UNK N   1      23.560  19.342   3.761  0.00  0.00    -0.283 N 
HETATM   11  N   UNK N   1      21.726  17.776   3.805  0.00  0.00    -0.264 N 
HETATM   12  O   UNK N   1      22.064  15.774   4.822  0.00  0.00    -0.265 OA
HETATM   13  O   UNK N   1      21.561  19.817   2.826  0.00  0.00    -0.246 OA
ENDROOT
BRANCH   2  14
HETATM   14  C   UNK N   1      27.232  17.034   5.888  0.00  0.00     0.050 C 
HETATM   15  C   UNK N   1      27.873  17.929   6.664  0.00  0.00     0.015 C 
BRANCH  15  16
HETATM   16  C   UNK N   1      29.236  17.770   7.204  0.00  0.00    -0.033 A 
HETATM   17  C   UNK N   1      29.648  18.323   8.413  0.00  0.00     0.014 A 
HETATM   18  C   UNK N   1      30.963  18.142   8.842  0.00  0.00     0.040 A 
HETATM   19  C   UNK N   1      31.902  17.410   8.093  0.00  0.00     0.101 A 
HETATM   20  C   UNK N   1      31.468  16.830   6.837  0.00  0.00     0.102 A 
HETATM   21  C   UNK N   1      30.143  17.035   6.448  0.00  0.00     0.051 A 
BRANCH  19  22
HETATM   22  O   UNK N   1      33.136  17.325   8.665  0.00  0.00    -0.353 OA
HETATM   23  C   UNK N   1      34.320  17.914   8.313  0.00  0.00     0.210 C 
ENDBRANCH  19  22
BRANCH  20  24
HETATM   24  O   UNK N   1      32.195  16.093   5.952  0.00  0.00    -0.353 OA
HETATM   25  C   UNK N   1      31.947  14.864   5.404  0.00  0.00     0.210 C 
ENDBRANCH  20  24
ENDBRANCH  15  16
ENDBRANCH   2  14
BRANCH  10  26
HETATM   26  C   UNK N   1      24.149  20.636   3.409  0.00  0.00     0.131 C 
HETATM   27  C   UNK N   1      25.187  20.484   2.313  0.00  0.00     0.027 C 
ENDBRANCH  10  26
BRANCH  11  28
HETATM   28  C   UNK N   1      20.355  17.413   3.433  0.00  0.00     0.133 C 
HETATM   29  C   UNK N   1      20.313  16.747   2.068  0.00  0.00     0.027 C 
ENDBRANCH  11  28
TORSDOF 6
ENDMDL
MODEL 8
REMARK VINA RESULT:      -6.0      2.143      3.532
REMARK  6 active torsions:
REMARK  status: ('A' for Active; 'I' for Inactive)
REMARK    1  A    between atoms: N_24  and  C_6 
REMARK    2  A    between atoms: N_25  and  C_7 
REMARK    3  A    between atoms: C_13  and  C_9 
REMARK    4  A    between atoms: C_16  and  C_11 
REMARK    5  A    between atoms: O_28  and  C_14 
REMARK    6  A    between atoms: O_29  and  C_15 
ROOT
HETATM    1  C   UNK N   1      28.961  16.780   3.323  0.00  0.00     0.158 C 
HETATM    2  C   UNK N   1      27.924  16.818   5.624  0.00  0.00     0.109 A 
HETATM    3  C   UNK N   1      30.056  17.052   5.572  0.00  0.00     0.149 A 
HETATM    4  C   UNK N   1      29.638  17.093   6.858  0.00  0.00     0.146 A 
HETATM    5  C   UNK N   1      31.411  17.144   5.274  0.00  0.00     0.282 A 
HETATM    6  C   UNK N   1      31.842  17.321   7.643  0.00  0.00     0.333 A 
HETATM    7  N   UNK N   1      28.305  16.949   6.920  0.00  0.00    -0.326 N 
ATOM      8  HN  UNK N   1      27.715  16.939   7.752  1.00  0.00     0.169 HD
HETATM    9  N   UNK N   1      28.982  16.895   4.773  0.00  0.00    -0.330 N 
HETATM   10  N   UNK N   1      30.483  17.233   7.906  0.00  0.00    -0.283 N 
HETATM   11  N   UNK N   1      32.306  17.274   6.326  0.00  0.00    -0.264 N 
HETATM   12  O   UNK N   1      31.801  17.094   4.119  0.00  0.00    -0.265 OA
HETATM   13  O   UNK N   1      32.632  17.435   8.567  0.00  0.00    -0.246 OA
ENDROOT
BRANCH   2  14
HETATM   14  C   UNK N   1      26.517  16.562   5.230  0.00  0.00     0.050 C 
HETATM   15  C   UNK N   1      25.727  17.613   4.937  0.00  0.00     0.015 C 
BRANCH  15  16
HETATM   16  C   UNK N   1      24.302  17.532   4.566  0.00  0.00    -0.033 A 
HETATM   17  C   UNK N   1      23.342  18.432   5.020  0.00  0.00     0.014 A 
HETATM   18  C   UNK N   1      22.010  18.271   4.638  0.00  0.00     0.040 A 
HETATM   19  C   UNK N   1      21.592  17.224   3.797  0.00  0.00     0.101 A 
HETATM   20  C   UNK N   1      22.596  16.291   3.321  0.00  0.00     0.102 A 
HETATM   21  C   UNK N   1      23.916  16.492   3.728  0.00  0.00     0.051 A 
BRANCH  19  22
HETATM   22  O   UNK N   1      20.259  17.223   3.517  0.00  0.00    -0.353 OA
HETATM   23  C   UNK N   1      19.499  18.120   2.817  0.00  0.00     0.210 C 
ENDBRANCH  19  22
BRANCH  20  24
HETATM   24  O   UNK N   1      22.425  15.210   2.510  0.00  0.00    -0.353 OA
HETATM   25  C   UNK N   1      23.323  14.538   1.726  0.00  0.00     0.210 C 
ENDBRANCH  20  24
ENDBRANCH  15  16
ENDBRANCH   2  14
BRANCH  10  26
HETATM   26  C   UNK N   1      29.950  17.292   9.268  0.00  0.00     0.131 C 
HETATM   27  C   UNK N   1      29.696  18.727   9.694  0.00  0.00     0.027 C 
ENDBRANCH  10  26
BRANCH  11  28
HETATM   28  C   UNK N   1      33.743  17.329   6.045  0.00  0.00     0.133 C 
HETATM   29  C   UNK N   1      34.354  15.939   6.020  0.00  0.00     0.027 C 
ENDBRANCH  11  28
TORSDOF 6
ENDMDL
MODEL 9
REMARK VINA RESULT:      -5.9      2.461      9.263
REMARK  6 active torsions:
REMARK  status: ('A' for Active; 'I' for Inactive)
REMARK    1  A    between atoms: N_24  and  C_6 
REMARK    2  A    between atoms: N_25  and  C_7 
REMARK    3  A    between atoms: C_13  and  C_9 
REMARK    4  A    between atoms: C_16  and  C_11 
REMARK    5  A    between atoms: O_28  and  C_14 
REMARK    6  A    between atoms: O_29  and  C_15 
ROOT
HETATM    1  C   UNK N   1      26.623  14.811   6.063  0.00  0.00     0.158 C 
HETATM    2  C   UNK N   1      27.479  17.149   5.647  0.00  0.00     0.109 A 
HETATM    3  C   UNK N   1      25.409  16.831   5.181  0.00  0.00     0.149 A 
HETATM    4  C   UNK N   1      25.730  18.118   4.913  0.00  0.00     0.146 A 
HETATM    5  C   UNK N   1      24.125  16.363   4.925  0.00  0.00     0.282 A 
HETATM    6  C   UNK N   1      23.560  18.572   4.134  0.00  0.00     0.333 A 
HETATM    7  N   UNK N   1      27.022  18.345   5.196  0.00  0.00    -0.326 N 
ATOM      8  HN  UNK N   1      27.541  19.218   5.095  1.00  0.00     0.169 HD
HETATM    9  N   UNK N   1      26.501  16.205   5.663  0.00  0.00    -0.330 N 
HETATM   10  N   UNK N   1      24.847  19.010   4.405  0.00  0.00    -0.283 N 
HETATM   11  N   UNK N   1      23.200  17.247   4.391  0.00  0.00    -0.264 N 
HETATM   12  O   UNK N   1      23.828  15.200   5.150  0.00  0.00    -0.265 OA
HETATM   13  O   UNK N   1      22.742  19.348   3.663  0.00  0.00    -0.246 OA
ENDROOT
BRANCH   2  14
HETATM   14  C   UNK N   1      28.899  16.927   6.011  0.00  0.00     0.050 C 
HETATM   15  C   UNK N   1      29.820  16.890   5.029  0.00  0.00     0.015 C 
BRANCH  15  16
HETATM   16  C   UNK N   1      31.262  16.643   5.218  0.00  0.00    -0.033 A 
HETATM   17  C   UNK N   1      32.048  15.966   4.291  0.00  0.00     0.014 A 
HETATM   18  C   UNK N   1      33.402  15.756   4.558  0.00  0.00     0.040 A 
HETATM   19  C   UNK N   1      34.012  16.209   5.742  0.00  0.00     0.101 A 
HETATM   20  C   UNK N   1      33.191  16.920   6.702  0.00  0.00     0.102 A 
HETATM   21  C   UNK N   1      31.843  17.109   6.393  0.00  0.00     0.051 A 
BRANCH  19  22
HETATM   22  O   UNK N   1      35.342  15.927   5.834  0.00  0.00    -0.353 OA
HETATM   23  C   UNK N   1      35.988  14.727   5.950  0.00  0.00     0.210 C 
ENDBRANCH  19  22
BRANCH  20  24
HETATM   24  O   UNK N   1      33.560  17.442   7.905  0.00  0.00    -0.353 OA
HETATM   25  C   UNK N   1      34.498  18.391   8.211  0.00  0.00     0.210 C 
ENDBRANCH  20  24
ENDBRANCH  15  16
ENDBRANCH   2  14
BRANCH  10  26
HETATM   26  C   UNK N   1      25.265  20.392   4.165  0.00  0.00     0.131 C 
HETATM   27  C   UNK N   1      25.739  20.579   2.735  0.00  0.00     0.027 C 
ENDBRANCH  10  26
BRANCH  11  28
HETATM   28  C   UNK N   1      21.851  16.770   4.071  0.00  0.00     0.133 C 
HETATM   29  C   UNK N   1      20.905  16.964   5.243  0.00  0.00     0.027 C 
ENDBRANCH  11  28
TORSDOF 6
ENDMDL
