MODEL 1
REMARK VINA RESULT:      -7.6      0.000      0.000
REMARK  9 active torsions:
REMARK  status: ('A' for Active; 'I' for Inactive)
REMARK    1  A    between atoms: C_11  and  C_7 
REMARK    2  A    between atoms: C_13  and  C_7 
REMARK    3  A    between atoms: C_17  and  C_12 
REMARK    4  A    between atoms: C_16  and  C_13 
REMARK    5  A    between atoms: C_13  and  N_28 
REMARK    6  A    between atoms: C_18  and  C_14 
REMARK    7  A    between atoms: N_26  and  C_15 
REMARK    8  A    between atoms: O_29  and  C_16 
REMARK    9  A    between atoms: O_31  and  C_17 
ROOT
HETATM    1  C   UNK N   1      30.148  16.867   7.217  0.00  0.00     0.165 C 
ENDROOT
BRANCH   1   2
HETATM    2  C   UNK N   1      30.780  17.031   5.825  0.00  0.00     0.038 C 
BRANCH   2   3
HETATM    3  C   UNK N   1      32.255  16.686   5.625  0.00  0.00    -0.012 C 
HETATM    4  C   UNK N   1      32.933  17.612   4.639  0.00  0.00     0.005 C 
HETATM    5  C   UNK N   1      32.519  17.124   3.259  0.00  0.00     0.000 C 
HETATM    6  C   UNK N   1      32.085  15.678   3.434  0.00  0.00     0.000 C 
HETATM    7  C   UNK N   1      32.305  15.354   4.904  0.00  0.00     0.005 C 
ENDBRANCH   2   3
ENDBRANCH   1   2
BRANCH   1   8
HETATM    8  C   UNK N   1      31.116  16.585   8.354  0.00  0.00     0.141 C 
HETATM    9  N   UNK N   1      31.397  15.347   8.606  0.00  0.00    -0.325 N 
ATOM     10  HN  UNK N   1      30.678  14.657   8.392  1.00  0.00     0.169 HD
BRANCH   9  11
HETATM   11  C   UNK N   1      32.610  14.862   9.153  0.00  0.00     0.106 A 
HETATM   12  C   UNK N   1      33.627  14.530   8.251  0.00  0.00     0.050 A 
HETATM   13  C   UNK N   1      34.947  14.470   8.692  0.00  0.00     0.023 A 
HETATM   14  C   UNK N   1      35.248  14.764  10.025  0.00  0.00     0.053 A 
HETATM   15  C   UNK N   1      34.201  15.043  10.909  0.00  0.00     0.108 A 
HETATM   16  N   UNK N   1      32.922  15.102  10.455  0.00  0.00    -0.351 N 
ATOM     17  HN  UNK N   1      32.174  15.332  11.110  1.00  0.00     0.166 HD
BRANCH  14  18
HETATM   18  C   UNK N   1      36.647  14.866  10.479  0.00  0.00     0.177 C 
HETATM   19  O   UNK N   1      37.372  13.883  10.466  0.00  0.00    -0.646 OA
BRANCH  18  20
HETATM   20  O   UNK N   1      37.153  16.059  10.845  0.00  0.00    -0.773 OA
HETATM   21  H   UNK N   1      38.051  16.268  11.014  0.00  0.00     0.167 HD
ENDBRANCH  18  20
ENDBRANCH  14  18
ENDBRANCH   9  11
BRANCH   8  22
HETATM   22  O   UNK N   1      31.885  17.584   8.832  0.00  0.00    -0.348 OA
HETATM   23  H   UNK N   1      32.281  17.516   9.678  0.00  0.00     0.219 HD
ENDBRANCH   8  22
ENDBRANCH   1   8
BRANCH   1  24
HETATM   24  N   UNK N   1      29.103  17.854   7.556  0.00  0.00    -0.338 N 
HETATM   25  C   UNK N   1      28.669  18.834   6.738  0.00  0.00     0.127 A 
HETATM   26  C   UNK N   1      27.700  19.530   7.405  0.00  0.00     0.133 A 
HETATM   27  N   UNK N   1      27.548  19.025   8.645  0.00  0.00    -0.347 N 
HETATM   28  C   UNK N   1      28.425  18.000   8.714  0.00  0.00     0.184 A 
ATOM     29  HN  UNK N   1      26.910  19.347   9.373  1.00  0.00     0.166 HD
BRANCH  26  30
HETATM   30  C   UNK N   1      26.893  20.645   6.824  0.00  0.00     0.433 C 
HETATM   31  F   UNK N   1      26.124  21.232   7.811  0.00  0.00    -0.165 F 
HETATM   32  F   UNK N   1      26.070  20.173   5.820  0.00  0.00    -0.165 F 
HETATM   33  F   UNK N   1      27.751  21.594   6.296  0.00  0.00    -0.165 F 
ENDBRANCH  26  30
ENDBRANCH   1  24
TORSDOF 9
ENDMDL
MODEL 2
REMARK VINA RESULT:      -7.1      6.545     10.027
REMARK  9 active torsions:
REMARK  status: ('A' for Active; 'I' for Inactive)
REMARK    1  A    between atoms: C_11  and  C_7 
REMARK    2  A    between atoms: C_13  and  C_7 
REMARK    3  A    between atoms: C_17  and  C_12 
REMARK    4  A    between atoms: C_16  and  C_13 
REMARK    5  A    between atoms: C_13  and  N_28 
REMARK    6  A    between atoms: C_18  and  C_14 
REMARK    7  A    between atoms: N_26  and  C_15 
REMARK    8  A    between atoms: O_29  and  C_16 
REMARK    9  A    between atoms: O_31  and  C_17 
ROOT
HETATM    1  C   UNK N   1      35.570  11.765  11.996  0.00  0.00     0.165 C 
ENDROOT
BRANCH   1   2
HETATM    2  C   UNK N   1      34.863  10.402  12.077  0.00  0.00     0.038 C 
BRANCH   2   3
HETATM    3  C   UNK N   1      35.606   9.142  11.635  0.00  0.00    -0.012 C 
HETATM    4  C   UNK N   1      35.128   7.906  12.365  0.00  0.00     0.005 C 
HETATM    5  C   UNK N   1      35.794   7.949  13.732  0.00  0.00     0.000 C 
HETATM    6  C   UNK N   1      37.004   8.856  13.586  0.00  0.00     0.000 C 
HETATM    7  C   UNK N   1      37.034   9.274  12.123  0.00  0.00     0.005 C 
ENDBRANCH   2   3
ENDBRANCH   1   2
BRANCH   1   8
HETATM    8  C   UNK N   1      34.989  12.753  10.998  0.00  0.00     0.141 C 
HETATM    9  N   UNK N   1      34.282  13.729  11.467  0.00  0.00    -0.325 N 
ATOM     10  HN  UNK N   1      33.780  13.560  12.338  1.00  0.00     0.169 HD
BRANCH   9  11
HETATM   11  C   UNK N   1      34.138  15.011  10.884  0.00  0.00     0.106 A 
HETATM   12  C   UNK N   1      35.139  15.950  11.156  0.00  0.00     0.050 A 
HETATM   13  C   UNK N   1      35.309  17.043  10.307  0.00  0.00     0.023 A 
HETATM   14  C   UNK N   1      34.493  17.180   9.180  0.00  0.00     0.053 A 
HETATM   15  C   UNK N   1      33.471  16.250   8.968  0.00  0.00     0.108 A 
HETATM   16  N   UNK N   1      33.328  15.189   9.805  0.00  0.00    -0.351 N 
ATOM     17  HN  UNK N   1      32.593  14.507   9.619  1.00  0.00     0.166 HD
BRANCH  14  18
HETATM   18  C   UNK N   1      34.755  18.233   8.183  0.00  0.00     0.177 C 
HETATM   19  O   UNK N   1      34.352  18.108   7.036  0.00  0.00    -0.646 OA
BRANCH  18  20
HETATM   20  O   UNK N   1      35.379  19.369   8.547  0.00  0.00    -0.773 OA
HETATM   21  H   UNK N   1      36.302  19.533   8.556  0.00  0.00     0.167 HD
ENDBRANCH  18  20
ENDBRANCH  14  18
ENDBRANCH   9  11
BRANCH   8  22
HETATM   22  O   UNK N   1      35.476  12.787   9.741  0.00  0.00    -0.348 OA
HETATM   23  H   UNK N   1      36.392  12.906   9.590  0.00  0.00     0.219 HD
ENDBRANCH   8  22
ENDBRANCH   1   8
BRANCH   1  24
HETATM   24  N   UNK N   1      35.925  12.371  13.295  0.00  0.00    -0.338 N 
HETATM   25  C   UNK N   1      35.113  12.428  14.370  0.00  0.00     0.127 A 
HETATM   26  C   UNK N   1      35.798  13.054  15.373  0.00  0.00     0.133 A 
HETATM   27  N   UNK N   1      37.014  13.426  14.930  0.00  0.00    -0.347 N 
HETATM   28  C   UNK N   1      37.065  12.999  13.650  0.00  0.00     0.184 A 
ATOM     29  HN  UNK N   1      37.739  13.922  15.448  1.00  0.00     0.166 HD
BRANCH  26  30
HETATM   30  C   UNK N   1      35.293  13.245  16.766  0.00  0.00     0.433 C 
HETATM   31  F   UNK N   1      33.940  13.530  16.741  0.00  0.00    -0.165 F 
HETATM   32  F   UNK N   1      35.968  14.278  17.387  0.00  0.00    -0.165 F 
HETATM   33  F   UNK N   1      35.496  12.078  17.482  0.00  0.00    -0.165 F 
ENDBRANCH  26  30
ENDBRANCH   1  24
TORSDOF 9
ENDMDL
MODEL 3
REMARK VINA RESULT:      -7.0      5.089      7.773
REMARK  9 active torsions:
REMARK  status: ('A' for Active; 'I' for Inactive)
REMARK    1  A    between atoms: C_11  and  C_7 
REMARK    2  A    between atoms: C_13  and  C_7 
REMARK    3  A    between atoms: C_17  and  C_12 
REMARK    4  A    between atoms: C_16  and  C_13 
REMARK    5  A    between atoms: C_13  and  N_28 
REMARK    6  A    between atoms: C_18  and  C_14 
REMARK    7  A    between atoms: N_26  and  C_15 
REMARK    8  A    between atoms: O_29  and  C_16 
REMARK    9  A    between atoms: O_31  and  C_17 
ROOT
HETATM    1  C   UNK N   1      35.852  13.720  10.574  0.00  0.00     0.165 C 
ENDROOT
BRANCH   1   2
HETATM    2  C   UNK N   1      37.242  13.309  10.061  0.00  0.00     0.038 C 
BRANCH   2   3
HETATM    3  C   UNK N   1      37.403  11.997   9.294  0.00  0.00    -0.012 C 
HETATM    4  C   UNK N   1      38.638  11.232   9.715  0.00  0.00     0.005 C 
HETATM    5  C   UNK N   1      39.805  11.910   9.015  0.00  0.00     0.000 C 
HETATM    6  C   UNK N   1      39.212  12.662   7.835  0.00  0.00     0.000 C 
HETATM    7  C   UNK N   1      37.721  12.359   7.858  0.00  0.00     0.005 C 
ENDBRANCH   2   3
ENDBRANCH   1   2
BRANCH   1   8
HETATM    8  C   UNK N   1      35.480  13.211  11.957  0.00  0.00     0.141 C 
HETATM    9  N   UNK N   1      36.442  12.805  12.722  0.00  0.00    -0.325 N 
ATOM     10  HN  UNK N   1      37.266  12.420  12.263  1.00  0.00     0.169 HD
BRANCH   9  11
HETATM   11  C   UNK N   1      36.454  12.844  14.137  0.00  0.00     0.106 A 
HETATM   12  C   UNK N   1      36.984  13.992  14.738  0.00  0.00     0.050 A 
HETATM   13  C   UNK N   1      36.647  14.300  16.054  0.00  0.00     0.023 A 
HETATM   14  C   UNK N   1      35.766  13.471  16.757  0.00  0.00     0.053 A 
HETATM   15  C   UNK N   1      35.297  12.307  16.142  0.00  0.00     0.108 A 
HETATM   16  N   UNK N   1      35.634  12.030  14.855  0.00  0.00    -0.351 N 
ATOM     17  HN  UNK N   1      35.261  11.189  14.415  1.00  0.00     0.166 HD
BRANCH  14  18
HETATM   18  C   UNK N   1      35.268  13.857  18.089  0.00  0.00     0.177 C 
HETATM   19  O   UNK N   1      34.941  13.000  18.896  0.00  0.00    -0.646 OA
BRANCH  18  20
HETATM   20  O   UNK N   1      35.236  15.154  18.450  0.00  0.00    -0.773 OA
HETATM   21  H   UNK N   1      35.690  15.868  18.046  0.00  0.00     0.167 HD
ENDBRANCH  18  20
ENDBRANCH  14  18
ENDBRANCH   9  11
BRANCH   8  22
HETATM   22  O   UNK N   1      34.262  13.494  12.461  0.00  0.00    -0.348 OA
HETATM   23  H   UNK N   1      33.970  13.087  13.252  0.00  0.00     0.219 HD
ENDBRANCH   8  22
ENDBRANCH   1   8
BRANCH   1  24
HETATM   24  N   UNK N   1      35.486  15.131  10.341  0.00  0.00    -0.338 N 
HETATM   25  C   UNK N   1      35.085  15.642   9.159  0.00  0.00     0.127 A 
HETATM   26  C   UNK N   1      34.833  16.972   9.347  0.00  0.00     0.133 A 
HETATM   27  N   UNK N   1      35.108  17.311  10.621  0.00  0.00    -0.347 N 
HETATM   28  C   UNK N   1      35.512  16.164  11.209  0.00  0.00     0.184 A 
ATOM     29  HN  UNK N   1      35.029  18.234  11.050  1.00  0.00     0.166 HD
BRANCH  26  30
HETATM   30  C   UNK N   1      34.281  17.895   8.310  0.00  0.00     0.433 C 
HETATM   31  F   UNK N   1      32.935  18.107   8.539  0.00  0.00    -0.165 F 
HETATM   32  F   UNK N   1      34.456  17.362   7.048  0.00  0.00    -0.165 F 
HETATM   33  F   UNK N   1      34.948  19.106   8.385  0.00  0.00    -0.165 F 
ENDBRANCH  26  30
ENDBRANCH   1  24
TORSDOF 9
ENDMDL
MODEL 4
REMARK VINA RESULT:      -6.8      5.759      9.141
REMARK  9 active torsions:
REMARK  status: ('A' for Active; 'I' for Inactive)
REMARK    1  A    between atoms: C_11  and  C_7 
REMARK    2  A    between atoms: C_13  and  C_7 
REMARK    3  A    between atoms: C_17  and  C_12 
REMARK    4  A    between atoms: C_16  and  C_13 
REMARK    5  A    between atoms: C_13  and  N_28 
REMARK    6  A    between atoms: C_18  and  C_14 
REMARK    7  A    between atoms: N_26  and  C_15 
REMARK    8  A    between atoms: O_29  and  C_16 
REMARK    9  A    between atoms: O_31  and  C_17 
ROOT
HETATM    1  C   UNK N   1      35.720  14.569  11.216  0.00  0.00     0.165 C 
ENDROOT
BRANCH   1   2
HETATM    2  C   UNK N   1      36.403  13.823  10.058  0.00  0.00     0.038 C 
BRANCH   2   3
HETATM    3  C   UNK N   1      37.892  14.044   9.796  0.00  0.00    -0.012 C 
HETATM    4  C   UNK N   1      38.285  13.697   8.377  0.00  0.00     0.005 C 
HETATM    5  C   UNK N   1      38.392  12.180   8.335  0.00  0.00     0.000 C 
HETATM    6  C   UNK N   1      38.592  11.730   9.773  0.00  0.00     0.000 C 
HETATM    7  C   UNK N   1      38.644  13.005  10.602  0.00  0.00     0.005 C 
ENDBRANCH   2   3
ENDBRANCH   1   2
BRANCH   1   8
HETATM    8  C   UNK N   1      34.531  15.435  10.834  0.00  0.00     0.141 C 
HETATM    9  N   UNK N   1      34.751  16.437  10.045  0.00  0.00    -0.325 N 
ATOM     10  HN  UNK N   1      35.676  16.863  10.086  1.00  0.00     0.169 HD
BRANCH   9  11
HETATM   11  C   UNK N   1      33.827  16.995   9.130  0.00  0.00     0.106 A 
HETATM   12  C   UNK N   1      34.339  17.470   7.917  0.00  0.00     0.050 A 
HETATM   13  C   UNK N   1      33.491  17.622   6.822  0.00  0.00     0.023 A 
HETATM   14  C   UNK N   1      32.141  17.278   6.937  0.00  0.00     0.053 A 
HETATM   15  C   UNK N   1      31.654  16.856   8.177  0.00  0.00     0.108 A 
HETATM   16  N   UNK N   1      32.501  16.709   9.230  0.00  0.00    -0.351 N 
ATOM     17  HN  UNK N   1      32.131  16.375  10.120  1.00  0.00     0.166 HD
BRANCH  14  18
HETATM   18  C   UNK N   1      31.259  17.276   5.756  0.00  0.00     0.177 C 
HETATM   19  O   UNK N   1      31.731  17.158   4.635  0.00  0.00    -0.646 OA
BRANCH  18  20
HETATM   20  O   UNK N   1      29.923  17.334   5.910  0.00  0.00    -0.773 OA
HETATM   21  H   UNK N   1      29.269  16.944   5.363  0.00  0.00     0.167 HD
ENDBRANCH  18  20
ENDBRANCH  14  18
ENDBRANCH   9  11
BRANCH   8  22
HETATM   22  O   UNK N   1      33.281  14.972  11.039  0.00  0.00    -0.348 OA
HETATM   23  H   UNK N   1      32.907  14.980  11.898  0.00  0.00     0.219 HD
ENDBRANCH   8  22
ENDBRANCH   1   8
BRANCH   1  24
HETATM   24  N   UNK N   1      35.507  13.773  12.441  0.00  0.00    -0.338 N 
HETATM   25  C   UNK N   1      35.853  14.160  13.686  0.00  0.00     0.127 A 
HETATM   26  C   UNK N   1      35.490  13.161  14.546  0.00  0.00     0.133 A 
HETATM   27  N   UNK N   1      34.957  12.136  13.853  0.00  0.00    -0.347 N 
HETATM   28  C   UNK N   1      34.984  12.535  12.563  0.00  0.00     0.184 A 
ATOM     29  HN  UNK N   1      34.609  11.251  14.222  1.00  0.00     0.166 HD
BRANCH  26  30
HETATM   30  C   UNK N   1      35.614  13.224  16.033  0.00  0.00     0.433 C 
HETATM   31  F   UNK N   1      34.364  13.380  16.602  0.00  0.00    -0.165 F 
HETATM   32  F   UNK N   1      36.423  14.279  16.406  0.00  0.00    -0.165 F 
HETATM   33  F   UNK N   1      36.173  12.043  16.488  0.00  0.00    -0.165 F 
ENDBRANCH  26  30
ENDBRANCH   1  24
TORSDOF 9
ENDMDL
MODEL 5
REMARK VINA RESULT:      -6.8      2.569      3.117
REMARK  9 active torsions:
REMARK  status: ('A' for Active; 'I' for Inactive)
REMARK    1  A    between atoms: C_11  and  C_7 
REMARK    2  A    between atoms: C_13  and  C_7 
REMARK    3  A    between atoms: C_17  and  C_12 
REMARK    4  A    between atoms: C_16  and  C_13 
REMARK    5  A    between atoms: C_13  and  N_28 
REMARK    6  A    between atoms: C_18  and  C_14 
REMARK    7  A    between atoms: N_26  and  C_15 
REMARK    8  A    between atoms: O_29  and  C_16 
REMARK    9  A    between atoms: O_31  and  C_17 
ROOT
HETATM    1  C   UNK N   1      28.553  16.426   6.285  0.00  0.00     0.165 C 
ENDROOT
BRANCH   1   2
HETATM    2  C   UNK N   1      27.777  15.918   5.059  0.00  0.00     0.038 C 
BRANCH   2   3
HETATM    3  C   UNK N   1      27.918  16.650   3.725  0.00  0.00    -0.012 C 
HETATM    4  C   UNK N   1      26.582  16.889   3.056  0.00  0.00     0.005 C 
HETATM    5  C   UNK N   1      26.197  15.565   2.413  0.00  0.00     0.000 C 
HETATM    6  C   UNK N   1      27.489  14.781   2.252  0.00  0.00     0.000 C 
HETATM    7  C   UNK N   1      28.594  15.694   2.763  0.00  0.00     0.005 C 
ENDBRANCH   2   3
ENDBRANCH   1   2
BRANCH   1   8
HETATM    8  C   UNK N   1      30.062  16.253   6.232  0.00  0.00     0.141 C 
HETATM    9  N   UNK N   1      30.781  17.072   6.930  0.00  0.00    -0.325 N 
ATOM     10  HN  UNK N   1      30.400  18.003   7.087  1.00  0.00     0.169 HD
BRANCH   9  11
HETATM   11  C   UNK N   1      32.050  16.794   7.493  0.00  0.00     0.106 A 
HETATM   12  C   UNK N   1      32.938  17.867   7.623  0.00  0.00     0.050 A 
HETATM   13  C   UNK N   1      33.991  17.786   8.531  0.00  0.00     0.023 A 
HETATM   14  C   UNK N   1      34.140  16.642   9.321  0.00  0.00     0.053 A 
HETATM   15  C   UNK N   1      33.264  15.569   9.129  0.00  0.00     0.108 A 
HETATM   16  N   UNK N   1      32.240  15.674   8.242  0.00  0.00    -0.351 N 
ATOM     17  HN  UNK N   1      31.596  14.890   8.134  1.00  0.00     0.166 HD
BRANCH  14  18
HETATM   18  C   UNK N   1      35.143  16.593  10.399  0.00  0.00     0.177 C 
HETATM   19  O   UNK N   1      36.036  17.426  10.448  0.00  0.00    -0.646 OA
BRANCH  18  20
HETATM   20  O   UNK N   1      35.042  15.673  11.377  0.00  0.00    -0.773 OA
HETATM   21  H   UNK N   1      35.360  15.738  12.256  0.00  0.00     0.167 HD
ENDBRANCH  18  20
ENDBRANCH  14  18
ENDBRANCH   9  11
BRANCH   8  22
HETATM   22  O   UNK N   1      30.580  15.103   5.756  0.00  0.00    -0.348 OA
HETATM   23  H   UNK N   1      31.084  15.100   4.966  0.00  0.00     0.219 HD
ENDBRANCH   8  22
ENDBRANCH   1   8
BRANCH   1  24
HETATM   24  N   UNK N   1      28.123  17.740   6.804  0.00  0.00    -0.338 N 
HETATM   25  C   UNK N   1      27.918  18.840   6.052  0.00  0.00     0.127 A 
HETATM   26  C   UNK N   1      27.525  19.846   6.890  0.00  0.00     0.133 A 
HETATM   27  N   UNK N   1      27.518  19.403   8.162  0.00  0.00    -0.347 N 
HETATM   28  C   UNK N   1      27.893  18.108   8.082  0.00  0.00     0.184 A 
ATOM     29  HN  UNK N   1      27.281  19.930   9.002  1.00  0.00     0.166 HD
BRANCH  26  30
HETATM   30  C   UNK N   1      27.111  21.213   6.452  0.00  0.00     0.433 C 
HETATM   31  F   UNK N   1      26.154  21.713   7.315  0.00  0.00    -0.165 F 
HETATM   32  F   UNK N   1      26.597  21.174   5.170  0.00  0.00    -0.165 F 
HETATM   33  F   UNK N   1      28.216  22.046   6.470  0.00  0.00    -0.165 F 
ENDBRANCH  26  30
ENDBRANCH   1  24
TORSDOF 9
ENDMDL
MODEL 6
REMARK VINA RESULT:      -6.8      3.311      5.120
REMARK  9 active torsions:
REMARK  status: ('A' for Active; 'I' for Inactive)
REMARK    1  A    between atoms: C_11  and  C_7 
REMARK    2  A    between atoms: C_13  and  C_7 
REMARK    3  A    between atoms: C_17  and  C_12 
REMARK    4  A    between atoms: C_16  and  C_13 
REMARK    5  A    between atoms: C_13  and  N_28 
REMARK    6  A    between atoms: C_18  and  C_14 
REMARK    7  A    between atoms: N_26  and  C_15 
REMARK    8  A    between atoms: O_29  and  C_16 
REMARK    9  A    between atoms: O_31  and  C_17 
ROOT
HETATM    1  C   UNK N   1      33.166  17.826   7.916  0.00  0.00     0.165 C 
ENDROOT
BRANCH   1   2
HETATM    2  C   UNK N   1      31.708  18.258   8.146  0.00  0.00     0.038 C 
BRANCH   2   3
HETATM    3  C   UNK N   1      30.601  17.205   8.123  0.00  0.00    -0.012 C 
HETATM    4  C   UNK N   1      29.478  17.573   7.178  0.00  0.00     0.005 C 
HETATM    5  C   UNK N   1      28.634  18.601   7.916  0.00  0.00     0.000 C 
HETATM    6  C   UNK N   1      28.939  18.417   9.394  0.00  0.00     0.000 C 
HETATM    7  C   UNK N   1      29.915  17.253   9.473  0.00  0.00     0.005 C 
ENDBRANCH   2   3
ENDBRANCH   1   2
BRANCH   1   8
HETATM    8  C   UNK N   1      33.875  17.227   9.120  0.00  0.00     0.141 C 
HETATM    9  N   UNK N   1      33.393  16.131   9.612  0.00  0.00    -0.325 N 
ATOM     10  HN  UNK N   1      32.391  15.979   9.508  1.00  0.00     0.169 HD
BRANCH   9  11
HETATM   11  C   UNK N   1      34.128  15.125  10.283  0.00  0.00     0.106 A 
HETATM   12  C   UNK N   1      34.600  14.058   9.511  0.00  0.00     0.050 A 
HETATM   13  C   UNK N   1      35.662  13.285   9.976  0.00  0.00     0.023 A 
HETATM   14  C   UNK N   1      36.261  13.595  11.200  0.00  0.00     0.053 A 
HETATM   15  C   UNK N   1      35.732  14.636  11.968  0.00  0.00     0.108 A 
HETATM   16  N   UNK N   1      34.700  15.380  11.492  0.00  0.00    -0.351 N 
ATOM     17  HN  UNK N   1      34.344  16.152  12.056  1.00  0.00     0.166 HD
BRANCH  14  18
HETATM   18  C   UNK N   1      37.484  12.898  11.640  0.00  0.00     0.177 C 
HETATM   19  O   UNK N   1      38.385  12.674  10.845  0.00  0.00    -0.646 OA
BRANCH  18  20
HETATM   20  O   UNK N   1      37.644  12.567  12.935  0.00  0.00    -0.773 OA
HETATM   21  H   UNK N   1      37.277  11.831  13.384  0.00  0.00     0.167 HD
ENDBRANCH  18  20
ENDBRANCH  14  18
ENDBRANCH   9  11
BRANCH   8  22
HETATM   22  O   UNK N   1      35.122  17.638   9.426  0.00  0.00    -0.348 OA
HETATM   23  H   UNK N   1      35.345  18.547   9.390  0.00  0.00     0.219 HD
ENDBRANCH   8  22
ENDBRANCH   1   8
BRANCH   1  24
HETATM   24  N   UNK N   1      33.419  17.101   6.655  0.00  0.00    -0.338 N 
HETATM   25  C   UNK N   1      32.704  17.248   5.521  0.00  0.00     0.127 A 
HETATM   26  C   UNK N   1      33.245  16.417   4.581  0.00  0.00     0.133 A 
HETATM   27  N   UNK N   1      34.265  15.722   5.121  0.00  0.00    -0.347 N 
HETATM   28  C   UNK N   1      34.348  16.157   6.396  0.00  0.00     0.184 A 
ATOM     29  HN  UNK N   1      34.848  15.019   4.666  1.00  0.00     0.166 HD
BRANCH  26  30
HETATM   30  C   UNK N   1      32.807  16.336   3.155  0.00  0.00     0.433 C 
HETATM   31  F   UNK N   1      32.251  17.540   2.766  0.00  0.00    -0.165 F 
HETATM   32  F   UNK N   1      31.879  15.326   2.992  0.00  0.00    -0.165 F 
HETATM   33  F   UNK N   1      33.909  16.069   2.360  0.00  0.00    -0.165 F 
ENDBRANCH  26  30
ENDBRANCH   1  24
TORSDOF 9
ENDMDL
MODEL 7
REMARK VINA RESULT:      -6.6     12.853     15.545
REMARK  9 active torsions:
REMARK  status: ('A' for Active; 'I' for Inactive)
REMARK    1  A    between atoms: C_11  and  C_7 
REMARK    2  A    between atoms: C_13  and  C_7 
REMARK    3  A    between atoms: C_17  and  C_12 
REMARK    4  A    between atoms: C_16  and  C_13 
REMARK    5  A    between atoms: C_13  and  N_28 
REMARK    6  A    between atoms: C_18  and  C_14 
REMARK    7  A    between atoms: N_26  and  C_15 
REMARK    8  A    between atoms: O_29  and  C_16 
REMARK    9  A    between atoms: O_31  and  C_17 
ROOT
HETATM    1  C   UNK N   1      28.144  24.884  -5.783  0.00  0.00     0.165 C 
ENDROOT
BRANCH   1   2
HETATM    2  C   UNK N   1      27.555  26.166  -5.172  0.00  0.00     0.038 C 
BRANCH   2   3
HETATM    3  C   UNK N   1      26.724  27.103  -6.048  0.00  0.00    -0.012 C 
HETATM    4  C   UNK N   1      27.303  28.499  -6.107  0.00  0.00     0.005 C 
HETATM    5  C   UNK N   1      26.892  29.174  -4.807  0.00  0.00     0.000 C 
HETATM    6  C   UNK N   1      25.689  28.401  -4.291  0.00  0.00     0.000 C 
HETATM    7  C   UNK N   1      25.408  27.329  -5.333  0.00  0.00     0.005 C 
ENDBRANCH   2   3
ENDBRANCH   1   2
BRANCH   1   8
HETATM    8  C   UNK N   1      29.341  24.294  -5.054  0.00  0.00     0.141 C 
HETATM    9  N   UNK N   1      29.117  23.321  -4.231  0.00  0.00    -0.325 N 
ATOM     10  HN  UNK N   1      28.206  23.303  -3.774  1.00  0.00     0.169 HD
BRANCH   9  11
HETATM   11  C   UNK N   1      30.020  22.282  -3.904  0.00  0.00     0.106 A 
HETATM   12  C   UNK N   1      30.122  21.218  -4.808  0.00  0.00     0.050 A 
HETATM   13  C   UNK N   1      31.255  20.408  -4.795  0.00  0.00     0.023 A 
HETATM   14  C   UNK N   1      32.290  20.676  -3.894  0.00  0.00     0.053 A 
HETATM   15  C   UNK N   1      32.132  21.714  -2.972  0.00  0.00     0.108 A 
HETATM   16  N   UNK N   1      31.022  22.496  -3.007  0.00  0.00    -0.351 N 
ATOM     17  HN  UNK N   1      30.936  23.265  -2.343  1.00  0.00     0.166 HD
BRANCH  14  18
HETATM   18  C   UNK N   1      33.564  19.938  -3.967  0.00  0.00     0.177 C 
HETATM   19  O   UNK N   1      34.612  20.535  -4.161  0.00  0.00    -0.646 OA
BRANCH  18  20
HETATM   20  O   UNK N   1      33.588  18.609  -3.750  0.00  0.00    -0.773 OA
HETATM   21  H   UNK N   1      33.320  18.154  -2.976  0.00  0.00     0.167 HD
ENDBRANCH  18  20
ENDBRANCH  14  18
ENDBRANCH   9  11
BRANCH   8  22
HETATM   22  O   UNK N   1      30.584  24.551  -5.507  0.00  0.00    -0.348 OA
HETATM   23  H   UNK N   1      30.882  25.434  -5.602  0.00  0.00     0.219 HD
ENDBRANCH   8  22
ENDBRANCH   1   8
BRANCH   1  24
HETATM   24  N   UNK N   1      27.155  23.877  -6.215  0.00  0.00    -0.338 N 
HETATM   25  C   UNK N   1      27.334  22.997  -7.221  0.00  0.00     0.127 A 
HETATM   26  C   UNK N   1      26.203  22.234  -7.309  0.00  0.00     0.133 A 
HETATM   27  N   UNK N   1      25.302  22.650  -6.399  0.00  0.00    -0.347 N 
HETATM   28  C   UNK N   1      25.909  23.663  -5.743  0.00  0.00     0.184 A 
ATOM     29  HN  UNK N   1      24.364  22.281  -6.239  1.00  0.00     0.166 HD
BRANCH  26  30
HETATM   30  C   UNK N   1      26.020  21.078  -8.237  0.00  0.00     0.433 C 
HETATM   31  F   UNK N   1      25.574  21.527  -9.465  0.00  0.00    -0.165 F 
HETATM   32  F   UNK N   1      25.108  20.181  -7.716  0.00  0.00    -0.165 F 
HETATM   33  F   UNK N   1      27.237  20.439  -8.404  0.00  0.00    -0.165 F 
ENDBRANCH  26  30
ENDBRANCH   1  24
TORSDOF 9
ENDMDL
MODEL 8
REMARK VINA RESULT:      -6.6      5.354      8.415
REMARK  9 active torsions:
REMARK  status: ('A' for Active; 'I' for Inactive)
REMARK    1  A    between atoms: C_11  and  C_7 
REMARK    2  A    between atoms: C_13  and  C_7 
REMARK    3  A    between atoms: C_17  and  C_12 
REMARK    4  A    between atoms: C_16  and  C_13 
REMARK    5  A    between atoms: C_13  and  N_28 
REMARK    6  A    between atoms: C_18  and  C_14 
REMARK    7  A    between atoms: N_26  and  C_15 
REMARK    8  A    between atoms: O_29  and  C_16 
REMARK    9  A    between atoms: O_31  and  C_17 
ROOT
HETATM    1  C   UNK N   1      34.440  14.778   9.770  0.00  0.00     0.165 C 
ENDROOT
BRANCH   1   2
HETATM    2  C   UNK N   1      34.353  13.443   9.014  0.00  0.00     0.038 C 
BRANCH   2   3
HETATM    3  C   UNK N   1      35.271  13.195   7.817  0.00  0.00    -0.012 C 
HETATM    4  C   UNK N   1      35.317  14.377   6.874  0.00  0.00     0.005 C 
HETATM    5  C   UNK N   1      34.041  14.301   6.050  0.00  0.00     0.000 C 
HETATM    6  C   UNK N   1      33.568  12.859   6.134  0.00  0.00     0.000 C 
HETATM    7  C   UNK N   1      34.612  12.129   6.966  0.00  0.00     0.005 C 
ENDBRANCH   2   3
ENDBRANCH   1   2
BRANCH   1   8
HETATM    8  C   UNK N   1      33.172  15.617   9.779  0.00  0.00     0.141 C 
HETATM    9  N   UNK N   1      33.163  16.692   9.058  0.00  0.00    -0.325 N 
ATOM     10  HN  UNK N   1      34.057  17.157   8.909  1.00  0.00     0.169 HD
BRANCH   9  11
HETATM   11  C   UNK N   1      32.025  17.282   8.457  0.00  0.00     0.106 A 
HETATM   12  C   UNK N   1      31.721  16.892   7.148  0.00  0.00     0.050 A 
HETATM   13  C   UNK N   1      30.430  17.072   6.657  0.00  0.00     0.023 A 
HETATM   14  C   UNK N   1      29.443  17.621   7.482  0.00  0.00     0.053 A 
HETATM   15  C   UNK N   1      29.795  18.046   8.766  0.00  0.00     0.108 A 
HETATM   16  N   UNK N   1      31.059  17.854   9.227  0.00  0.00    -0.351 N 
ATOM     17  HN  UNK N   1      31.290  18.147  10.176  1.00  0.00     0.166 HD
BRANCH  14  18
HETATM   18  C   UNK N   1      28.037  17.674   7.044  0.00  0.00     0.177 C 
HETATM   19  O   UNK N   1      27.696  18.441   6.156  0.00  0.00    -0.646 OA
BRANCH  18  20
HETATM   20  O   UNK N   1      27.132  16.829   7.573  0.00  0.00    -0.773 OA
HETATM   21  H   UNK N   1      27.296  15.997   7.972  0.00  0.00     0.167 HD
ENDBRANCH  18  20
ENDBRANCH  14  18
ENDBRANCH   9  11
BRANCH   8  22
HETATM   22  O   UNK N   1      32.026  15.080  10.242  0.00  0.00    -0.348 OA
HETATM   23  H   UNK N   1      32.036  14.506  10.983  0.00  0.00     0.219 HD
ENDBRANCH   8  22
ENDBRANCH   1   8
BRANCH   1  24
HETATM   24  N   UNK N   1      35.124  14.720  11.078  0.00  0.00    -0.338 N 
HETATM   25  C   UNK N   1      34.954  13.750  11.998  0.00  0.00     0.127 A 
HETATM   26  C   UNK N   1      35.758  14.044  13.063  0.00  0.00     0.133 A 
HETATM   27  N   UNK N   1      36.399  15.207  12.841  0.00  0.00    -0.347 N 
HETATM   28  C   UNK N   1      35.989  15.604  11.617  0.00  0.00     0.184 A 
ATOM     29  HN  UNK N   1      37.054  15.685  13.461  1.00  0.00     0.166 HD
BRANCH  26  30
HETATM   30  C   UNK N   1      35.939  13.176  14.265  0.00  0.00     0.433 C 
HETATM   31  F   UNK N   1      37.107  13.520  14.921  0.00  0.00    -0.165 F 
HETATM   32  F   UNK N   1      35.994  11.846  13.897  0.00  0.00    -0.165 F 
HETATM   33  F   UNK N   1      34.868  13.364  15.122  0.00  0.00    -0.165 F 
ENDBRANCH  26  30
ENDBRANCH   1  24
TORSDOF 9
ENDMDL
MODEL 9
REMARK VINA RESULT:      -6.5      5.746      9.647
REMARK  9 active torsions:
REMARK  status: ('A' for Active; 'I' for Inactive)
REMARK    1  A    between atoms: C_11  and  C_7 
REMARK    2  A    between atoms: C_13  and  C_7 
REMARK    3  A    between atoms: C_17  and  C_12 
REMARK    4  A    between atoms: C_16  and  C_13 
REMARK    5  A    between atoms: C_13  and  N_28 
REMARK    6  A    between atoms: C_18  and  C_14 
REMARK    7  A    between atoms: N_26  and  C_15 
REMARK    8  A    between atoms: O_29  and  C_16 
REMARK    9  A    between atoms: O_31  and  C_17 
ROOT
HETATM    1  C   UNK N   1      28.115  16.456   4.431  0.00  0.00     0.165 C 
ENDROOT
BRANCH   1   2
HETATM    2  C   UNK N   1      27.511  15.157   3.872  0.00  0.00     0.038 C 
BRANCH   2   3
HETATM    3  C   UNK N   1      27.414  14.964   2.359  0.00  0.00    -0.012 C 
HETATM    4  C   UNK N   1      26.116  15.495   1.793  0.00  0.00     0.005 C 
HETATM    5  C   UNK N   1      25.065  14.441   2.105  0.00  0.00     0.000 C 
HETATM    6  C   UNK N   1      25.822  13.144   2.340  0.00  0.00     0.000 C 
HETATM    7  C   UNK N   1      27.289  13.474   2.110  0.00  0.00     0.005 C 
ENDBRANCH   2   3
ENDBRANCH   1   2
BRANCH   1   8
HETATM    8  C   UNK N   1      27.115  17.505   4.891  0.00  0.00     0.141 C 
HETATM    9  N   UNK N   1      26.833  18.463   4.067  0.00  0.00    -0.325 N 
ATOM     10  HN  UNK N   1      27.561  18.735   3.408  1.00  0.00     0.169 HD
BRANCH   9  11
HETATM   11  C   UNK N   1      25.608  19.168   3.998  0.00  0.00     0.106 A 
HETATM   12  C   UNK N   1      25.597  20.355   3.256  0.00  0.00     0.050 A 
HETATM   13  C   UNK N   1      24.389  20.861   2.781  0.00  0.00     0.023 A 
HETATM   14  C   UNK N   1      23.200  20.169   3.031  0.00  0.00     0.053 A 
HETATM   15  C   UNK N   1      23.242  19.014   3.819  0.00  0.00     0.108 A 
HETATM   16  N   UNK N   1      24.433  18.535   4.265  0.00  0.00    -0.351 N 
ATOM     17  HN  UNK N   1      24.446  17.677   4.817  1.00  0.00     0.166 HD
BRANCH  14  18
HETATM   18  C   UNK N   1      21.934  20.593   2.408  0.00  0.00     0.177 C 
HETATM   19  O   UNK N   1      21.755  20.438   1.209  0.00  0.00    -0.646 OA
BRANCH  18  20
HETATM   20  O   UNK N   1      20.940  21.091   3.168  0.00  0.00    -0.773 OA
HETATM   21  H   UNK N   1      20.974  21.307   4.079  0.00  0.00     0.167 HD
ENDBRANCH  18  20
ENDBRANCH  14  18
ENDBRANCH   9  11
BRANCH   8  22
HETATM   22  O   UNK N   1      26.328  17.248   5.955  0.00  0.00    -0.348 OA
HETATM   23  H   UNK N   1      26.683  17.259   6.822  0.00  0.00     0.219 HD
ENDBRANCH   8  22
ENDBRANCH   1   8
BRANCH   1  24
HETATM   24  N   UNK N   1      29.256  16.278   5.350  0.00  0.00    -0.338 N 
HETATM   25  C   UNK N   1      29.729  17.222   6.189  0.00  0.00     0.127 A 
HETATM   26  C   UNK N   1      30.779  16.678   6.874  0.00  0.00     0.133 A 
HETATM   27  N   UNK N   1      30.997  15.419   6.448  0.00  0.00    -0.347 N 
HETATM   28  C   UNK N   1      30.051  15.199   5.509  0.00  0.00     0.184 A 
ATOM     29  HN  UNK N   1      31.718  14.771   6.765  1.00  0.00     0.166 HD
BRANCH  26  30
HETATM   30  C   UNK N   1      31.533  17.359   7.968  0.00  0.00     0.433 C 
HETATM   31  F   UNK N   1      31.889  16.439   8.937  0.00  0.00    -0.165 F 
HETATM   32  F   UNK N   1      30.762  18.353   8.539  0.00  0.00    -0.165 F 
HETATM   33  F   UNK N   1      32.681  17.925   7.440  0.00  0.00    -0.165 F 
ENDBRANCH  26  30
ENDBRANCH   1  24
TORSDOF 9
ENDMDL
