MODEL 1
REMARK VINA RESULT:      -7.8      0.000      0.000
REMARK  5 active torsions:
REMARK  status: ('A' for Active; 'I' for Inactive)
REMARK    1  A    between atoms: C_2  and  C_5 
REMARK    2  A    between atoms: C_5  and  N_6 
REMARK    3  A    between atoms: C_11  and  C_14 
REMARK    4  A    between atoms: C_15  and  C_24 
REMARK    5  A    between atoms: C_17  and  C_20 
REMARK       I    between atoms: C_33  and  N_34 
ROOT
HETATM    1  N   UNK N   1      28.396  18.413   6.184  0.00  0.00    -0.166 N 
HETATM    2  C   UNK N   1      29.160  18.070   7.221  0.00  0.00     0.151 A 
HETATM    3  C   UNK N   1      28.649  18.598   8.360  0.00  0.00     0.094 A 
HETATM    4  C   UNK N   1      29.275  18.415   9.577  0.00  0.00     0.036 A 
HETATM    5  C   UNK N   1      30.455  17.653   9.566  0.00  0.00     0.034 A 
HETATM    6  C   UNK N   1      30.950  17.081   8.365  0.00  0.00     0.063 A 
HETATM    7  N   UNK N   1      30.286  17.317   7.193  0.00  0.00    -0.338 N 
ATOM      8  HN  UNK N   1      30.632  16.932   6.315  1.00  0.00     0.167 HD
HETATM    9  N   UNK N   1      27.528  19.290   8.081  0.00  0.00    -0.188 N 
ATOM     10  HN  UNK N   1      26.921  19.795   8.726  1.00  0.00     0.184 HD
HETATM   11  C   UNK N   1      27.400  19.156   6.734  0.00  0.00     0.680 A 
HETATM   12  N   UNK N   1      26.355  19.748   5.998  0.00  0.00    -0.234 N 
HETATM   13  H   UNK N   1      25.723  20.368   6.429  0.00  0.00     0.174 HD
HETATM   14  H   UNK N   1      26.254  19.539   5.041  0.00  0.00     0.174 HD
ENDROOT
BRANCH   6  15
HETATM   15  C   UNK N   1      32.209  16.291   8.323  0.00  0.00     0.088 A 
HETATM   16  C   UNK N   1      32.980  15.885   7.233  0.00  0.00     0.073 A 
HETATM   17  N   UNK N   1      33.951  15.060   7.677  0.00  0.00    -0.343 N 
HETATM   18  C   UNK N   1      33.783  15.010   9.019  0.00  0.00     0.090 A 
HETATM   19  H   UNK N   1      34.633  14.595   7.140  0.00  0.00     0.167 HD
HETATM   20  N   UNK N   1      32.727  15.740   9.436  0.00  0.00    -0.342 N 
ATOM     21  HN  UNK N   1      32.392  15.850  10.393  1.00  0.00     0.167 HD
BRANCH  16  22
HETATM   22  C   UNK N   1      32.787  16.214   5.804  0.00  0.00    -0.007 A 
HETATM   23  C   UNK N   1      33.096  17.489   5.315  0.00  0.00     0.017 A 
HETATM   24  C   UNK N   1      32.809  17.843   3.999  0.00  0.00     0.043 A 
HETATM   25  C   UNK N   1      32.204  16.919   3.153  0.00  0.00     0.116 A 
HETATM   26  C   UNK N   1      31.936  15.622   3.610  0.00  0.00     0.043 A 
HETATM   27  F   UNK N   1      31.873  17.281   1.891  0.00  0.00    -0.206 F 
HETATM   28  C   UNK N   1      32.241  15.264   4.930  0.00  0.00     0.017 A 
ENDBRANCH  16  22
BRANCH  18  29
HETATM   29  C   UNK N   1      34.678  14.232   9.949  0.00  0.00     0.007 C 
HETATM   30  C   UNK N   1      34.488  14.723  11.372  0.00  0.00     0.022 C 
HETATM   31  C   UNK N   1      34.360  12.745   9.913  0.00  0.00     0.022 C 
HETATM   32  C   UNK N   1      36.128  14.421   9.550  0.00  0.00     0.022 C 
ENDBRANCH  18  29
ENDBRANCH   6  15
BRANCH   1  33
HETATM   33  C   UNK N   1      28.667  18.052   4.796  0.00  0.00     0.157 C 
BRANCH  33  34
HETATM   34  C   UNK N   1      27.818  16.897   4.271  0.00  0.00    -0.034 C 
HETATM   35  C   UNK N   1      26.518  17.418   3.697  0.00  0.00     0.016 C 
HETATM   36  C   UNK N   1      28.594  16.224   3.161  0.00  0.00     0.016 C 
HETATM   37  C   UNK N   1      27.530  15.862   5.347  0.00  0.00     0.016 C 
ENDBRANCH  33  34
ENDBRANCH   1  33
TORSDOF 5
ENDMDL
MODEL 2
REMARK VINA RESULT:      -7.7     12.145     14.943
REMARK  5 active torsions:
REMARK  status: ('A' for Active; 'I' for Inactive)
REMARK    1  A    between atoms: C_2  and  C_5 
REMARK    2  A    between atoms: C_5  and  N_6 
REMARK    3  A    between atoms: C_11  and  C_14 
REMARK    4  A    between atoms: C_15  and  C_24 
REMARK    5  A    between atoms: C_17  and  C_20 
REMARK       I    between atoms: C_33  and  N_34 
ROOT
HETATM    1  N   UNK N   1      27.392  22.591  -7.303  0.00  0.00    -0.166 N 
HETATM    2  C   UNK N   1      27.327  23.446  -6.283  0.00  0.00     0.151 A 
HETATM    3  C   UNK N   1      26.062  23.486  -5.798  0.00  0.00     0.094 A 
HETATM    4  C   UNK N   1      25.722  24.323  -4.755  0.00  0.00     0.036 A 
HETATM    5  C   UNK N   1      26.753  25.116  -4.226  0.00  0.00     0.034 A 
HETATM    6  C   UNK N   1      28.078  25.031  -4.727  0.00  0.00     0.063 A 
HETATM    7  N   UNK N   1      28.339  24.190  -5.774  0.00  0.00    -0.338 N 
ATOM      8  HN  UNK N   1      29.279  24.125  -6.164  1.00  0.00     0.167 HD
HETATM    9  N   UNK N   1      25.279  22.641  -6.496  0.00  0.00    -0.188 N 
ATOM     10  HN  UNK N   1      24.286  22.448  -6.366  1.00  0.00     0.184 HD
HETATM   11  C   UNK N   1      26.128  22.106  -7.413  0.00  0.00     0.680 A 
HETATM   12  N   UNK N   1      25.721  21.167  -8.381  0.00  0.00    -0.234 N 
HETATM   13  H   UNK N   1      24.771  20.933  -8.488  0.00  0.00     0.174 HD
HETATM   14  H   UNK N   1      26.396  20.739  -8.957  0.00  0.00     0.174 HD
ENDROOT
BRANCH   6  15
HETATM   15  C   UNK N   1      29.182  25.877  -4.201  0.00  0.00     0.088 A 
HETATM   16  C   UNK N   1      30.452  25.519  -3.748  0.00  0.00     0.073 A 
HETATM   17  N   UNK N   1      31.046  26.612  -3.228  0.00  0.00    -0.343 N 
HETATM   18  C   UNK N   1      30.156  27.615  -3.407  0.00  0.00     0.090 A 
HETATM   19  H   UNK N   1      31.936  26.668  -2.809  0.00  0.00     0.167 HD
HETATM   20  N   UNK N   1      29.012  27.194  -3.987  0.00  0.00    -0.342 N 
ATOM     21  HN  UNK N   1      28.192  27.756  -4.214  1.00  0.00     0.167 HD
BRANCH  16  22
HETATM   22  C   UNK N   1      31.079  24.179  -3.751  0.00  0.00    -0.007 A 
HETATM   23  C   UNK N   1      30.701  23.209  -2.814  0.00  0.00     0.017 A 
HETATM   24  C   UNK N   1      31.367  21.989  -2.736  0.00  0.00     0.043 A 
HETATM   25  C   UNK N   1      32.426  21.724  -3.599  0.00  0.00     0.116 A 
HETATM   26  C   UNK N   1      32.783  22.661  -4.576  0.00  0.00     0.043 A 
HETATM   27  F   UNK N   1      33.109  20.560  -3.485  0.00  0.00    -0.206 F 
HETATM   28  C   UNK N   1      32.101  23.882  -4.663  0.00  0.00     0.017 A 
ENDBRANCH  16  22
BRANCH  18  29
HETATM   29  C   UNK N   1      30.413  29.047  -3.011  0.00  0.00     0.007 C 
HETATM   30  C   UNK N   1      30.909  29.829  -4.213  0.00  0.00     0.022 C 
HETATM   31  C   UNK N   1      29.148  29.717  -2.497  0.00  0.00     0.022 C 
HETATM   32  C   UNK N   1      31.462  29.101  -1.919  0.00  0.00     0.022 C 
ENDBRANCH  18  29
ENDBRANCH   6  15
BRANCH   1  33
HETATM   33  C   UNK N   1      28.593  22.324  -8.090  0.00  0.00     0.157 C 
BRANCH  33  34
HETATM   34  C   UNK N   1      29.445  21.172  -7.564  0.00  0.00    -0.034 C 
HETATM   35  C   UNK N   1      28.834  19.844  -7.957  0.00  0.00     0.016 C 
HETATM   36  C   UNK N   1      30.809  21.280  -8.207  0.00  0.00     0.016 C 
HETATM   37  C   UNK N   1      29.622  21.234  -6.055  0.00  0.00     0.016 C 
ENDBRANCH  33  34
ENDBRANCH   1  33
TORSDOF 5
ENDMDL
MODEL 3
REMARK VINA RESULT:      -7.7      4.328      7.706
REMARK  5 active torsions:
REMARK  status: ('A' for Active; 'I' for Inactive)
REMARK    1  A    between atoms: C_2  and  C_5 
REMARK    2  A    between atoms: C_5  and  N_6 
REMARK    3  A    between atoms: C_11  and  C_14 
REMARK    4  A    between atoms: C_15  and  C_24 
REMARK    5  A    between atoms: C_17  and  C_20 
REMARK       I    between atoms: C_33  and  N_34 
ROOT
HETATM    1  N   UNK N   1      21.264  18.424   3.668  0.00  0.00    -0.166 N 
HETATM    2  C   UNK N   1      22.537  18.810   3.743  0.00  0.00     0.151 A 
HETATM    3  C   UNK N   1      22.706  19.966   3.057  0.00  0.00     0.094 A 
HETATM    4  C   UNK N   1      23.947  20.562   2.953  0.00  0.00     0.036 A 
HETATM    5  C   UNK N   1      25.010  19.911   3.600  0.00  0.00     0.034 A 
HETATM    6  C   UNK N   1      24.801  18.720   4.343  0.00  0.00     0.063 A 
HETATM    7  N   UNK N   1      23.547  18.177   4.389  0.00  0.00    -0.338 N 
ATOM      8  HN  UNK N   1      23.374  17.312   4.900  1.00  0.00     0.167 HD
HETATM    9  N   UNK N   1      21.531  20.359   2.528  0.00  0.00    -0.188 N 
ATOM     10  HN  UNK N   1      21.338  21.188   1.966  1.00  0.00     0.184 HD
HETATM   11  C   UNK N   1      20.665  19.390   2.923  0.00  0.00     0.680 A 
HETATM   12  N   UNK N   1      19.301  19.387   2.572  0.00  0.00    -0.234 N 
HETATM   13  H   UNK N   1      18.942  20.050   1.939  0.00  0.00     0.174 HD
HETATM   14  H   UNK N   1      18.698  18.714   2.965  0.00  0.00     0.174 HD
ENDROOT
BRANCH   6  15
HETATM   15  C   UNK N   1      25.913  17.999   5.016  0.00  0.00     0.088 A 
HETATM   16  C   UNK N   1      26.381  16.696   4.835  0.00  0.00     0.073 A 
HETATM   17  N   UNK N   1      27.312  16.440   5.776  0.00  0.00    -0.343 N 
HETATM   18  C   UNK N   1      27.425  17.589   6.482  0.00  0.00     0.090 A 
HETATM   19  H   UNK N   1      27.803  15.598   5.919  0.00  0.00     0.167 HD
HETATM   20  N   UNK N   1      26.580  18.548   6.047  0.00  0.00    -0.342 N 
ATOM     21  HN  UNK N   1      26.471  19.490   6.422  1.00  0.00     0.167 HD
BRANCH  16  22
HETATM   22  C   UNK N   1      25.935  15.695   3.841  0.00  0.00    -0.007 A 
HETATM   23  C   UNK N   1      25.623  14.388   4.233  0.00  0.00     0.017 A 
HETATM   24  C   UNK N   1      25.316  13.410   3.290  0.00  0.00     0.043 A 
HETATM   25  C   UNK N   1      25.318  13.732   1.936  0.00  0.00     0.116 A 
HETATM   26  C   UNK N   1      25.576  15.047   1.531  0.00  0.00     0.043 A 
HETATM   27  F   UNK N   1      25.075  12.767   1.017  0.00  0.00    -0.206 F 
HETATM   28  C   UNK N   1      25.870  16.032   2.482  0.00  0.00     0.017 A 
ENDBRANCH  16  22
BRANCH  18  29
HETATM   29  C   UNK N   1      28.391  17.783   7.623  0.00  0.00     0.007 C 
HETATM   30  C   UNK N   1      29.739  17.188   7.259  0.00  0.00     0.022 C 
HETATM   31  C   UNK N   1      28.591  19.257   7.938  0.00  0.00     0.022 C 
HETATM   32  C   UNK N   1      27.866  17.094   8.867  0.00  0.00     0.022 C 
ENDBRANCH  18  29
ENDBRANCH   6  15
BRANCH   1  33
HETATM   33  C   UNK N   1      20.729  17.200   4.259  0.00  0.00     0.157 C 
BRANCH  33  34
HETATM   34  C   UNK N   1      20.818  15.975   3.353  0.00  0.00    -0.034 C 
HETATM   35  C   UNK N   1      22.058  15.170   3.679  0.00  0.00     0.016 C 
HETATM   36  C   UNK N   1      19.604  15.114   3.625  0.00  0.00     0.016 C 
HETATM   37  C   UNK N   1      20.817  16.350   1.880  0.00  0.00     0.016 C 
ENDBRANCH  33  34
ENDBRANCH   1  33
TORSDOF 5
ENDMDL
MODEL 4
REMARK VINA RESULT:      -7.5      6.780     10.375
REMARK  5 active torsions:
REMARK  status: ('A' for Active; 'I' for Inactive)
REMARK    1  A    between atoms: C_2  and  C_5 
REMARK    2  A    between atoms: C_5  and  N_6 
REMARK    3  A    between atoms: C_11  and  C_14 
REMARK    4  A    between atoms: C_15  and  C_24 
REMARK    5  A    between atoms: C_17  and  C_20 
REMARK       I    between atoms: C_33  and  N_34 
ROOT
HETATM    1  N   UNK N   1      20.322  15.590   1.132  0.00  0.00    -0.166 N 
HETATM    2  C   UNK N   1      20.874  16.325   2.097  0.00  0.00     0.151 A 
HETATM    3  C   UNK N   1      20.229  17.513   2.193  0.00  0.00     0.094 A 
HETATM    4  C   UNK N   1      20.630  18.473   3.100  0.00  0.00     0.036 A 
HETATM    5  C   UNK N   1      21.728  18.148   3.912  0.00  0.00     0.034 A 
HETATM    6  C   UNK N   1      22.365  16.883   3.817  0.00  0.00     0.063 A 
HETATM    7  N   UNK N   1      21.924  15.986   2.884  0.00  0.00    -0.338 N 
ATOM      8  HN  UNK N   1      22.376  15.078   2.783  1.00  0.00     0.167 HD
HETATM    9  N   UNK N   1      19.230  17.565   1.291  0.00  0.00    -0.188 N 
ATOM     10  HN  UNK N   1      18.569  18.323   1.125  1.00  0.00     0.184 HD
HETATM   11  C   UNK N   1      19.314  16.366   0.656  0.00  0.00     0.680 A 
HETATM   12  N   UNK N   1      18.456  15.992  -0.397  0.00  0.00    -0.234 N 
HETATM   13  H   UNK N   1      17.815  16.635  -0.778  0.00  0.00     0.174 HD
HETATM   14  H   UNK N   1      18.496  15.076  -0.756  0.00  0.00     0.174 HD
ENDROOT
BRANCH   6  15
HETATM   15  C   UNK N   1      23.544  16.523   4.648  0.00  0.00     0.088 A 
HETATM   16  C   UNK N   1      23.609  15.990   5.936  0.00  0.00     0.073 A 
HETATM   17  N   UNK N   1      24.898  15.973   6.330  0.00  0.00    -0.343 N 
HETATM   18  C   UNK N   1      25.595  16.453   5.274  0.00  0.00     0.090 A 
HETATM   19  H   UNK N   1      25.255  15.677   7.199  0.00  0.00     0.167 HD
HETATM   20  N   UNK N   1      24.797  16.804   4.243  0.00  0.00    -0.342 N 
ATOM     21  HN  UNK N   1      25.083  17.198   3.347  1.00  0.00     0.167 HD
BRANCH  16  22
HETATM   22  C   UNK N   1      22.491  15.554   6.800  0.00  0.00    -0.007 A 
HETATM   23  C   UNK N   1      21.494  16.456   7.192  0.00  0.00     0.017 A 
HETATM   24  C   UNK N   1      20.504  16.084   8.098  0.00  0.00     0.043 A 
HETATM   25  C   UNK N   1      20.502  14.796   8.627  0.00  0.00     0.116 A 
HETATM   26  C   UNK N   1      21.460  13.866   8.206  0.00  0.00     0.043 A 
HETATM   27  F   UNK N   1      19.573  14.453   9.551  0.00  0.00    -0.206 F 
HETATM   28  C   UNK N   1      22.445  14.238   7.283  0.00  0.00     0.017 A 
ENDBRANCH  16  22
BRANCH  18  29
HETATM   29  C   UNK N   1      27.097  16.577   5.245  0.00  0.00     0.007 C 
HETATM   30  C   UNK N   1      27.548  17.006   3.861  0.00  0.00     0.022 C 
HETATM   31  C   UNK N   1      27.589  17.610   6.247  0.00  0.00     0.022 C 
HETATM   32  C   UNK N   1      27.733  15.243   5.581  0.00  0.00     0.022 C 
ENDBRANCH  18  29
ENDBRANCH   6  15
BRANCH   1  33
HETATM   33  C   UNK N   1      20.785  14.266   0.725  0.00  0.00     0.157 C 
BRANCH  33  34
HETATM   34  C   UNK N   1      19.981  13.111   1.316  0.00  0.00    -0.034 C 
HETATM   35  C   UNK N   1      19.018  12.560   0.285  0.00  0.00     0.016 C 
HETATM   36  C   UNK N   1      20.957  12.017   1.690  0.00  0.00     0.016 C 
HETATM   37  C   UNK N   1      19.222  13.521   2.567  0.00  0.00     0.016 C 
ENDBRANCH  33  34
ENDBRANCH   1  33
TORSDOF 5
ENDMDL
MODEL 5
REMARK VINA RESULT:      -7.5     11.865     15.644
REMARK  5 active torsions:
REMARK  status: ('A' for Active; 'I' for Inactive)
REMARK    1  A    between atoms: C_2  and  C_5 
REMARK    2  A    between atoms: C_5  and  N_6 
REMARK    3  A    between atoms: C_11  and  C_14 
REMARK    4  A    between atoms: C_15  and  C_24 
REMARK    5  A    between atoms: C_17  and  C_20 
REMARK       I    between atoms: C_33  and  N_34 
ROOT
HETATM    1  N   UNK N   1      31.581  21.354  -5.608  0.00  0.00    -0.166 N 
HETATM    2  C   UNK N   1      30.744  22.048  -4.838  0.00  0.00     0.151 A 
HETATM    3  C   UNK N   1      30.833  21.614  -3.557  0.00  0.00     0.094 A 
HETATM    4  C   UNK N   1      30.043  22.152  -2.562  0.00  0.00     0.036 A 
HETATM    5  C   UNK N   1      29.154  23.169  -2.949  0.00  0.00     0.034 A 
HETATM    6  C   UNK N   1      29.104  23.631  -4.290  0.00  0.00     0.063 A 
HETATM    7  N   UNK N   1      29.906  23.040  -5.227  0.00  0.00    -0.338 N 
ATOM      8  HN  UNK N   1      29.875  23.341  -6.201  1.00  0.00     0.167 HD
HETATM    9  N   UNK N   1      31.748  20.629  -3.472  0.00  0.00    -0.188 N 
ATOM     10  HN  UNK N   1      32.039  20.108  -2.645  1.00  0.00     0.184 HD
HETATM   11  C   UNK N   1      32.189  20.493  -4.750  0.00  0.00     0.680 A 
HETATM   12  N   UNK N   1      33.156  19.544  -5.134  0.00  0.00    -0.234 N 
HETATM   13  H   UNK N   1      33.483  18.871  -4.494  0.00  0.00     0.174 HD
HETATM   14  H   UNK N   1      33.511  19.554  -6.053  0.00  0.00     0.174 HD
ENDROOT
BRANCH   6  15
HETATM   15  C   UNK N   1      28.156  24.688  -4.731  0.00  0.00     0.088 A 
HETATM   16  C   UNK N   1      27.167  24.657  -5.715  0.00  0.00     0.073 A 
HETATM   17  N   UNK N   1      26.664  25.900  -5.858  0.00  0.00    -0.343 N 
HETATM   18  C   UNK N   1      27.317  26.652  -4.941  0.00  0.00     0.090 A 
HETATM   19  H   UNK N   1      25.972  26.197  -6.492  0.00  0.00     0.167 HD
HETATM   20  N   UNK N   1      28.235  25.943  -4.250  0.00  0.00    -0.342 N 
ATOM     21  HN  UNK N   1      28.858  26.286  -3.519  1.00  0.00     0.167 HD
BRANCH  16  22
HETATM   22  C   UNK N   1      26.736  23.509  -6.541  0.00  0.00    -0.007 A 
HETATM   23  C   UNK N   1      27.461  23.133  -7.679  0.00  0.00     0.017 A 
HETATM   24  C   UNK N   1      26.999  22.129  -8.526  0.00  0.00     0.043 A 
HETATM   25  C   UNK N   1      25.797  21.486  -8.242  0.00  0.00     0.116 A 
HETATM   26  C   UNK N   1      25.087  21.812  -7.080  0.00  0.00     0.043 A 
HETATM   27  F   UNK N   1      25.320  20.549  -9.096  0.00  0.00    -0.206 F 
HETATM   28  C   UNK N   1      25.563  22.812  -6.222  0.00  0.00     0.017 A 
ENDBRANCH  16  22
BRANCH  18  29
HETATM   29  C   UNK N   1      27.048  28.116  -4.709  0.00  0.00     0.007 C 
HETATM   30  C   UNK N   1      25.572  28.327  -4.430  0.00  0.00     0.022 C 
HETATM   31  C   UNK N   1      27.837  28.646  -3.521  0.00  0.00     0.022 C 
HETATM   32  C   UNK N   1      27.437  28.915  -5.937  0.00  0.00     0.022 C 
ENDBRANCH  18  29
ENDBRANCH   6  15
BRANCH   1  33
HETATM   33  C   UNK N   1      31.721  21.527  -7.052  0.00  0.00     0.157 C 
BRANCH  33  34
HETATM   34  C   UNK N   1      30.883  20.560  -7.884  0.00  0.00    -0.034 C 
HETATM   35  C   UNK N   1      30.406  21.236  -9.152  0.00  0.00     0.016 C 
HETATM   36  C   UNK N   1      31.769  19.396  -8.267  0.00  0.00     0.016 C 
HETATM   37  C   UNK N   1      29.693  20.019  -7.107  0.00  0.00     0.016 C 
ENDBRANCH  33  34
ENDBRANCH   1  33
TORSDOF 5
ENDMDL
MODEL 6
REMARK VINA RESULT:      -7.4      3.173      5.835
REMARK  5 active torsions:
REMARK  status: ('A' for Active; 'I' for Inactive)
REMARK    1  A    between atoms: C_2  and  C_5 
REMARK    2  A    between atoms: C_5  and  N_6 
REMARK    3  A    between atoms: C_11  and  C_14 
REMARK    4  A    between atoms: C_15  and  C_24 
REMARK    5  A    between atoms: C_17  and  C_20 
REMARK       I    between atoms: C_33  and  N_34 
ROOT
HETATM    1  N   UNK N   1      23.058  18.594   4.620  0.00  0.00    -0.166 N 
HETATM    2  C   UNK N   1      24.368  18.832   4.551  0.00  0.00     0.151 A 
HETATM    3  C   UNK N   1      24.611  19.789   3.623  0.00  0.00     0.094 A 
HETATM    4  C   UNK N   1      25.898  20.196   3.336  0.00  0.00     0.036 A 
HETATM    5  C   UNK N   1      26.929  19.573   4.059  0.00  0.00     0.034 A 
HETATM    6  C   UNK N   1      26.646  18.598   5.051  0.00  0.00     0.063 A 
HETATM    7  N   UNK N   1      25.346  18.232   5.272  0.00  0.00    -0.338 N 
ATOM      8  HN  UNK N   1      25.119  17.521   5.966  1.00  0.00     0.167 HD
HETATM    9  N   UNK N   1      23.451  20.201   3.076  0.00  0.00    -0.188 N 
ATOM     10  HN  UNK N   1      23.310  20.909   2.357  1.00  0.00     0.184 HD
HETATM   11  C   UNK N   1      22.516  19.447   3.711  0.00  0.00     0.680 A 
HETATM   12  N   UNK N   1      21.138  19.535   3.432  0.00  0.00    -0.234 N 
HETATM   13  H   UNK N   1      20.809  20.088   2.687  0.00  0.00     0.174 HD
HETATM   14  H   UNK N   1      20.495  19.037   3.989  0.00  0.00     0.174 HD
ENDROOT
BRANCH   6  15
HETATM   15  C   UNK N   1      27.719  17.906   5.813  0.00  0.00     0.088 A 
HETATM   16  C   UNK N   1      28.351  16.687   5.570  0.00  0.00     0.073 A 
HETATM   17  N   UNK N   1      29.154  16.403   6.616  0.00  0.00    -0.343 N 
HETATM   18  C   UNK N   1      29.030  17.460   7.451  0.00  0.00     0.090 A 
HETATM   19  H   UNK N   1      29.709  15.600   6.744  0.00  0.00     0.167 HD
HETATM   20  N   UNK N   1      28.158  18.383   6.993  0.00  0.00    -0.342 N 
ATOM     21  HN  UNK N   1      27.888  19.256   7.445  1.00  0.00     0.167 HD
BRANCH  16  22
HETATM   22  C   UNK N   1      28.175  15.780   4.415  0.00  0.00    -0.007 A 
HETATM   23  C   UNK N   1      27.258  14.722   4.468  0.00  0.00     0.017 A 
HETATM   24  C   UNK N   1      27.169  13.796   3.432  0.00  0.00     0.043 A 
HETATM   25  C   UNK N   1      28.002  13.918   2.324  0.00  0.00     0.116 A 
HETATM   26  C   UNK N   1      28.887  15.000   2.231  0.00  0.00     0.043 A 
HETATM   27  F   UNK N   1      27.955  12.986   1.344  0.00  0.00    -0.206 F 
HETATM   28  C   UNK N   1      28.964  15.939   3.267  0.00  0.00     0.017 A 
ENDBRANCH  16  22
BRANCH  18  29
HETATM   29  C   UNK N   1      29.786  17.600   8.748  0.00  0.00     0.007 C 
HETATM   30  C   UNK N   1      30.167  19.053   8.964  0.00  0.00     0.022 C 
HETATM   31  C   UNK N   1      28.947  17.147   9.933  0.00  0.00     0.022 C 
HETATM   32  C   UNK N   1      31.047  16.760   8.704  0.00  0.00     0.022 C 
ENDBRANCH  18  29
ENDBRANCH   6  15
BRANCH   1  33
HETATM   33  C   UNK N   1      22.438  17.596   5.486  0.00  0.00     0.157 C 
BRANCH  33  34
HETATM   34  C   UNK N   1      22.399  16.189   4.895  0.00  0.00    -0.034 C 
HETATM   35  C   UNK N   1      23.320  15.269   5.666  0.00  0.00     0.016 C 
HETATM   36  C   UNK N   1      20.983  15.673   5.032  0.00  0.00     0.016 C 
HETATM   37  C   UNK N   1      22.770  16.177   3.421  0.00  0.00     0.016 C 
ENDBRANCH  33  34
ENDBRANCH   1  33
TORSDOF 5
ENDMDL
MODEL 7
REMARK VINA RESULT:      -7.3      2.797      6.869
REMARK  5 active torsions:
REMARK  status: ('A' for Active; 'I' for Inactive)
REMARK    1  A    between atoms: C_2  and  C_5 
REMARK    2  A    between atoms: C_5  and  N_6 
REMARK    3  A    between atoms: C_11  and  C_14 
REMARK    4  A    between atoms: C_15  and  C_24 
REMARK    5  A    between atoms: C_17  and  C_20 
REMARK       I    between atoms: C_33  and  N_34 
ROOT
HETATM    1  N   UNK N   1      31.621  16.582   7.078  0.00  0.00    -0.166 N 
HETATM    2  C   UNK N   1      30.383  16.948   7.408  0.00  0.00     0.151 A 
HETATM    3  C   UNK N   1      30.427  17.888   8.383  0.00  0.00     0.094 A 
HETATM    4  C   UNK N   1      29.271  18.411   8.925  0.00  0.00     0.036 A 
HETATM    5  C   UNK N   1      28.060  17.923   8.408  0.00  0.00     0.034 A 
HETATM    6  C   UNK N   1      28.039  16.964   7.363  0.00  0.00     0.063 A 
HETATM    7  N   UNK N   1      29.225  16.478   6.884  0.00  0.00    -0.338 N 
ATOM      8  HN  UNK N   1      29.236  15.774   6.146  1.00  0.00     0.167 HD
HETATM    9  N   UNK N   1      31.708  18.160   8.697  0.00  0.00    -0.188 N 
ATOM     10  HN  UNK N   1      32.061  18.822   9.387  1.00  0.00     0.184 HD
HETATM   11  C   UNK N   1      32.417  17.340   7.877  0.00  0.00     0.680 A 
HETATM   12  N   UNK N   1      33.824  17.278   7.880  0.00  0.00    -0.234 N 
HETATM   13  H   UNK N   1      34.349  17.767   8.555  0.00  0.00     0.174 HD
HETATM   14  H   UNK N   1      34.290  16.741   7.199  0.00  0.00     0.174 HD
ENDROOT
BRANCH   6  15
HETATM   15  C   UNK N   1      26.771  16.413   6.815  0.00  0.00     0.088 A 
HETATM   16  C   UNK N   1      25.904  16.935   5.854  0.00  0.00     0.073 A 
HETATM   17  N   UNK N   1      24.809  16.151   5.793  0.00  0.00    -0.343 N 
HETATM   18  C   UNK N   1      25.040  15.153   6.678  0.00  0.00     0.090 A 
HETATM   19  H   UNK N   1      24.013  16.278   5.228  0.00  0.00     0.167 HD
HETATM   20  N   UNK N   1      26.220  15.293   7.319  0.00  0.00    -0.342 N 
ATOM     21  HN  UNK N   1      26.611  14.680   8.034  1.00  0.00     0.167 HD
BRANCH  16  22
HETATM   22  C   UNK N   1      26.068  18.164   5.048  0.00  0.00    -0.007 A 
HETATM   23  C   UNK N   1      24.951  18.864   4.575  0.00  0.00     0.017 A 
HETATM   24  C   UNK N   1      25.095  19.953   3.719  0.00  0.00     0.043 A 
HETATM   25  C   UNK N   1      26.367  20.356   3.324  0.00  0.00     0.116 A 
HETATM   26  C   UNK N   1      27.497  19.701   3.830  0.00  0.00     0.043 A 
HETATM   27  F   UNK N   1      26.505  21.379   2.448  0.00  0.00    -0.206 F 
HETATM   28  C   UNK N   1      27.349  18.615   4.702  0.00  0.00     0.017 A 
ENDBRANCH  16  22
BRANCH  18  29
HETATM   29  C   UNK N   1      24.092  14.007   6.918  0.00  0.00     0.007 C 
HETATM   30  C   UNK N   1      24.598  13.157   8.069  0.00  0.00     0.022 C 
HETATM   31  C   UNK N   1      22.698  14.502   7.270  0.00  0.00     0.022 C 
HETATM   32  C   UNK N   1      23.994  13.146   5.674  0.00  0.00     0.022 C 
ENDBRANCH  18  29
ENDBRANCH   6  15
BRANCH   1  33
HETATM   33  C   UNK N   1      31.952  15.561   6.088  0.00  0.00     0.157 C 
BRANCH  33  34
HETATM   34  C   UNK N   1      32.283  16.112   4.704  0.00  0.00    -0.034 C 
HETATM   35  C   UNK N   1      31.847  17.557   4.595  0.00  0.00     0.016 C 
HETATM   36  C   UNK N   1      33.785  16.053   4.534  0.00  0.00     0.016 C 
HETATM   37  C   UNK N   1      31.645  15.293   3.593  0.00  0.00     0.016 C 
ENDBRANCH  33  34
ENDBRANCH   1  33
TORSDOF 5
ENDMDL
MODEL 8
REMARK VINA RESULT:      -7.3     12.945     16.917
REMARK  5 active torsions:
REMARK  status: ('A' for Active; 'I' for Inactive)
REMARK    1  A    between atoms: C_2  and  C_5 
REMARK    2  A    between atoms: C_5  and  N_6 
REMARK    3  A    between atoms: C_11  and  C_14 
REMARK    4  A    between atoms: C_15  and  C_24 
REMARK    5  A    between atoms: C_17  and  C_20 
REMARK       I    between atoms: C_33  and  N_34 
ROOT
HETATM    1  N   UNK N   1      30.854  22.687  -4.534  0.00  0.00    -0.166 N 
HETATM    2  C   UNK N   1      29.697  23.341  -4.618  0.00  0.00     0.151 A 
HETATM    3  C   UNK N   1      29.083  23.344  -3.410  0.00  0.00     0.094 A 
HETATM    4  C   UNK N   1      27.847  23.933  -3.237  0.00  0.00     0.036 A 
HETATM    5  C   UNK N   1      27.272  24.529  -4.372  0.00  0.00     0.034 A 
HETATM    6  C   UNK N   1      27.950  24.543  -5.618  0.00  0.00     0.063 A 
HETATM    7  N   UNK N   1      29.167  23.926  -5.720  0.00  0.00    -0.338 N 
ATOM      8  HN  UNK N   1      29.665  23.906  -6.609  1.00  0.00     0.167 HD
HETATM    9  N   UNK N   1      29.845  22.696  -2.509  0.00  0.00    -0.188 N 
ATOM     10  HN  UNK N   1      29.655  22.536  -1.520  1.00  0.00     0.184 HD
HETATM   11  C   UNK N   1      30.927  22.304  -3.232  0.00  0.00     0.680 A 
HETATM   12  N   UNK N   1      31.992  21.563  -2.683  0.00  0.00    -0.234 N 
HETATM   13  H   UNK N   1      31.943  21.216  -1.763  0.00  0.00     0.174 HD
HETATM   14  H   UNK N   1      32.796  21.390  -3.226  0.00  0.00     0.174 HD
ENDROOT
BRANCH   6  15
HETATM   15  C   UNK N   1      27.354  25.145  -6.840  0.00  0.00     0.088 A 
HETATM   16  C   UNK N   1      26.741  26.385  -7.025  0.00  0.00     0.073 A 
HETATM   17  N   UNK N   1      26.222  26.426  -8.269  0.00  0.00    -0.343 N 
HETATM   18  C   UNK N   1      26.557  25.241  -8.830  0.00  0.00     0.090 A 
HETATM   19  H   UNK N   1      25.709  27.159  -8.680  0.00  0.00     0.167 HD
HETATM   20  N   UNK N   1      27.236  24.440  -7.981  0.00  0.00    -0.342 N 
ATOM     21  HN  UNK N   1      27.586  23.500  -8.165  1.00  0.00     0.167 HD
BRANCH  16  22
HETATM   22  C   UNK N   1      26.596  27.487  -6.049  0.00  0.00    -0.007 A 
HETATM   23  C   UNK N   1      27.450  28.596  -6.090  0.00  0.00     0.017 A 
HETATM   24  C   UNK N   1      27.396  29.580  -5.106  0.00  0.00     0.043 A 
HETATM   25  C   UNK N   1      26.482  29.464  -4.063  0.00  0.00     0.116 A 
HETATM   26  C   UNK N   1      25.585  28.389  -4.036  0.00  0.00     0.043 A 
HETATM   27  F   UNK N   1      26.468  30.391  -3.077  0.00  0.00    -0.206 F 
HETATM   28  C   UNK N   1      25.631  27.408  -5.036  0.00  0.00     0.017 A 
ENDBRANCH  16  22
BRANCH  18  29
HETATM   29  C   UNK N   1      26.218  24.856 -10.247  0.00  0.00     0.007 C 
HETATM   30  C   UNK N   1      24.876  25.449 -10.631  0.00  0.00     0.022 C 
HETATM   31  C   UNK N   1      27.262  25.368 -11.228  0.00  0.00     0.022 C 
HETATM   32  C   UNK N   1      26.145  23.347 -10.370  0.00  0.00     0.022 C 
ENDBRANCH  18  29
ENDBRANCH   6  15
BRANCH   1  33
HETATM   33  C   UNK N   1      31.763  22.454  -5.653  0.00  0.00     0.157 C 
BRANCH  33  34
HETATM   34  C   UNK N   1      31.551  21.121  -6.366  0.00  0.00    -0.034 C 
HETATM   35  C   UNK N   1      31.777  21.279  -7.854  0.00  0.00     0.016 C 
HETATM   36  C   UNK N   1      32.574  20.145  -5.828  0.00  0.00     0.016 C 
HETATM   37  C   UNK N   1      30.165  20.549  -6.111  0.00  0.00     0.016 C 
ENDBRANCH  33  34
ENDBRANCH   1  33
TORSDOF 5
ENDMDL
MODEL 9
REMARK VINA RESULT:      -7.2      2.562      4.600
REMARK  5 active torsions:
REMARK  status: ('A' for Active; 'I' for Inactive)
REMARK    1  A    between atoms: C_2  and  C_5 
REMARK    2  A    between atoms: C_5  and  N_6 
REMARK    3  A    between atoms: C_11  and  C_14 
REMARK    4  A    between atoms: C_15  and  C_24 
REMARK    5  A    between atoms: C_17  and  C_20 
REMARK       I    between atoms: C_33  and  N_34 
ROOT
HETATM    1  N   UNK N   1      27.446  19.808   5.777  0.00  0.00    -0.166 N 
HETATM    2  C   UNK N   1      28.182  18.860   6.356  0.00  0.00     0.151 A 
HETATM    3  C   UNK N   1      28.187  19.042   7.700  0.00  0.00     0.094 A 
HETATM    4  C   UNK N   1      28.906  18.208   8.532  0.00  0.00     0.036 A 
HETATM    5  C   UNK N   1      29.617  17.167   7.913  0.00  0.00     0.034 A 
HETATM    6  C   UNK N   1      29.568  16.976   6.507  0.00  0.00     0.063 A 
HETATM    7  N   UNK N   1      28.847  17.852   5.743  0.00  0.00    -0.338 N 
ATOM      8  HN  UNK N   1      28.810  17.747   4.729  1.00  0.00     0.167 HD
HETATM    9  N   UNK N   1      27.439  20.116   8.018  0.00  0.00    -0.188 N 
ATOM     10  HN  UNK N   1      27.249  20.500   8.943  1.00  0.00     0.184 HD
HETATM   11  C   UNK N   1      26.997  20.564   6.813  0.00  0.00     0.680 A 
HETATM   12  N   UNK N   1      26.180  21.702   6.668  0.00  0.00    -0.234 N 
HETATM   13  H   UNK N   1      25.975  22.277   7.440  0.00  0.00     0.174 HD
HETATM   14  H   UNK N   1      25.809  21.926   5.783  0.00  0.00     0.174 HD
ENDROOT
BRANCH   6  15
HETATM   15  C   UNK N   1      30.331  15.898   5.825  0.00  0.00     0.088 A 
HETATM   16  C   UNK N   1      31.663  15.509   5.969  0.00  0.00     0.073 A 
HETATM   17  N   UNK N   1      31.943  14.581   5.032  0.00  0.00    -0.343 N 
HETATM   18  C   UNK N   1      30.780  14.390   4.366  0.00  0.00     0.090 A 
HETATM   19  H   UNK N   1      32.807  14.137   4.868  0.00  0.00     0.167 HD
HETATM   20  N   UNK N   1      29.788  15.185   4.821  0.00  0.00    -0.342 N 
ATOM     21  HN  UNK N   1      28.829  15.234   4.476  1.00  0.00     0.167 HD
BRANCH  16  22
HETATM   22  C   UNK N   1      32.668  16.027   6.923  0.00  0.00    -0.007 A 
HETATM   23  C   UNK N   1      32.956  15.334   8.106  0.00  0.00     0.017 A 
HETATM   24  C   UNK N   1      33.813  15.873   9.062  0.00  0.00     0.043 A 
HETATM   25  C   UNK N   1      34.394  17.118   8.845  0.00  0.00     0.116 A 
HETATM   26  C   UNK N   1      34.159  17.800   7.644  0.00  0.00     0.043 A 
HETATM   27  F   UNK N   1      35.182  17.667   9.800  0.00  0.00    -0.206 F 
HETATM   28  C   UNK N   1      33.308  17.249   6.677  0.00  0.00     0.017 A 
ENDBRANCH  16  22
BRANCH  18  29
HETATM   29  C   UNK N   1      30.606  13.398   3.245  0.00  0.00     0.007 C 
HETATM   30  C   UNK N   1      31.900  13.281   2.460  0.00  0.00     0.022 C 
HETATM   31  C   UNK N   1      30.244  12.019   3.773  0.00  0.00     0.022 C 
HETATM   32  C   UNK N   1      29.503  13.859   2.313  0.00  0.00     0.022 C 
ENDBRANCH  18  29
ENDBRANCH   6  15
BRANCH   1  33
HETATM   33  C   UNK N   1      27.250  19.946   4.336  0.00  0.00     0.157 C 
BRANCH  33  34
HETATM   34  C   UNK N   1      25.962  19.313   3.815  0.00  0.00    -0.034 C 
HETATM   35  C   UNK N   1      25.342  20.187   2.747  0.00  0.00     0.016 C 
HETATM   36  C   UNK N   1      26.325  17.983   3.193  0.00  0.00     0.016 C 
HETATM   37  C   UNK N   1      24.957  19.062   4.927  0.00  0.00     0.016 C 
ENDBRANCH  33  34
ENDBRANCH   1  33
TORSDOF 5
ENDMDL
