MODEL 1
REMARK VINA RESULT:      -8.1      0.000      0.000
REMARK  9 active torsions:
REMARK  status: ('A' for Active; 'I' for Inactive)
REMARK    1  A    between atoms: N_9  and  C_38 
REMARK    2  A    between atoms: C_13  and  N_14 
REMARK       I    between atoms: N_14  and  C_15 
REMARK    3  A    between atoms: N_14  and  C_23 
REMARK    4  A    between atoms: C_23  and  C_24 
REMARK    5  A    between atoms: C_26  and  C_34 
REMARK    6  A    between atoms: C_28  and  C_30 
REMARK    7  A    between atoms: C_39  and  C_38 
REMARK    8  A    between atoms: C_42  and  C_45 
REMARK    9  A    between atoms: C_45  and  O_47 
ROOT
HETATM    1  C   UNK N   1      25.175  13.683   8.465  0.00  0.00     0.048 C 
HETATM    2  C   UNK N   1      24.889  13.812   7.013  0.00  0.00    -0.061 A 
HETATM    3  C   UNK N   1      25.320  14.934   6.320  0.00  0.00     0.018 A 
HETATM    4  C   UNK N   1      25.095  15.101   4.951  0.00  0.00    -0.007 A 
HETATM    5  C   UNK N   1      24.353  14.094   4.277  0.00  0.00     0.044 A 
HETATM    6  C   UNK N   1      23.922  12.945   4.984  0.00  0.00    -0.034 A 
HETATM    7  C   UNK N   1      24.201  12.810   6.343  0.00  0.00     0.015 A 
HETATM    8  C   UNK N   1      23.175  11.851   4.312  0.00  0.00     0.050 C 
HETATM    9  N   UNK N   1      24.002  14.260   2.913  0.00  0.00    -0.380 N 
HETATM   10  C   UNK N   1      25.061  14.215   1.930  0.00  0.00     0.123 C 
HETATM   11  C   UNK N   1      25.758  15.563   1.787  0.00  0.00     0.022 C 
HETATM   12  C   UNK N   1      26.547  15.934   3.035  0.00  0.00     0.032 C 
HETATM   13  C   UNK N   1      25.615  16.334   4.176  0.00  0.00     0.138 C 
ENDROOT
BRANCH  13  14
HETATM   14  N   UNK N   1      26.161  17.497   4.896  0.00  0.00    -0.202 N 
HETATM   15  C   UNK N   1      27.359  17.463   5.672  0.00  0.00     0.710 A 
HETATM   16  N   UNK N   1      28.505  16.878   5.275  0.00  0.00    -0.116 N 
HETATM   17  N   UNK N   1      27.580  18.231   6.761  0.00  0.00    -0.113 N 
HETATM   18  N   UNK N   1      29.402  17.254   6.165  0.00  0.00    -0.208 N 
ATOM     19  HN  UNK N   1      28.648  16.277   4.463  1.00  0.00     0.207 HD
HETATM   20  N   UNK N   1      28.859  18.062   7.059  0.00  0.00     0.011 NA
HETATM   21  C   UNK N   1      30.799  16.872   6.135  0.00  0.00     0.198 C 
ATOM     22  HN  UNK N   1      26.903  18.816   7.251  1.00  0.00     0.203 HD
BRANCH  14  23
HETATM   23  C   UNK N   1      25.465  18.780   4.767  0.00  0.00     0.180 C 
BRANCH  23  24
HETATM   24  C   UNK N   1      23.950  18.618   4.615  0.00  0.00    -0.038 A 
HETATM   25  C   UNK N   1      23.212  19.369   3.682  0.00  0.00     0.025 A 
HETATM   26  C   UNK N   1      21.821  19.148   3.538  0.00  0.00     0.049 A 
HETATM   27  C   UNK N   1      21.185  18.174   4.326  0.00  0.00     0.032 A 
HETATM   28  C   UNK N   1      21.918  17.427   5.247  0.00  0.00     0.049 A 
HETATM   29  C   UNK N   1      23.276  17.658   5.371  0.00  0.00     0.025 A 
BRANCH  26  30
HETATM   30  C   UNK N   1      21.018  19.934   2.541  0.00  0.00     0.417 C 
HETATM   31  F   UNK N   1      21.837  20.350   1.508  0.00  0.00    -0.166 F 
HETATM   32  F   UNK N   1      19.995  19.164   2.010  0.00  0.00    -0.166 F 
HETATM   33  F   UNK N   1      20.463  21.040   3.158  0.00  0.00    -0.166 F 
ENDBRANCH  26  30
BRANCH  28  34
HETATM   34  C   UNK N   1      21.292  16.369   6.107  0.00  0.00     0.417 C 
HETATM   35  F   UNK N   1      21.074  15.205   5.395  0.00  0.00    -0.166 F 
HETATM   36  F   UNK N   1      22.127  16.094   7.176  0.00  0.00    -0.166 F 
HETATM   37  F   UNK N   1      20.082  16.833   6.593  0.00  0.00    -0.166 F 
ENDBRANCH  28  34
ENDBRANCH  23  24
ENDBRANCH  14  23
ENDBRANCH  13  14
BRANCH   9  38
HETATM   38  C   UNK N   1      22.872  15.133   2.659  0.00  0.00     0.127 C 
BRANCH  38  39
HETATM   39  C   UNK N   1      22.084  14.835   1.375  0.00  0.00     0.004 C 
HETATM   40  C   UNK N   1      21.009  15.847   0.971  0.00  0.00     0.007 C 
HETATM   41  C   UNK N   1      19.747  15.700   1.831  0.00  0.00     0.015 C 
HETATM   42  C   UNK N   1      19.218  14.257   1.842  0.00  0.00     0.084 C 
HETATM   43  C   UNK N   1      20.324  13.282   2.260  0.00  0.00     0.015 C 
HETATM   44  C   UNK N   1      21.543  13.410   1.352  0.00  0.00     0.007 C 
BRANCH  42  45
HETATM   45  C   UNK N   1      18.579  13.834   0.544  0.00  0.00     0.143 C 
HETATM   46  O   UNK N   1      18.711  12.697   0.119  0.00  0.00    -0.650 OA
BRANCH  45  47
HETATM   47  O   UNK N   1      17.864  14.729  -0.165  0.00  0.00    -0.776 OA
HETATM   48  H   UNK N   1      18.235  15.560  -0.388  0.00  0.00     0.167 HD
ENDBRANCH  45  47
ENDBRANCH  42  45
ENDBRANCH  38  39
ENDBRANCH   9  38
TORSDOF 9
ENDMDL
MODEL 2
REMARK VINA RESULT:      -8.0      3.655      5.866
REMARK  9 active torsions:
REMARK  status: ('A' for Active; 'I' for Inactive)
REMARK    1  A    between atoms: N_9  and  C_38 
REMARK    2  A    between atoms: C_13  and  N_14 
REMARK       I    between atoms: N_14  and  C_15 
REMARK    3  A    between atoms: N_14  and  C_23 
REMARK    4  A    between atoms: C_23  and  C_24 
REMARK    5  A    between atoms: C_26  and  C_34 
REMARK    6  A    between atoms: C_28  and  C_30 
REMARK    7  A    between atoms: C_39  and  C_38 
REMARK    8  A    between atoms: C_42  and  C_45 
REMARK    9  A    between atoms: C_45  and  O_47 
ROOT
HETATM    1  C   UNK N   1      18.868  17.395   8.742  0.00  0.00     0.048 C 
HETATM    2  C   UNK N   1      19.992  16.537   8.287  0.00  0.00    -0.061 A 
HETATM    3  C   UNK N   1      20.572  16.758   7.046  0.00  0.00     0.018 A 
HETATM    4  C   UNK N   1      21.643  15.996   6.573  0.00  0.00    -0.007 A 
HETATM    5  C   UNK N   1      22.106  14.931   7.392  0.00  0.00     0.044 A 
HETATM    6  C   UNK N   1      21.519  14.713   8.662  0.00  0.00    -0.034 A 
HETATM    7  C   UNK N   1      20.474  15.523   9.102  0.00  0.00     0.015 A 
HETATM    8  C   UNK N   1      21.995  13.633   9.566  0.00  0.00     0.050 C 
HETATM    9  N   UNK N   1      23.118  14.057   6.919  0.00  0.00    -0.380 N 
HETATM   10  C   UNK N   1      24.453  14.588   6.760  0.00  0.00     0.123 C 
HETATM   11  C   UNK N   1      24.621  15.305   5.427  0.00  0.00     0.022 C 
HETATM   12  C   UNK N   1      23.799  16.584   5.358  0.00  0.00     0.032 C 
HETATM   13  C   UNK N   1      22.312  16.274   5.207  0.00  0.00     0.138 C 
ENDROOT
BRANCH  13  14
HETATM   14  N   UNK N   1      21.694  17.201   4.244  0.00  0.00    -0.202 N 
HETATM   15  C   UNK N   1      22.221  18.490   3.926  0.00  0.00     0.710 A 
HETATM   16  N   UNK N   1      23.522  18.738   3.683  0.00  0.00    -0.116 N 
HETATM   17  N   UNK N   1      21.467  19.550   3.565  0.00  0.00    -0.113 N 
HETATM   18  N   UNK N   1      23.549  19.975   3.227  0.00  0.00    -0.208 N 
ATOM     19  HN  UNK N   1      24.312  18.108   3.821  1.00  0.00     0.207 HD
HETATM   20  N   UNK N   1      22.326  20.470   3.154  0.00  0.00     0.011 NA
HETATM   21  C   UNK N   1      24.751  20.673   2.818  0.00  0.00     0.198 C 
ATOM     22  HN  UNK N   1      20.451  19.626   3.601  1.00  0.00     0.203 HD
BRANCH  14  23
HETATM   23  C   UNK N   1      20.494  16.757   3.529  0.00  0.00     0.180 C 
BRANCH  23  24
HETATM   24  C   UNK N   1      20.791  15.664   2.499  0.00  0.00    -0.038 A 
HETATM   25  C   UNK N   1      22.106  15.325   2.133  0.00  0.00     0.025 A 
HETATM   26  C   UNK N   1      22.336  14.270   1.217  0.00  0.00     0.049 A 
HETATM   27  C   UNK N   1      21.247  13.563   0.680  0.00  0.00     0.032 A 
HETATM   28  C   UNK N   1      19.944  13.896   1.047  0.00  0.00     0.049 A 
HETATM   29  C   UNK N   1      19.742  14.928   1.945  0.00  0.00     0.025 A 
BRANCH  26  30
HETATM   30  C   UNK N   1      23.735  13.889   0.820  0.00  0.00     0.417 C 
HETATM   31  F   UNK N   1      24.242  12.976   1.726  0.00  0.00    -0.166 F 
HETATM   32  F   UNK N   1      23.753  13.315  -0.442  0.00  0.00    -0.166 F 
HETATM   33  F   UNK N   1      24.538  15.014   0.805  0.00  0.00    -0.166 F 
ENDBRANCH  26  30
BRANCH  28  34
HETATM   34  C   UNK N   1      18.746  13.169   0.512  0.00  0.00     0.417 C 
HETATM   35  F   UNK N   1      19.118  12.077  -0.249  0.00  0.00    -0.166 F 
HETATM   36  F   UNK N   1      17.964  12.735   1.568  0.00  0.00    -0.166 F 
HETATM   37  F   UNK N   1      17.999  14.032  -0.272  0.00  0.00    -0.166 F 
ENDBRANCH  28  34
ENDBRANCH  23  24
ENDBRANCH  14  23
ENDBRANCH  13  14
BRANCH   9  38
HETATM   38  C   UNK N   1      22.677  13.031   5.993  0.00  0.00     0.127 C 
BRANCH  38  39
HETATM   39  C   UNK N   1      21.351  12.344   6.351  0.00  0.00     0.004 C 
HETATM   40  C   UNK N   1      21.381  10.822   6.514  0.00  0.00     0.007 C 
HETATM   41  C   UNK N   1      21.433  10.112   5.156  0.00  0.00     0.015 C 
HETATM   42  C   UNK N   1      20.309  10.578   4.216  0.00  0.00     0.084 C 
HETATM   43  C   UNK N   1      20.324  12.103   4.076  0.00  0.00     0.015 C 
HETATM   44  C   UNK N   1      20.213  12.783   5.437  0.00  0.00     0.007 C 
BRANCH  42  45
HETATM   45  C   UNK N   1      18.942  10.078   4.608  0.00  0.00     0.143 C 
HETATM   46  O   UNK N   1      18.804   9.007   5.178  0.00  0.00    -0.650 OA
BRANCH  45  47
HETATM   47  O   UNK N   1      17.856  10.816   4.310  0.00  0.00    -0.776 OA
HETATM   48  H   UNK N   1      17.337  11.192   4.994  0.00  0.00     0.167 HD
ENDBRANCH  45  47
ENDBRANCH  42  45
ENDBRANCH  38  39
ENDBRANCH   9  38
TORSDOF 9
ENDMDL
MODEL 3
REMARK VINA RESULT:      -8.0      4.293      6.955
REMARK  9 active torsions:
REMARK  status: ('A' for Active; 'I' for Inactive)
REMARK    1  A    between atoms: N_9  and  C_38 
REMARK    2  A    between atoms: C_13  and  N_14 
REMARK       I    between atoms: N_14  and  C_15 
REMARK    3  A    between atoms: N_14  and  C_23 
REMARK    4  A    between atoms: C_23  and  C_24 
REMARK    5  A    between atoms: C_26  and  C_34 
REMARK    6  A    between atoms: C_28  and  C_30 
REMARK    7  A    between atoms: C_39  and  C_38 
REMARK    8  A    between atoms: C_42  and  C_45 
REMARK    9  A    between atoms: C_45  and  O_47 
ROOT
HETATM    1  C   UNK N   1      27.083  20.561   3.916  0.00  0.00     0.048 C 
HETATM    2  C   UNK N   1      26.249  19.358   4.174  0.00  0.00    -0.061 A 
HETATM    3  C   UNK N   1      26.857  18.150   4.486  0.00  0.00     0.018 A 
HETATM    4  C   UNK N   1      26.124  16.991   4.756  0.00  0.00    -0.007 A 
HETATM    5  C   UNK N   1      24.709  17.067   4.653  0.00  0.00     0.044 A 
HETATM    6  C   UNK N   1      24.091  18.303   4.343  0.00  0.00    -0.034 A 
HETATM    7  C   UNK N   1      24.865  19.439   4.115  0.00  0.00     0.015 A 
HETATM    8  C   UNK N   1      22.613  18.436   4.260  0.00  0.00     0.050 C 
HETATM    9  N   UNK N   1      23.920  15.899   4.811  0.00  0.00    -0.380 N 
HETATM   10  C   UNK N   1      23.847  15.302   6.126  0.00  0.00     0.123 C 
HETATM   11  C   UNK N   1      25.035  14.387   6.397  0.00  0.00     0.022 C 
HETATM   12  C   UNK N   1      26.340  15.162   6.512  0.00  0.00     0.032 C 
HETATM   13  C   UNK N   1      26.806  15.658   5.146  0.00  0.00     0.138 C 
ENDROOT
BRANCH  13  14
HETATM   14  N   UNK N   1      28.264  15.495   5.014  0.00  0.00    -0.202 N 
HETATM   15  C   UNK N   1      28.924  14.230   4.980  0.00  0.00     0.710 A 
HETATM   16  N   UNK N   1      28.507  13.176   4.253  0.00  0.00    -0.116 N 
HETATM   17  N   UNK N   1      30.175  14.014   5.443  0.00  0.00    -0.113 N 
HETATM   18  N   UNK N   1      29.492  12.303   4.330  0.00  0.00    -0.208 N 
ATOM     19  HN  UNK N   1      27.624  13.075   3.753  1.00  0.00     0.207 HD
HETATM   20  N   UNK N   1      30.494  12.793   5.040  0.00  0.00     0.011 NA
HETATM   21  C   UNK N   1      29.493  11.006   3.683  0.00  0.00     0.198 C 
ATOM     22  HN  UNK N   1      30.751  14.655   5.987  1.00  0.00     0.203 HD
BRANCH  14  23
HETATM   23  C   UNK N   1      29.083  16.700   4.857  0.00  0.00     0.180 C 
BRANCH  23  24
HETATM   24  C   UNK N   1      29.914  17.017   6.103  0.00  0.00    -0.038 A 
HETATM   25  C   UNK N   1      31.316  17.121   6.055  0.00  0.00     0.025 A 
HETATM   26  C   UNK N   1      32.040  17.469   7.221  0.00  0.00     0.049 A 
HETATM   27  C   UNK N   1      31.352  17.713   8.422  0.00  0.00     0.032 A 
HETATM   28  C   UNK N   1      29.962  17.615   8.467  0.00  0.00     0.049 A 
HETATM   29  C   UNK N   1      29.274  17.276   7.316  0.00  0.00     0.025 A 
BRANCH  26  30
HETATM   30  C   UNK N   1      33.537  17.592   7.187  0.00  0.00     0.417 C 
HETATM   31  F   UNK N   1      33.964  17.718   5.879  0.00  0.00    -0.166 F 
HETATM   32  F   UNK N   1      33.960  18.704   7.898  0.00  0.00    -0.166 F 
HETATM   33  F   UNK N   1      34.111  16.466   7.749  0.00  0.00    -0.166 F 
ENDBRANCH  26  30
BRANCH  28  34
HETATM   34  C   UNK N   1      29.177  17.875   9.719  0.00  0.00     0.417 C 
HETATM   35  F   UNK N   1      29.228  16.794  10.579  0.00  0.00    -0.166 F 
HETATM   36  F   UNK N   1      29.693  18.986  10.361  0.00  0.00    -0.166 F 
HETATM   37  F   UNK N   1      27.856  18.124   9.387  0.00  0.00    -0.166 F 
ENDBRANCH  28  34
ENDBRANCH  23  24
ENDBRANCH  14  23
ENDBRANCH  13  14
BRANCH   9  38
HETATM   38  C   UNK N   1      23.865  15.020   3.658  0.00  0.00     0.127 C 
BRANCH  38  39
HETATM   39  C   UNK N   1      22.572  14.204   3.512  0.00  0.00     0.004 C 
HETATM   40  C   UNK N   1      22.542  13.145   2.407  0.00  0.00     0.007 C 
HETATM   41  C   UNK N   1      22.348  13.781   1.025  0.00  0.00     0.015 C 
HETATM   42  C   UNK N   1      21.123  14.709   0.981  0.00  0.00     0.084 C 
HETATM   43  C   UNK N   1      21.201  15.755   2.097  0.00  0.00     0.015 C 
HETATM   44  C   UNK N   1      21.335  15.094   3.465  0.00  0.00     0.007 C 
BRANCH  42  45
HETATM   45  C   UNK N   1      19.806  13.978   1.008  0.00  0.00     0.143 C 
HETATM   46  O   UNK N   1      19.690  12.871   0.504  0.00  0.00    -0.650 OA
BRANCH  45  47
HETATM   47  O   UNK N   1      18.736  14.561   1.582  0.00  0.00    -0.776 OA
HETATM   48  H   UNK N   1      18.582  14.468   2.501  0.00  0.00     0.167 HD
ENDBRANCH  45  47
ENDBRANCH  42  45
ENDBRANCH  38  39
ENDBRANCH   9  38
TORSDOF 9
ENDMDL
MODEL 4
REMARK VINA RESULT:      -8.0      4.279      7.049
REMARK  9 active torsions:
REMARK  status: ('A' for Active; 'I' for Inactive)
REMARK    1  A    between atoms: N_9  and  C_38 
REMARK    2  A    between atoms: C_13  and  N_14 
REMARK       I    between atoms: N_14  and  C_15 
REMARK    3  A    between atoms: N_14  and  C_23 
REMARK    4  A    between atoms: C_23  and  C_24 
REMARK    5  A    between atoms: C_26  and  C_34 
REMARK    6  A    between atoms: C_28  and  C_30 
REMARK    7  A    between atoms: C_39  and  C_38 
REMARK    8  A    between atoms: C_42  and  C_45 
REMARK    9  A    between atoms: C_45  and  O_47 
ROOT
HETATM    1  C   UNK N   1      27.081  20.466   3.549  0.00  0.00     0.048 C 
HETATM    2  C   UNK N   1      26.242  19.286   3.881  0.00  0.00    -0.061 A 
HETATM    3  C   UNK N   1      26.844  18.096   4.264  0.00  0.00     0.018 A 
HETATM    4  C   UNK N   1      26.105  16.959   4.605  0.00  0.00    -0.007 A 
HETATM    5  C   UNK N   1      24.691  17.037   4.501  0.00  0.00     0.044 A 
HETATM    6  C   UNK N   1      24.079  18.255   4.119  0.00  0.00    -0.034 A 
HETATM    7  C   UNK N   1      24.858  19.371   3.821  0.00  0.00     0.015 A 
HETATM    8  C   UNK N   1      22.601  18.392   4.031  0.00  0.00     0.050 C 
HETATM    9  N   UNK N   1      23.895  15.886   4.731  0.00  0.00    -0.380 N 
HETATM   10  C   UNK N   1      23.822  15.369   6.079  0.00  0.00     0.123 C 
HETATM   11  C   UNK N   1      25.006  14.465   6.403  0.00  0.00     0.022 C 
HETATM   12  C   UNK N   1      26.315  15.239   6.468  0.00  0.00     0.032 C 
HETATM   13  C   UNK N   1      26.781  15.649   5.073  0.00  0.00     0.138 C 
ENDROOT
BRANCH  13  14
HETATM   14  N   UNK N   1      28.237  15.470   4.949  0.00  0.00    -0.202 N 
HETATM   15  C   UNK N   1      28.887  14.198   4.951  0.00  0.00     0.710 A 
HETATM   16  N   UNK N   1      28.462  13.128   4.254  0.00  0.00    -0.116 N 
HETATM   17  N   UNK N   1      30.135  13.985   5.422  0.00  0.00    -0.113 N 
HETATM   18  N   UNK N   1      29.439  12.249   4.357  0.00  0.00    -0.208 N 
ATOM     19  HN  UNK N   1      27.579  13.020   3.756  1.00  0.00     0.207 HD
HETATM   20  N   UNK N   1      30.444  12.751   5.055  0.00  0.00     0.011 NA
HETATM   21  C   UNK N   1      29.430  10.935   3.748  0.00  0.00     0.198 C 
ATOM     22  HN  UNK N   1      30.716  14.637   5.949  1.00  0.00     0.203 HD
BRANCH  14  23
HETATM   23  C   UNK N   1      29.067  16.663   4.758  0.00  0.00     0.180 C 
BRANCH  23  24
HETATM   24  C   UNK N   1      29.815  17.071   6.029  0.00  0.00    -0.038 A 
HETATM   25  C   UNK N   1      29.146  17.294   7.247  0.00  0.00     0.025 A 
HETATM   26  C   UNK N   1      29.883  17.618   8.411  0.00  0.00     0.049 A 
HETATM   27  C   UNK N   1      31.284  17.710   8.345  0.00  0.00     0.032 A 
HETATM   28  C   UNK N   1      31.947  17.485   7.140  0.00  0.00     0.049 A 
HETATM   29  C   UNK N   1      31.207  17.168   6.015  0.00  0.00     0.025 A 
BRANCH  26  30
HETATM   30  C   UNK N   1      29.186  17.852   9.721  0.00  0.00     0.417 C 
HETATM   31  F   UNK N   1      29.712  18.974  10.334  0.00  0.00    -0.166 F 
HETATM   32  F   UNK N   1      27.827  18.048   9.532  0.00  0.00    -0.166 F 
HETATM   33  F   UNK N   1      29.363  16.756  10.545  0.00  0.00    -0.166 F 
ENDBRANCH  26  30
BRANCH  28  34
HETATM   34  C   UNK N   1      33.440  17.561   7.015  0.00  0.00     0.417 C 
HETATM   35  F   UNK N   1      33.826  17.784   5.707  0.00  0.00    -0.166 F 
HETATM   36  F   UNK N   1      33.913  18.593   7.806  0.00  0.00    -0.166 F 
HETATM   37  F   UNK N   1      33.997  16.371   7.452  0.00  0.00    -0.166 F 
ENDBRANCH  28  34
ENDBRANCH  23  24
ENDBRANCH  14  23
ENDBRANCH  13  14
BRANCH   9  38
HETATM   38  C   UNK N   1      23.832  14.939   3.634  0.00  0.00     0.127 C 
BRANCH  38  39
HETATM   39  C   UNK N   1      22.519  14.151   3.517  0.00  0.00     0.004 C 
HETATM   40  C   UNK N   1      22.465  13.047   2.457  0.00  0.00     0.007 C 
HETATM   41  C   UNK N   1      22.292  13.629   1.048  0.00  0.00     0.015 C 
HETATM   42  C   UNK N   1      21.091  14.585   0.960  0.00  0.00     0.084 C 
HETATM   43  C   UNK N   1      21.193  15.676   2.031  0.00  0.00     0.015 C 
HETATM   44  C   UNK N   1      21.306  15.069   3.427  0.00  0.00     0.007 C 
BRANCH  42  45
HETATM   45  C   UNK N   1      19.755  13.890   1.013  0.00  0.00     0.143 C 
HETATM   46  O   UNK N   1      19.641  12.722   0.676  0.00  0.00    -0.650 OA
BRANCH  45  47
HETATM   47  O   UNK N   1      18.668  14.573   1.421  0.00  0.00    -0.776 OA
HETATM   48  H   UNK N   1      18.572  14.815   2.321  0.00  0.00     0.167 HD
ENDBRANCH  45  47
ENDBRANCH  42  45
ENDBRANCH  38  39
ENDBRANCH   9  38
TORSDOF 9
ENDMDL
MODEL 5
REMARK VINA RESULT:      -8.0      3.370      6.175
REMARK  9 active torsions:
REMARK  status: ('A' for Active; 'I' for Inactive)
REMARK    1  A    between atoms: N_9  and  C_38 
REMARK    2  A    between atoms: C_13  and  N_14 
REMARK       I    between atoms: N_14  and  C_15 
REMARK    3  A    between atoms: N_14  and  C_23 
REMARK    4  A    between atoms: C_23  and  C_24 
REMARK    5  A    between atoms: C_26  and  C_34 
REMARK    6  A    between atoms: C_28  and  C_30 
REMARK    7  A    between atoms: C_39  and  C_38 
REMARK    8  A    between atoms: C_42  and  C_45 
REMARK    9  A    between atoms: C_45  and  O_47 
ROOT
HETATM    1  C   UNK N   1      25.555  20.926   2.353  0.00  0.00     0.048 C 
HETATM    2  C   UNK N   1      24.740  19.851   2.973  0.00  0.00    -0.061 A 
HETATM    3  C   UNK N   1      25.340  18.657   3.348  0.00  0.00     0.018 A 
HETATM    4  C   UNK N   1      24.626  17.617   3.952  0.00  0.00    -0.007 A 
HETATM    5  C   UNK N   1      23.229  17.796   4.133  0.00  0.00     0.044 A 
HETATM    6  C   UNK N   1      22.621  19.018   3.758  0.00  0.00    -0.034 A 
HETATM    7  C   UNK N   1      23.382  20.038   3.190  0.00  0.00     0.015 A 
HETATM    8  C   UNK N   1      21.168  19.261   3.962  0.00  0.00     0.050 C 
HETATM    9  N   UNK N   1      22.435  16.736   4.642  0.00  0.00    -0.380 N 
HETATM   10  C   UNK N   1      22.621  16.352   6.023  0.00  0.00     0.123 C 
HETATM   11  C   UNK N   1      23.792  15.391   6.190  0.00  0.00     0.022 C 
HETATM   12  C   UNK N   1      25.128  16.063   5.902  0.00  0.00     0.032 C 
HETATM   13  C   UNK N   1      25.309  16.306   4.406  0.00  0.00     0.138 C 
ENDROOT
BRANCH  13  14
HETATM   14  N   UNK N   1      26.693  16.003   4.004  0.00  0.00    -0.202 N 
HETATM   15  C   UNK N   1      27.156  14.696   3.665  0.00  0.00     0.710 A 
HETATM   16  N   UNK N   1      26.491  13.839   2.867  0.00  0.00    -0.116 N 
HETATM   17  N   UNK N   1      28.419  14.262   3.868  0.00  0.00    -0.113 N 
HETATM   18  N   UNK N   1      27.344  12.859   2.640  0.00  0.00    -0.208 N 
ATOM     19  HN  UNK N   1      25.538  13.928   2.516  1.00  0.00     0.207 HD
HETATM   20  N   UNK N   1      28.499  13.101   3.235  0.00  0.00     0.011 NA
HETATM   21  C   UNK N   1      27.065  11.703   1.812  0.00  0.00     0.198 C 
ATOM     22  HN  UNK N   1      29.154  14.728   4.398  1.00  0.00     0.203 HD
BRANCH  14  23
HETATM   23  C   UNK N   1      27.642  17.116   3.895  0.00  0.00     0.180 C 
BRANCH  23  24
HETATM   24  C   UNK N   1      27.868  17.832   5.229  0.00  0.00    -0.038 A 
HETATM   25  C   UNK N   1      28.661  17.273   6.248  0.00  0.00     0.025 A 
HETATM   26  C   UNK N   1      28.887  17.994   7.445  0.00  0.00     0.049 A 
HETATM   27  C   UNK N   1      28.322  19.270   7.607  0.00  0.00     0.032 A 
HETATM   28  C   UNK N   1      27.540  19.826   6.595  0.00  0.00     0.049 A 
HETATM   29  C   UNK N   1      27.333  19.105   5.433  0.00  0.00     0.025 A 
BRANCH  26  30
HETATM   30  C   UNK N   1      29.738  17.417   8.541  0.00  0.00     0.417 C 
HETATM   31  F   UNK N   1      30.531  16.406   8.030  0.00  0.00    -0.166 F 
HETATM   32  F   UNK N   1      30.560  18.386   9.094  0.00  0.00    -0.166 F 
HETATM   33  F   UNK N   1      28.929  16.904   9.538  0.00  0.00    -0.166 F 
ENDBRANCH  26  30
BRANCH  28  34
HETATM   34  C   UNK N   1      26.920  21.187   6.711  0.00  0.00     0.417 C 
HETATM   35  F   UNK N   1      27.868  22.185   6.586  0.00  0.00    -0.166 F 
HETATM   36  F   UNK N   1      25.969  21.344   5.719  0.00  0.00    -0.166 F 
HETATM   37  F   UNK N   1      26.303  21.304   7.945  0.00  0.00    -0.166 F 
ENDBRANCH  28  34
ENDBRANCH  23  24
ENDBRANCH  14  23
ENDBRANCH  13  14
BRANCH   9  38
HETATM   38  C   UNK N   1      22.086  15.701   3.687  0.00  0.00     0.127 C 
BRANCH  38  39
HETATM   39  C   UNK N   1      20.589  15.575   3.368  0.00  0.00     0.004 C 
HETATM   40  C   UNK N   1      19.999  14.163   3.357  0.00  0.00     0.007 C 
HETATM   41  C   UNK N   1      20.380  13.404   2.080  0.00  0.00     0.015 C 
HETATM   42  C   UNK N   1      20.027  14.195   0.810  0.00  0.00     0.084 C 
HETATM   43  C   UNK N   1      20.646  15.596   0.860  0.00  0.00     0.015 C 
HETATM   44  C   UNK N   1      20.205  16.349   2.112  0.00  0.00     0.007 C 
BRANCH  42  45
HETATM   45  C   UNK N   1      18.549  14.260   0.524  0.00  0.00     0.143 C 
HETATM   46  O   UNK N   1      17.790  13.397   0.937  0.00  0.00    -0.650 OA
BRANCH  45  47
HETATM   47  O   UNK N   1      18.060  15.278  -0.211  0.00  0.00    -0.776 OA
HETATM   48  H   UNK N   1      18.150  15.274  -1.143  0.00  0.00     0.167 HD
ENDBRANCH  45  47
ENDBRANCH  42  45
ENDBRANCH  38  39
ENDBRANCH   9  38
TORSDOF 9
ENDMDL
MODEL 6
REMARK VINA RESULT:      -7.9      0.431      2.572
REMARK  9 active torsions:
REMARK  status: ('A' for Active; 'I' for Inactive)
REMARK    1  A    between atoms: N_9  and  C_38 
REMARK    2  A    between atoms: C_13  and  N_14 
REMARK       I    between atoms: N_14  and  C_15 
REMARK    3  A    between atoms: N_14  and  C_23 
REMARK    4  A    between atoms: C_23  and  C_24 
REMARK    5  A    between atoms: C_26  and  C_34 
REMARK    6  A    between atoms: C_28  and  C_30 
REMARK    7  A    between atoms: C_39  and  C_38 
REMARK    8  A    between atoms: C_42  and  C_45 
REMARK    9  A    between atoms: C_45  and  O_47 
ROOT
HETATM    1  C   UNK N   1      25.114  13.729   8.644  0.00  0.00     0.048 C 
HETATM    2  C   UNK N   1      24.822  13.859   7.193  0.00  0.00    -0.061 A 
HETATM    3  C   UNK N   1      25.246  14.985   6.500  0.00  0.00     0.018 A 
HETATM    4  C   UNK N   1      25.016  15.153   5.132  0.00  0.00    -0.007 A 
HETATM    5  C   UNK N   1      24.278  14.143   4.459  0.00  0.00     0.044 A 
HETATM    6  C   UNK N   1      23.854  12.992   5.166  0.00  0.00    -0.034 A 
HETATM    7  C   UNK N   1      24.137  12.855   6.523  0.00  0.00     0.015 A 
HETATM    8  C   UNK N   1      23.110  11.894   4.493  0.00  0.00     0.050 C 
HETATM    9  N   UNK N   1      23.922  14.310   3.096  0.00  0.00    -0.380 N 
HETATM   10  C   UNK N   1      24.978  14.272   2.110  0.00  0.00     0.123 C 
HETATM   11  C   UNK N   1      25.667  15.624   1.968  0.00  0.00     0.022 C 
HETATM   12  C   UNK N   1      26.458  15.996   3.214  0.00  0.00     0.032 C 
HETATM   13  C   UNK N   1      25.528  16.390   4.358  0.00  0.00     0.138 C 
ENDROOT
BRANCH  13  14
HETATM   14  N   UNK N   1      26.071  17.554   5.078  0.00  0.00    -0.202 N 
HETATM   15  C   UNK N   1      27.269  17.523   5.855  0.00  0.00     0.710 A 
HETATM   16  N   UNK N   1      28.416  16.941   5.458  0.00  0.00    -0.116 N 
HETATM   17  N   UNK N   1      27.486  18.292   6.945  0.00  0.00    -0.113 N 
HETATM   18  N   UNK N   1      29.312  17.320   6.348  0.00  0.00    -0.208 N 
ATOM     19  HN  UNK N   1      28.561  16.341   4.646  1.00  0.00     0.207 HD
HETATM   20  N   UNK N   1      28.766  18.127   7.243  0.00  0.00     0.011 NA
HETATM   21  C   UNK N   1      30.710  16.942   6.318  0.00  0.00     0.198 C 
ATOM     22  HN  UNK N   1      26.808  18.875   7.434  1.00  0.00     0.203 HD
BRANCH  14  23
HETATM   23  C   UNK N   1      25.371  18.836   4.949  0.00  0.00     0.180 C 
BRANCH  23  24
HETATM   24  C   UNK N   1      23.859  18.668   4.774  0.00  0.00    -0.038 A 
HETATM   25  C   UNK N   1      23.082  17.932   5.686  0.00  0.00     0.025 A 
HETATM   26  C   UNK N   1      21.680  17.848   5.515  0.00  0.00     0.049 A 
HETATM   27  C   UNK N   1      21.069  18.506   4.434  0.00  0.00     0.032 A 
HETATM   28  C   UNK N   1      21.839  19.240   3.533  0.00  0.00     0.049 A 
HETATM   29  C   UNK N   1      23.208  19.311   3.720  0.00  0.00     0.025 A 
BRANCH  26  30
HETATM   30  C   UNK N   1      20.832  17.073   6.484  0.00  0.00     0.417 C 
HETATM   31  F   UNK N   1      19.744  16.535   5.823  0.00  0.00    -0.166 F 
HETATM   32  F   UNK N   1      21.555  16.038   7.057  0.00  0.00    -0.166 F 
HETATM   33  F   UNK N   1      20.388  17.911   7.490  0.00  0.00    -0.166 F 
ENDBRANCH  26  30
BRANCH  28  34
HETATM   34  C   UNK N   1      21.239  19.970   2.368  0.00  0.00     0.417 C 
HETATM   35  F   UNK N   1      22.214  20.556   1.583  0.00  0.00    -0.166 F 
HETATM   36  F   UNK N   1      20.514  19.080   1.594  0.00  0.00    -0.166 F 
HETATM   37  F   UNK N   1      20.385  20.954   2.835  0.00  0.00    -0.166 F 
ENDBRANCH  28  34
ENDBRANCH  23  24
ENDBRANCH  14  23
ENDBRANCH  13  14
BRANCH   9  38
HETATM   38  C   UNK N   1      22.786  15.178   2.847  0.00  0.00     0.127 C 
BRANCH  38  39
HETATM   39  C   UNK N   1      22.042  14.927   1.527  0.00  0.00     0.004 C 
HETATM   40  C   UNK N   1      20.920  15.905   1.168  0.00  0.00     0.007 C 
HETATM   41  C   UNK N   1      19.652  15.631   1.986  0.00  0.00     0.015 C 
HETATM   42  C   UNK N   1      19.204  14.164   1.886  0.00  0.00     0.084 C 
HETATM   43  C   UNK N   1      20.354  13.224   2.263  0.00  0.00     0.015 C 
HETATM   44  C   UNK N   1      21.582  13.480   1.395  0.00  0.00     0.007 C 
BRANCH  42  45
HETATM   45  C   UNK N   1      18.615  13.798   0.548  0.00  0.00     0.143 C 
HETATM   46  O   UNK N   1      18.645  12.647   0.141  0.00  0.00    -0.650 OA
BRANCH  45  47
HETATM   47  O   UNK N   1      18.061  14.758  -0.217  0.00  0.00    -0.776 OA
HETATM   48  H   UNK N   1      18.403  15.631  -0.202  0.00  0.00     0.167 HD
ENDBRANCH  45  47
ENDBRANCH  42  45
ENDBRANCH  38  39
ENDBRANCH   9  38
TORSDOF 9
ENDMDL
MODEL 7
REMARK VINA RESULT:      -7.8      4.217      8.006
REMARK  9 active torsions:
REMARK  status: ('A' for Active; 'I' for Inactive)
REMARK    1  A    between atoms: N_9  and  C_38 
REMARK    2  A    between atoms: C_13  and  N_14 
REMARK       I    between atoms: N_14  and  C_15 
REMARK    3  A    between atoms: N_14  and  C_23 
REMARK    4  A    between atoms: C_23  and  C_24 
REMARK    5  A    between atoms: C_26  and  C_34 
REMARK    6  A    between atoms: C_28  and  C_30 
REMARK    7  A    between atoms: C_39  and  C_38 
REMARK    8  A    between atoms: C_42  and  C_45 
REMARK    9  A    between atoms: C_45  and  O_47 
ROOT
HETATM    1  C   UNK N   1      20.751  18.244   3.767  0.00  0.00     0.048 C 
HETATM    2  C   UNK N   1      22.222  18.067   3.877  0.00  0.00    -0.061 A 
HETATM    3  C   UNK N   1      22.751  16.803   4.102  0.00  0.00     0.018 A 
HETATM    4  C   UNK N   1      24.127  16.574   4.197  0.00  0.00    -0.007 A 
HETATM    5  C   UNK N   1      24.990  17.698   4.105  0.00  0.00     0.044 A 
HETATM    6  C   UNK N   1      24.448  18.984   3.867  0.00  0.00    -0.034 A 
HETATM    7  C   UNK N   1      23.071  19.156   3.746  0.00  0.00     0.015 A 
HETATM    8  C   UNK N   1      25.317  20.183   3.728  0.00  0.00     0.050 C 
HETATM    9  N   UNK N   1      26.386  17.542   4.301  0.00  0.00    -0.380 N 
HETATM   10  C   UNK N   1      27.134  16.816   3.299  0.00  0.00     0.123 C 
HETATM   11  C   UNK N   1      27.059  15.310   3.519  0.00  0.00     0.022 C 
HETATM   12  C   UNK N   1      25.659  14.765   3.275  0.00  0.00     0.032 C 
HETATM   13  C   UNK N   1      24.712  15.158   4.405  0.00  0.00     0.138 C 
ENDROOT
BRANCH  13  14
HETATM   14  N   UNK N   1      23.834  14.027   4.750  0.00  0.00    -0.202 N 
HETATM   15  C   UNK N   1      22.809  13.522   3.893  0.00  0.00     0.710 A 
HETATM   16  N   UNK N   1      22.965  13.301   2.574  0.00  0.00    -0.116 N 
HETATM   17  N   UNK N   1      21.665  12.955   4.332  0.00  0.00    -0.113 N 
HETATM   18  N   UNK N   1      21.879  12.646   2.213  0.00  0.00    -0.208 N 
ATOM     19  HN  UNK N   1      23.750  13.577   1.985  1.00  0.00     0.207 HD
HETATM   20  N   UNK N   1      21.094  12.436   3.256  0.00  0.00     0.011 NA
HETATM   21  C   UNK N   1      21.610  12.181   0.867  0.00  0.00     0.198 C 
ATOM     22  HN  UNK N   1      21.314  12.933   5.289  1.00  0.00     0.203 HD
BRANCH  14  23
HETATM   23  C   UNK N   1      24.058  13.342   6.027  0.00  0.00     0.180 C 
BRANCH  23  24
HETATM   24  C   UNK N   1      23.095  13.806   7.123  0.00  0.00    -0.038 A 
HETATM   25  C   UNK N   1      22.322  14.973   6.988  0.00  0.00     0.025 A 
HETATM   26  C   UNK N   1      21.404  15.336   8.003  0.00  0.00     0.049 A 
HETATM   27  C   UNK N   1      21.266  14.523   9.140  0.00  0.00     0.032 A 
HETATM   28  C   UNK N   1      22.029  13.363   9.271  0.00  0.00     0.049 A 
HETATM   29  C   UNK N   1      22.918  13.026   8.267  0.00  0.00     0.025 A 
BRANCH  26  30
HETATM   30  C   UNK N   1      20.564  16.575   7.872  0.00  0.00     0.417 C 
HETATM   31  F   UNK N   1      21.223  17.503   7.088  0.00  0.00    -0.166 F 
HETATM   32  F   UNK N   1      19.343  16.287   7.282  0.00  0.00    -0.166 F 
HETATM   33  F   UNK N   1      20.332  17.115   9.123  0.00  0.00    -0.166 F 
ENDBRANCH  26  30
BRANCH  28  34
HETATM   34  C   UNK N   1      21.915  12.454  10.460  0.00  0.00     0.417 C 
HETATM   35  F   UNK N   1      22.703  12.893  11.507  0.00  0.00    -0.166 F 
HETATM   36  F   UNK N   1      20.597  12.409  10.877  0.00  0.00    -0.166 F 
HETATM   37  F   UNK N   1      22.314  11.178  10.100  0.00  0.00    -0.166 F 
ENDBRANCH  28  34
ENDBRANCH  23  24
ENDBRANCH  14  23
ENDBRANCH  13  14
BRANCH   9  38
HETATM   38  C   UNK N   1      26.817  17.439   5.682  0.00  0.00     0.127 C 
BRANCH  38  39
HETATM   39  C   UNK N   1      28.041  18.289   6.056  0.00  0.00     0.004 C 
HETATM   40  C   UNK N   1      29.417  17.647   5.859  0.00  0.00     0.007 C 
HETATM   41  C   UNK N   1      29.728  16.633   6.967  0.00  0.00     0.015 C 
HETATM   42  C   UNK N   1      29.560  17.239   8.370  0.00  0.00     0.084 C 
HETATM   43  C   UNK N   1      28.168  17.860   8.524  0.00  0.00     0.015 C 
HETATM   44  C   UNK N   1      27.908  18.905   7.444  0.00  0.00     0.007 C 
BRANCH  42  45
HETATM   45  C   UNK N   1      30.640  18.220   8.742  0.00  0.00     0.143 C 
HETATM   46  O   UNK N   1      30.394  19.195   9.436  0.00  0.00    -0.650 OA
BRANCH  45  47
HETATM   47  O   UNK N   1      31.894  18.029   8.288  0.00  0.00    -0.776 OA
HETATM   48  H   UNK N   1      32.621  18.056   8.880  0.00  0.00     0.167 HD
ENDBRANCH  45  47
ENDBRANCH  42  45
ENDBRANCH  38  39
ENDBRANCH   9  38
TORSDOF 9
ENDMDL
MODEL 8
REMARK VINA RESULT:      -7.7      4.152      7.054
REMARK  9 active torsions:
REMARK  status: ('A' for Active; 'I' for Inactive)
REMARK    1  A    between atoms: N_9  and  C_38 
REMARK    2  A    between atoms: C_13  and  N_14 
REMARK       I    between atoms: N_14  and  C_15 
REMARK    3  A    between atoms: N_14  and  C_23 
REMARK    4  A    between atoms: C_23  and  C_24 
REMARK    5  A    between atoms: C_26  and  C_34 
REMARK    6  A    between atoms: C_28  and  C_30 
REMARK    7  A    between atoms: C_39  and  C_38 
REMARK    8  A    between atoms: C_42  and  C_45 
REMARK    9  A    between atoms: C_45  and  O_47 
ROOT
HETATM    1  C   UNK N   1      22.838  11.745  11.237  0.00  0.00     0.048 C 
HETATM    2  C   UNK N   1      22.410  12.436   9.993  0.00  0.00    -0.061 A 
HETATM    3  C   UNK N   1      22.746  11.905   8.756  0.00  0.00     0.018 A 
HETATM    4  C   UNK N   1      22.356  12.501   7.553  0.00  0.00    -0.007 A 
HETATM    5  C   UNK N   1      21.631  13.720   7.628  0.00  0.00     0.044 A 
HETATM    6  C   UNK N   1      21.282  14.256   8.891  0.00  0.00    -0.034 A 
HETATM    7  C   UNK N   1      21.666  13.605  10.062  0.00  0.00     0.015 A 
HETATM    8  C   UNK N   1      20.493  15.510   9.015  0.00  0.00     0.050 C 
HETATM    9  N   UNK N   1      21.301  14.426   6.443  0.00  0.00    -0.380 N 
HETATM   10  C   UNK N   1      20.326  13.837   5.552  0.00  0.00     0.123 C 
HETATM   11  C   UNK N   1      20.960  12.812   4.619  0.00  0.00     0.022 C 
HETATM   12  C   UNK N   1      21.440  11.577   5.367  0.00  0.00     0.032 C 
HETATM   13  C   UNK N   1      22.697  11.880   6.179  0.00  0.00     0.138 C 
ENDROOT
BRANCH  13  14
HETATM   14  N   UNK N   1      23.652  10.764   6.076  0.00  0.00    -0.202 N 
HETATM   15  C   UNK N   1      23.292   9.390   6.230  0.00  0.00     0.710 A 
HETATM   16  N   UNK N   1      22.210   8.822   5.667  0.00  0.00    -0.116 N 
HETATM   17  N   UNK N   1      24.117   8.441   6.722  0.00  0.00    -0.113 N 
HETATM   18  N   UNK N   1      22.363   7.529   5.874  0.00  0.00    -0.208 N 
ATOM     19  HN  UNK N   1      21.441   9.288   5.185  1.00  0.00     0.207 HD
HETATM   20  N   UNK N   1      23.500   7.290   6.505  0.00  0.00     0.011 NA
HETATM   21  C   UNK N   1      21.435   6.510   5.426  0.00  0.00     0.198 C 
ATOM     22  HN  UNK N   1      25.024   8.581   7.167  1.00  0.00     0.203 HD
BRANCH  14  23
HETATM   23  C   UNK N   1      25.046  11.074   5.743  0.00  0.00     0.180 C 
BRANCH  23  24
HETATM   24  C   UNK N   1      25.216  12.481   5.165  0.00  0.00    -0.038 A 
HETATM   25  C   UNK N   1      25.883  13.499   5.870  0.00  0.00     0.025 A 
HETATM   26  C   UNK N   1      26.065  14.770   5.275  0.00  0.00     0.049 A 
HETATM   27  C   UNK N   1      25.582  15.008   3.977  0.00  0.00     0.032 A 
HETATM   28  C   UNK N   1      24.926  13.996   3.276  0.00  0.00     0.049 A 
HETATM   29  C   UNK N   1      24.760  12.761   3.876  0.00  0.00     0.025 A 
BRANCH  26  30
HETATM   30  C   UNK N   1      26.781  15.867   6.010  0.00  0.00     0.417 C 
HETATM   31  F   UNK N   1      28.138  15.607   6.027  0.00  0.00    -0.166 F 
HETATM   32  F   UNK N   1      26.575  17.093   5.396  0.00  0.00    -0.166 F 
HETATM   33  F   UNK N   1      26.313  15.941   7.309  0.00  0.00    -0.166 F 
ENDBRANCH  26  30
BRANCH  28  34
HETATM   34  C   UNK N   1      24.399  14.192   1.885  0.00  0.00     0.417 C 
HETATM   35  F   UNK N   1      25.162  15.103   1.180  0.00  0.00    -0.166 F 
HETATM   36  F   UNK N   1      24.412  12.981   1.215  0.00  0.00    -0.166 F 
HETATM   37  F   UNK N   1      23.095  14.652   1.951  0.00  0.00    -0.166 F 
ENDBRANCH  28  34
ENDBRANCH  23  24
ENDBRANCH  14  23
ENDBRANCH  13  14
BRANCH   9  38
HETATM   38  C   UNK N   1      22.375  15.206   5.859  0.00  0.00     0.127 C 
BRANCH  38  39
HETATM   39  C   UNK N   1      22.225  16.730   5.982  0.00  0.00     0.004 C 
HETATM   40  C   UNK N   1      20.829  17.311   5.746  0.00  0.00     0.007 C 
HETATM   41  C   UNK N   1      20.482  17.353   4.252  0.00  0.00     0.015 C 
HETATM   42  C   UNK N   1      21.562  18.073   3.428  0.00  0.00     0.084 C 
HETATM   43  C   UNK N   1      22.939  17.453   3.688  0.00  0.00     0.015 C 
HETATM   44  C   UNK N   1      23.282  17.476   5.175  0.00  0.00     0.007 C 
BRANCH  42  45
HETATM   45  C   UNK N   1      21.588  19.566   3.630  0.00  0.00     0.143 C 
HETATM   46  O   UNK N   1      20.655  20.144   4.166  0.00  0.00    -0.650 OA
BRANCH  45  47
HETATM   47  O   UNK N   1      22.648  20.275   3.199  0.00  0.00    -0.776 OA
HETATM   48  H   UNK N   1      22.681  21.203   3.328  0.00  0.00     0.167 HD
ENDBRANCH  45  47
ENDBRANCH  42  45
ENDBRANCH  38  39
ENDBRANCH   9  38
TORSDOF 9
ENDMDL
MODEL 9
REMARK VINA RESULT:      -7.7      4.151      8.369
REMARK  9 active torsions:
REMARK  status: ('A' for Active; 'I' for Inactive)
REMARK    1  A    between atoms: N_9  and  C_38 
REMARK    2  A    between atoms: C_13  and  N_14 
REMARK       I    between atoms: N_14  and  C_15 
REMARK    3  A    between atoms: N_14  and  C_23 
REMARK    4  A    between atoms: C_23  and  C_24 
REMARK    5  A    between atoms: C_26  and  C_34 
REMARK    6  A    between atoms: C_28  and  C_30 
REMARK    7  A    between atoms: C_39  and  C_38 
REMARK    8  A    between atoms: C_42  and  C_45 
REMARK    9  A    between atoms: C_45  and  O_47 
ROOT
HETATM    1  C   UNK N   1      21.019  18.761   3.851  0.00  0.00     0.048 C 
HETATM    2  C   UNK N   1      22.466  18.429   3.913  0.00  0.00    -0.061 A 
HETATM    3  C   UNK N   1      22.867  17.107   4.051  0.00  0.00     0.018 A 
HETATM    4  C   UNK N   1      24.213  16.734   4.097  0.00  0.00    -0.007 A 
HETATM    5  C   UNK N   1      25.186  17.768   4.048  0.00  0.00     0.044 A 
HETATM    6  C   UNK N   1      24.774  19.115   3.898  0.00  0.00    -0.034 A 
HETATM    7  C   UNK N   1      23.420  19.433   3.823  0.00  0.00     0.015 A 
HETATM    8  C   UNK N   1      25.759  20.225   3.807  0.00  0.00     0.050 C 
HETATM    9  N   UNK N   1      26.562  17.460   4.198  0.00  0.00    -0.380 N 
HETATM   10  C   UNK N   1      27.212  16.723   3.137  0.00  0.00     0.123 C 
HETATM   11  C   UNK N   1      26.986  15.222   3.271  0.00  0.00     0.022 C 
HETATM   12  C   UNK N   1      25.533  14.838   3.032  0.00  0.00     0.032 C 
HETATM   13  C   UNK N   1      24.653  15.256   4.207  0.00  0.00     0.138 C 
ENDROOT
BRANCH  13  14
HETATM   14  N   UNK N   1      23.671  14.201   4.509  0.00  0.00    -0.202 N 
HETATM   15  C   UNK N   1      22.544  13.902   3.685  0.00  0.00     0.710 A 
HETATM   16  N   UNK N   1      22.592  13.797   2.344  0.00  0.00    -0.116 N 
HETATM   17  N   UNK N   1      21.369  13.425   4.151  0.00  0.00    -0.113 N 
HETATM   18  N   UNK N   1      21.416  13.307   2.002  0.00  0.00    -0.208 N 
ATOM     19  HN  UNK N   1      23.366  14.041   1.727  1.00  0.00     0.207 HD
HETATM   20  N   UNK N   1      20.676  13.083   3.075  0.00  0.00     0.011 NA
HETATM   21  C   UNK N   1      21.013  13.012   0.642  0.00  0.00     0.198 C 
ATOM     22  HN  UNK N   1      21.077  13.347   5.124  1.00  0.00     0.203 HD
BRANCH  14  23
HETATM   23  C   UNK N   1      23.890  13.371   5.698  0.00  0.00     0.180 C 
BRANCH  23  24
HETATM   24  C   UNK N   1      22.961  13.743   6.856  0.00  0.00    -0.038 A 
HETATM   25  C   UNK N   1      22.860  12.949   8.013  0.00  0.00     0.025 A 
HETATM   26  C   UNK N   1      22.028  13.359   9.083  0.00  0.00     0.049 A 
HETATM   27  C   UNK N   1      21.310  14.562   8.986  0.00  0.00     0.032 A 
HETATM   28  C   UNK N   1      21.414  15.352   7.841  0.00  0.00     0.049 A 
HETATM   29  C   UNK N   1      22.234  14.933   6.808  0.00  0.00     0.025 A 
BRANCH  26  30
HETATM   30  C   UNK N   1      21.915  12.527  10.329  0.00  0.00     0.417 C 
HETATM   31  F   UNK N   1      22.229  11.212  10.041  0.00  0.00    -0.166 F 
HETATM   32  F   UNK N   1      22.781  12.983  11.311  0.00  0.00    -0.166 F 
HETATM   33  F   UNK N   1      20.623  12.592  10.817  0.00  0.00    -0.166 F 
ENDBRANCH  26  30
BRANCH  28  34
HETATM   34  C   UNK N   1      20.677  16.649   7.688  0.00  0.00     0.417 C 
HETATM   35  F   UNK N   1      20.334  17.182   8.917  0.00  0.00    -0.166 F 
HETATM   36  F   UNK N   1      21.478  17.554   7.014  0.00  0.00    -0.166 F 
HETATM   37  F   UNK N   1      19.524  16.437   6.952  0.00  0.00    -0.166 F 
ENDBRANCH  28  34
ENDBRANCH  23  24
ENDBRANCH  14  23
ENDBRANCH  13  14
BRANCH   9  38
HETATM   38  C   UNK N   1      27.008  17.231   5.559  0.00  0.00     0.127 C 
BRANCH  38  39
HETATM   39  C   UNK N   1      28.144  18.143   6.043  0.00  0.00     0.004 C 
HETATM   40  C   UNK N   1      29.573  17.627   5.860  0.00  0.00     0.007 C 
HETATM   41  C   UNK N   1      29.925  16.562   6.905  0.00  0.00     0.015 C 
HETATM   42  C   UNK N   1      29.657  17.047   8.339  0.00  0.00     0.084 C 
HETATM   43  C   UNK N   1      28.215  17.544   8.478  0.00  0.00     0.015 C 
HETATM   44  C   UNK N   1      27.911  18.643   7.464  0.00  0.00     0.007 C 
BRANCH  42  45
HETATM   45  C   UNK N   1      30.641  18.080   8.825  0.00  0.00     0.143 C 
HETATM   46  O   UNK N   1      31.780  18.118   8.388  0.00  0.00    -0.650 OA
BRANCH  45  47
HETATM   47  O   UNK N   1      30.262  18.964   9.768  0.00  0.00    -0.776 OA
HETATM   48  H   UNK N   1      29.382  19.285   9.790  0.00  0.00     0.167 HD
ENDBRANCH  45  47
ENDBRANCH  42  45
ENDBRANCH  38  39
ENDBRANCH   9  38
TORSDOF 9
ENDMDL
