MODEL 1
REMARK VINA RESULT:      -8.6      0.000      0.000
REMARK  11 active torsions:
REMARK  status: ('A' for Active; 'I' for Inactive)
REMARK    1  A    between atoms: C_2  and  C_4 
REMARK    2  A    between atoms: C_2  and  C_6 
REMARK    3  A    between atoms: C_4  and  O_5 
REMARK    4  A    between atoms: C_10  and  N_21 
REMARK    5  A    between atoms: N_14  and  C_15 
REMARK    6  A    between atoms: C_15  and  C_16 
REMARK    7  A    between atoms: C_16  and  C_17 
REMARK    8  A    between atoms: C_16  and  O_19 
REMARK    9  A    between atoms: C_17  and  O_18 
REMARK       I    between atoms: N_21  and  C_22 
REMARK   10  A    between atoms: C_22  and  C_24 
REMARK   11  A    between atoms: C_24  and  C_27 
ROOT
HETATM    1  C   UNK N   1      32.848  14.424   7.630  0.00  0.00     0.023 A 
HETATM    2  C   UNK N   1      31.894  14.674   6.627  0.00  0.00     0.039 A 
HETATM    3  C   UNK N   1      31.261  15.835   7.021  0.00  0.00    -0.005 A 
HETATM    4  C   UNK N   1      30.214  16.544   6.440  0.00  0.00     0.046 A 
HETATM    5  C   UNK N   1      29.735  17.694   7.108  0.00  0.00     0.074 A 
HETATM    6  C   UNK N   1      30.303  18.076   8.356  0.00  0.00     0.145 A 
HETATM    7  C   UNK N   1      31.349  17.340   8.899  0.00  0.00     0.075 A 
HETATM    8  C   UNK N   1      31.807  16.232   8.205  0.00  0.00     0.048 A 
HETATM    9  N   UNK N   1      32.780  15.395   8.581  0.00  0.00    -0.346 N 
HETATM   10  F   UNK N   1      29.797  19.091   9.093  0.00  0.00    -0.204 F 
ENDROOT
BRANCH   5  11
HETATM   11  N   UNK N   1      28.554  18.295   6.630  0.00  0.00    -0.324 N 
HETATM   12  C   UNK N   1      28.297  18.791   5.389  0.00  0.00     0.235 C 
HETATM   13  O   UNK N   1      28.854  18.351   4.394  0.00  0.00    -0.272 OA
HETATM   14  H   UNK N   1      27.818  18.366   7.279  0.00  0.00     0.169 HD
BRANCH  12  15
HETATM   15  C   UNK N   1      27.345  19.951   5.308  0.00  0.00     0.068 A 
HETATM   16  C   UNK N   1      27.602  21.300   5.957  0.00  0.00     0.026 A 
HETATM   17  C   UNK N   1      26.817  20.251   6.707  0.00  0.00     0.026 A 
BRANCH  15  18
HETATM   18  C   UNK N   1      26.206  19.687   4.371  0.00  0.00    -0.037 A 
HETATM   19  C   UNK N   1      26.003  20.567   3.268  0.00  0.00     0.011 A 
HETATM   20  C   UNK N   1      24.742  20.668   2.659  0.00  0.00     0.040 A 
HETATM   21  C   UNK N   1      23.713  19.911   3.205  0.00  0.00     0.111 A 
HETATM   22  C   UNK N   1      23.906  19.069   4.230  0.00  0.00     0.112 A 
HETATM   23  O   UNK N   1      22.423  19.910   2.875  0.00  0.00    -0.256 OA
HETATM   24  C   UNK N   1      25.134  18.924   4.858  0.00  0.00     0.048 A 
HETATM   25  O   UNK N   1      22.747  18.507   4.562  0.00  0.00    -0.256 OA
HETATM   26  C   UNK N   1      21.753  19.034   3.736  0.00  0.00     0.498 A 
HETATM   27  F   UNK N   1      21.139  18.032   3.013  0.00  0.00    -0.147 F 
HETATM   28  F   UNK N   1      20.825  19.720   4.499  0.00  0.00    -0.147 F 
ENDBRANCH  15  18
ENDBRANCH  12  15
ENDBRANCH   5  11
BRANCH   1  29
HETATM   29  C   UNK N   1      33.767  13.211   7.624  0.00  0.00     0.016 C 
HETATM   30  C   UNK N   1      33.301  12.260   6.538  0.00  0.00     0.023 C 
HETATM   31  C   UNK N   1      35.187  13.644   7.288  0.00  0.00     0.023 C 
BRANCH  29  32
HETATM   32  C   UNK N   1      33.804  12.429   8.936  0.00  0.00     0.179 C 
BRANCH  32  33
HETATM   33  O   UNK N   1      32.534  11.949   9.272  0.00  0.00    -0.400 OA
HETATM   34  H   UNK N   1      31.797  11.469   8.864  0.00  0.00     0.209 HD
ENDBRANCH  32  33
ENDBRANCH  29  32
ENDBRANCH   1  29
BRANCH   9  35
HETATM   35  C   UNK N   1      33.517  15.535   9.838  0.00  0.00     0.163 C 
BRANCH  35  36
HETATM   36  C   UNK N   1      34.841  16.291   9.678  0.00  0.00     0.160 C 
BRANCH  36  37
HETATM   37  C   UNK N   1      35.561  16.272  11.007  0.00  0.00     0.197 C 
BRANCH  37  38
HETATM   38  O   UNK N   1      36.925  16.092  10.792  0.00  0.00    -0.398 OA
HETATM   39  H   UNK N   1      37.585  16.211  11.493  0.00  0.00     0.209 HD
ENDBRANCH  37  38
ENDBRANCH  36  37
BRANCH  36  40
HETATM   40  O   UNK N   1      34.676  17.616   9.269  0.00  0.00    -0.392 OA
HETATM   41  H   UNK N   1      34.027  18.302   9.494  0.00  0.00     0.210 HD
ENDBRANCH  36  40
ENDBRANCH  35  36
ENDBRANCH   9  35
TORSDOF 11
ENDMDL
MODEL 2
REMARK VINA RESULT:      -8.3      4.787     11.179
REMARK  11 active torsions:
REMARK  status: ('A' for Active; 'I' for Inactive)
REMARK    1  A    between atoms: C_2  and  C_4 
REMARK    2  A    between atoms: C_2  and  C_6 
REMARK    3  A    between atoms: C_4  and  O_5 
REMARK    4  A    between atoms: C_10  and  N_21 
REMARK    5  A    between atoms: N_14  and  C_15 
REMARK    6  A    between atoms: C_15  and  C_16 
REMARK    7  A    between atoms: C_16  and  C_17 
REMARK    8  A    between atoms: C_16  and  O_19 
REMARK    9  A    between atoms: C_17  and  O_18 
REMARK       I    between atoms: N_21  and  C_22 
REMARK   10  A    between atoms: C_22  and  C_24 
REMARK   11  A    between atoms: C_24  and  C_27 
ROOT
HETATM    1  C   UNK N   1      29.874  17.403   7.511  0.00  0.00     0.023 A 
HETATM    2  C   UNK N   1      30.705  17.084   8.601  0.00  0.00     0.039 A 
HETATM    3  C   UNK N   1      31.933  16.803   8.039  0.00  0.00    -0.005 A 
HETATM    4  C   UNK N   1      33.131  16.400   8.623  0.00  0.00     0.046 A 
HETATM    5  C   UNK N   1      34.231  16.138   7.775  0.00  0.00     0.074 A 
HETATM    6  C   UNK N   1      34.083  16.258   6.364  0.00  0.00     0.145 A 
HETATM    7  C   UNK N   1      32.869  16.666   5.825  0.00  0.00     0.075 A 
HETATM    8  C   UNK N   1      31.820  16.936   6.687  0.00  0.00     0.048 A 
HETATM    9  N   UNK N   1      30.582  17.313   6.353  0.00  0.00    -0.346 N 
HETATM   10  F   UNK N   1      35.065  15.898   5.507  0.00  0.00    -0.204 F 
ENDROOT
BRANCH   5  11
HETATM   11  N   UNK N   1      35.376  15.541   8.339  0.00  0.00    -0.324 N 
HETATM   12  C   UNK N   1      35.570  14.239   8.683  0.00  0.00     0.235 C 
HETATM   13  O   UNK N   1      34.988  13.329   8.111  0.00  0.00    -0.272 OA
HETATM   14  H   UNK N   1      36.135  16.144   8.507  0.00  0.00     0.169 HD
BRANCH  12  15
HETATM   15  C   UNK N   1      36.486  13.976   9.846  0.00  0.00     0.068 A 
HETATM   16  C   UNK N   1      37.994  14.138   9.785  0.00  0.00     0.026 A 
HETATM   17  C   UNK N   1      37.379  12.788   9.508  0.00  0.00     0.026 A 
BRANCH  15  18
HETATM   18  C   UNK N   1      35.732  13.713  11.114  0.00  0.00    -0.037 A 
HETATM   19  C   UNK N   1      36.124  14.395  12.303  0.00  0.00     0.011 A 
HETATM   20  C   UNK N   1      35.804  13.870  13.565  0.00  0.00     0.040 A 
HETATM   21  C   UNK N   1      35.135  12.653  13.593  0.00  0.00     0.111 A 
HETATM   22  C   UNK N   1      34.749  12.019  12.477  0.00  0.00     0.112 A 
HETATM   23  O   UNK N   1      34.814  11.911  14.651  0.00  0.00    -0.256 OA
HETATM   24  C   UNK N   1      35.030  12.502  11.207  0.00  0.00     0.048 A 
HETATM   25  O   UNK N   1      34.165  10.870  12.803  0.00  0.00    -0.256 OA
HETATM   26  C   UNK N   1      34.203  10.738  14.193  0.00  0.00     0.498 A 
HETATM   27  F   UNK N   1      32.927  10.633  14.706  0.00  0.00    -0.147 F 
HETATM   28  F   UNK N   1      34.958   9.632  14.537  0.00  0.00    -0.147 F 
ENDBRANCH  15  18
ENDBRANCH  12  15
ENDBRANCH   5  11
BRANCH   1  29
HETATM   29  C   UNK N   1      28.400  17.753   7.660  0.00  0.00     0.016 C 
HETATM   30  C   UNK N   1      28.119  18.035   9.124  0.00  0.00     0.023 C 
HETATM   31  C   UNK N   1      28.090  19.018   6.872  0.00  0.00     0.023 C 
BRANCH  29  32
HETATM   32  C   UNK N   1      27.434  16.659   7.208  0.00  0.00     0.179 C 
BRANCH  32  33
HETATM   33  O   UNK N   1      26.592  17.120   6.190  0.00  0.00    -0.400 OA
HETATM   34  H   UNK N   1      26.649  17.600   5.350  0.00  0.00     0.209 HD
ENDBRANCH  32  33
ENDBRANCH  29  32
ENDBRANCH   1  29
BRANCH   9  35
HETATM   35  C   UNK N   1      30.144  17.487   4.966  0.00  0.00     0.163 C 
BRANCH  35  36
HETATM   36  C   UNK N   1      29.622  16.193   4.333  0.00  0.00     0.160 C 
BRANCH  36  37
HETATM   37  C   UNK N   1      30.469  15.882   3.121  0.00  0.00     0.197 C 
BRANCH  37  38
HETATM   38  O   UNK N   1      31.139  17.035   2.717  0.00  0.00    -0.398 OA
HETATM   39  H   UNK N   1      31.980  17.008   2.233  0.00  0.00     0.209 HD
ENDBRANCH  37  38
ENDBRANCH  36  37
BRANCH  36  40
HETATM   40  O   UNK N   1      28.282  16.269   3.944  0.00  0.00    -0.392 OA
HETATM   41  H   UNK N   1      27.841  16.241   3.080  0.00  0.00     0.210 HD
ENDBRANCH  36  40
ENDBRANCH  35  36
ENDBRANCH   9  35
TORSDOF 11
ENDMDL
MODEL 3
REMARK VINA RESULT:      -8.3      4.970     11.404
REMARK  11 active torsions:
REMARK  status: ('A' for Active; 'I' for Inactive)
REMARK    1  A    between atoms: C_2  and  C_4 
REMARK    2  A    between atoms: C_2  and  C_6 
REMARK    3  A    between atoms: C_4  and  O_5 
REMARK    4  A    between atoms: C_10  and  N_21 
REMARK    5  A    between atoms: N_14  and  C_15 
REMARK    6  A    between atoms: C_15  and  C_16 
REMARK    7  A    between atoms: C_16  and  C_17 
REMARK    8  A    between atoms: C_16  and  O_19 
REMARK    9  A    between atoms: C_17  and  O_18 
REMARK       I    between atoms: N_21  and  C_22 
REMARK   10  A    between atoms: C_22  and  C_24 
REMARK   11  A    between atoms: C_24  and  C_27 
ROOT
HETATM    1  C   UNK N   1      30.312  17.215   6.741  0.00  0.00     0.023 A 
HETATM    2  C   UNK N   1      30.596  16.765   8.044  0.00  0.00     0.039 A 
HETATM    3  C   UNK N   1      31.922  16.387   8.007  0.00  0.00    -0.005 A 
HETATM    4  C   UNK N   1      32.742  15.841   8.991  0.00  0.00     0.046 A 
HETATM    5  C   UNK N   1      34.070  15.507   8.643  0.00  0.00     0.074 A 
HETATM    6  C   UNK N   1      34.524  15.704   7.308  0.00  0.00     0.145 A 
HETATM    7  C   UNK N   1      33.673  16.256   6.359  0.00  0.00     0.075 A 
HETATM    8  C   UNK N   1      32.385  16.591   6.741  0.00  0.00     0.048 A 
HETATM    9  N   UNK N   1      31.425  17.105   5.965  0.00  0.00    -0.346 N 
HETATM   10  F   UNK N   1      35.742  15.285   6.896  0.00  0.00    -0.204 F 
ENDROOT
BRANCH   5  11
HETATM   11  N   UNK N   1      34.834  14.773   9.571  0.00  0.00    -0.324 N 
HETATM   12  C   UNK N   1      35.972  15.148  10.217  0.00  0.00     0.235 C 
HETATM   13  O   UNK N   1      36.215  16.321  10.463  0.00  0.00    -0.272 OA
HETATM   14  H   UNK N   1      34.503  13.871   9.781  0.00  0.00     0.169 HD
BRANCH  12  15
HETATM   15  C   UNK N   1      36.949  14.057  10.554  0.00  0.00     0.068 A 
HETATM   16  C   UNK N   1      38.351  13.972   9.976  0.00  0.00     0.026 A 
HETATM   17  C   UNK N   1      37.220  13.235   9.299  0.00  0.00     0.026 A 
BRANCH  15  18
HETATM   18  C   UNK N   1      36.454  13.171  11.655  0.00  0.00    -0.037 A 
HETATM   19  C   UNK N   1      35.421  12.229  11.371  0.00  0.00     0.011 A 
HETATM   20  C   UNK N   1      34.607  11.730  12.400  0.00  0.00     0.040 A 
HETATM   21  C   UNK N   1      34.830  12.225  13.679  0.00  0.00     0.111 A 
HETATM   22  C   UNK N   1      35.812  13.096  13.952  0.00  0.00     0.112 A 
HETATM   23  O   UNK N   1      34.135  11.986  14.789  0.00  0.00    -0.256 OA
HETATM   24  C   UNK N   1      36.650  13.609  12.974  0.00  0.00     0.048 A 
HETATM   25  O   UNK N   1      35.769  13.417  15.242  0.00  0.00    -0.256 OA
HETATM   26  C   UNK N   1      34.689  12.750  15.824  0.00  0.00     0.498 A 
HETATM   27  F   UNK N   1      35.119  11.927  16.845  0.00  0.00    -0.147 F 
HETATM   28  F   UNK N   1      33.769  13.670  16.294  0.00  0.00    -0.147 F 
ENDBRANCH  15  18
ENDBRANCH  12  15
ENDBRANCH   5  11
BRANCH   1  29
HETATM   29  C   UNK N   1      28.938  17.705   6.308  0.00  0.00     0.016 C 
HETATM   30  C   UNK N   1      28.168  16.530   5.734  0.00  0.00     0.023 C 
HETATM   31  C   UNK N   1      28.171  18.220   7.517  0.00  0.00     0.023 C 
BRANCH  29  32
HETATM   32  C   UNK N   1      28.955  18.805   5.248  0.00  0.00     0.179 C 
BRANCH  32  33
HETATM   33  O   UNK N   1      28.279  18.401   4.092  0.00  0.00    -0.400 OA
HETATM   34  H   UNK N   1      27.504  17.877   3.838  0.00  0.00     0.209 HD
ENDBRANCH  32  33
ENDBRANCH  29  32
ENDBRANCH   1  29
BRANCH   9  35
HETATM   35  C   UNK N   1      31.610  17.384   4.540  0.00  0.00     0.163 C 
BRANCH  35  36
HETATM   36  C   UNK N   1      31.070  16.272   3.634  0.00  0.00     0.160 C 
BRANCH  36  37
HETATM   37  C   UNK N   1      32.246  15.549   3.019  0.00  0.00     0.197 C 
BRANCH  37  38
HETATM   38  O   UNK N   1      33.309  16.436   2.871  0.00  0.00    -0.398 OA
HETATM   39  H   UNK N   1      34.228  16.140   2.776  0.00  0.00     0.209 HD
ENDBRANCH  37  38
ENDBRANCH  36  37
BRANCH  36  40
HETATM   40  O   UNK N   1      30.241  16.743   2.613  0.00  0.00    -0.392 OA
HETATM   41  H   UNK N   1      30.187  17.591   2.144  0.00  0.00     0.210 HD
ENDBRANCH  36  40
ENDBRANCH  35  36
ENDBRANCH   9  35
TORSDOF 11
ENDMDL
MODEL 4
REMARK VINA RESULT:      -8.3      4.272      6.620
REMARK  11 active torsions:
REMARK  status: ('A' for Active; 'I' for Inactive)
REMARK    1  A    between atoms: C_2  and  C_4 
REMARK    2  A    between atoms: C_2  and  C_6 
REMARK    3  A    between atoms: C_4  and  O_5 
REMARK    4  A    between atoms: C_10  and  N_21 
REMARK    5  A    between atoms: N_14  and  C_15 
REMARK    6  A    between atoms: C_15  and  C_16 
REMARK    7  A    between atoms: C_16  and  C_17 
REMARK    8  A    between atoms: C_16  and  O_19 
REMARK    9  A    between atoms: C_17  and  O_18 
REMARK       I    between atoms: N_21  and  C_22 
REMARK   10  A    between atoms: C_22  and  C_24 
REMARK   11  A    between atoms: C_24  and  C_27 
ROOT
HETATM    1  C   UNK N   1      35.096  11.339  12.141  0.00  0.00     0.023 A 
HETATM    2  C   UNK N   1      34.862  11.096  10.775  0.00  0.00     0.039 A 
HETATM    3  C   UNK N   1      34.636  12.342  10.227  0.00  0.00    -0.005 A 
HETATM    4  C   UNK N   1      34.324  12.722   8.925  0.00  0.00     0.046 A 
HETATM    5  C   UNK N   1      34.098  14.093   8.665  0.00  0.00     0.074 A 
HETATM    6  C   UNK N   1      34.162  15.036   9.730  0.00  0.00     0.145 A 
HETATM    7  C   UNK N   1      34.480  14.613  11.015  0.00  0.00     0.075 A 
HETATM    8  C   UNK N   1      34.716  13.265  11.227  0.00  0.00     0.048 A 
HETATM    9  N   UNK N   1      35.009  12.674  12.391  0.00  0.00    -0.346 N 
HETATM   10  F   UNK N   1      33.832  16.336   9.558  0.00  0.00    -0.204 F 
ENDROOT
BRANCH   5  11
HETATM   11  N   UNK N   1      33.589  14.454   7.402  0.00  0.00    -0.324 N 
HETATM   12  C   UNK N   1      34.047  15.405   6.544  0.00  0.00     0.235 C 
HETATM   13  O   UNK N   1      35.226  15.730   6.515  0.00  0.00    -0.272 OA
HETATM   14  H   UNK N   1      32.797  13.954   7.101  0.00  0.00     0.169 HD
BRANCH  12  15
HETATM   15  C   UNK N   1      33.024  16.084   5.677  0.00  0.00     0.068 A 
HETATM   16  C   UNK N   1      33.295  16.547   4.257  0.00  0.00     0.026 A 
HETATM   17  C   UNK N   1      33.485  17.512   5.402  0.00  0.00     0.026 A 
BRANCH  15  18
HETATM   18  C   UNK N   1      31.664  16.092   6.304  0.00  0.00    -0.037 A 
HETATM   19  C   UNK N   1      30.568  15.537   5.580  0.00  0.00     0.011 A 
HETATM   20  C   UNK N   1      29.250  15.922   5.874  0.00  0.00     0.040 A 
HETATM   21  C   UNK N   1      29.078  16.886   6.859  0.00  0.00     0.111 A 
HETATM   22  C   UNK N   1      30.105  17.395   7.554  0.00  0.00     0.112 A 
HETATM   23  O   UNK N   1      27.951  17.482   7.244  0.00  0.00    -0.256 OA
HETATM   24  C   UNK N   1      31.423  17.038   7.311  0.00  0.00     0.048 A 
HETATM   25  O   UNK N   1      29.650  18.314   8.402  0.00  0.00    -0.256 OA
HETATM   26  C   UNK N   1      28.270  18.428   8.224  0.00  0.00     0.498 A 
HETATM   27  F   UNK N   1      27.603  18.141   9.398  0.00  0.00    -0.147 F 
HETATM   28  F   UNK N   1      27.958  19.703   7.787  0.00  0.00    -0.147 F 
ENDBRANCH  15  18
ENDBRANCH  12  15
ENDBRANCH   5  11
BRANCH   1  29
HETATM   29  C   UNK N   1      35.364  10.234  13.151  0.00  0.00     0.016 C 
HETATM   30  C   UNK N   1      34.317  10.321  14.247  0.00  0.00     0.023 C 
HETATM   31  C   UNK N   1      35.223   8.876  12.478  0.00  0.00     0.023 C 
BRANCH  29  32
HETATM   32  C   UNK N   1      36.736  10.296  13.820  0.00  0.00     0.179 C 
BRANCH  32  33
HETATM   33  O   UNK N   1      36.617  10.320  15.213  0.00  0.00    -0.400 OA
HETATM   34  H   UNK N   1      36.558  10.964  15.936  0.00  0.00     0.209 HD
ENDBRANCH  32  33
ENDBRANCH  29  32
ENDBRANCH   1  29
BRANCH   9  35
HETATM   35  C   UNK N   1      35.111  13.403  13.656  0.00  0.00     0.163 C 
BRANCH  35  36
HETATM   36  C   UNK N   1      36.537  13.870  13.969  0.00  0.00     0.160 C 
BRANCH  36  37
HETATM   37  C   UNK N   1      36.717  13.874  15.469  0.00  0.00     0.197 C 
BRANCH  37  38
HETATM   38  O   UNK N   1      35.809  12.989  16.046  0.00  0.00    -0.398 OA
HETATM   39  H   UNK N   1      35.149  13.269  16.701  0.00  0.00     0.209 HD
ENDBRANCH  37  38
ENDBRANCH  36  37
BRANCH  36  40
HETATM   40  O   UNK N   1      36.823  15.145  13.473  0.00  0.00    -0.392 OA
HETATM   41  H   UNK N   1      36.611  16.039  13.786  0.00  0.00     0.210 HD
ENDBRANCH  36  40
ENDBRANCH  35  36
ENDBRANCH   9  35
TORSDOF 11
ENDMDL
MODEL 5
REMARK VINA RESULT:      -8.2      3.509     10.818
REMARK  11 active torsions:
REMARK  status: ('A' for Active; 'I' for Inactive)
REMARK    1  A    between atoms: C_2  and  C_4 
REMARK    2  A    between atoms: C_2  and  C_6 
REMARK    3  A    between atoms: C_4  and  O_5 
REMARK    4  A    between atoms: C_10  and  N_21 
REMARK    5  A    between atoms: N_14  and  C_15 
REMARK    6  A    between atoms: C_15  and  C_16 
REMARK    7  A    between atoms: C_16  and  C_17 
REMARK    8  A    between atoms: C_16  and  O_19 
REMARK    9  A    between atoms: C_17  and  O_18 
REMARK       I    between atoms: N_21  and  C_22 
REMARK   10  A    between atoms: C_22  and  C_24 
REMARK   11  A    between atoms: C_24  and  C_27 
ROOT
HETATM    1  C   UNK N   1      21.984  16.472   5.920  0.00  0.00     0.023 A 
HETATM    2  C   UNK N   1      23.175  15.757   6.146  0.00  0.00     0.039 A 
HETATM    3  C   UNK N   1      24.172  16.554   5.622  0.00  0.00    -0.005 A 
HETATM    4  C   UNK N   1      25.546  16.354   5.532  0.00  0.00     0.046 A 
HETATM    5  C   UNK N   1      26.324  17.343   4.890  0.00  0.00     0.074 A 
HETATM    6  C   UNK N   1      25.692  18.489   4.330  0.00  0.00     0.145 A 
HETATM    7  C   UNK N   1      24.317  18.650   4.445  0.00  0.00     0.075 A 
HETATM    8  C   UNK N   1      23.590  17.671   5.100  0.00  0.00     0.048 A 
HETATM    9  N   UNK N   1      22.265  17.643   5.286  0.00  0.00    -0.346 N 
HETATM   10  F   UNK N   1      26.374  19.399   3.598  0.00  0.00    -0.204 F 
ENDROOT
BRANCH   5  11
HETATM   11  N   UNK N   1      27.676  17.053   4.621  0.00  0.00    -0.324 N 
HETATM   12  C   UNK N   1      28.191  16.193   3.700  0.00  0.00     0.235 C 
HETATM   13  O   UNK N   1      27.598  15.931   2.663  0.00  0.00    -0.272 OA
HETATM   14  H   UNK N   1      28.335  17.533   5.171  0.00  0.00     0.169 HD
BRANCH  12  15
HETATM   15  C   UNK N   1      29.494  15.530   4.048  0.00  0.00     0.068 A 
HETATM   16  C   UNK N   1      29.778  14.056   3.818  0.00  0.00     0.026 A 
HETATM   17  C   UNK N   1      29.245  14.511   5.155  0.00  0.00     0.026 A 
BRANCH  15  18
HETATM   18  C   UNK N   1      30.537  16.515   4.477  0.00  0.00    -0.037 A 
HETATM   19  C   UNK N   1      31.525  16.928   3.535  0.00  0.00     0.011 A 
HETATM   20  C   UNK N   1      32.755  17.444   3.972  0.00  0.00     0.040 A 
HETATM   21  C   UNK N   1      32.971  17.490   5.344  0.00  0.00     0.111 A 
HETATM   22  C   UNK N   1      32.037  17.121   6.231  0.00  0.00     0.112 A 
HETATM   23  O   UNK N   1      34.079  17.839   5.994  0.00  0.00    -0.256 OA
HETATM   24  C   UNK N   1      30.802  16.617   5.851  0.00  0.00     0.048 A 
HETATM   25  O   UNK N   1      32.527  17.239   7.462  0.00  0.00    -0.256 OA
HETATM   26  C   UNK N   1      33.851  17.674   7.365  0.00  0.00     0.498 A 
HETATM   27  F   UNK N   1      34.018  18.875   8.024  0.00  0.00    -0.147 F 
HETATM   28  F   UNK N   1      34.699  16.712   7.885  0.00  0.00    -0.147 F 
ENDBRANCH  15  18
ENDBRANCH  12  15
ENDBRANCH   5  11
BRANCH   1  29
HETATM   29  C   UNK N   1      20.610  15.950   6.312  0.00  0.00     0.016 C 
HETATM   30  C   UNK N   1      20.771  14.552   6.880  0.00  0.00     0.023 C 
HETATM   31  C   UNK N   1      20.016  16.831   7.401  0.00  0.00     0.023 C 
BRANCH  29  32
HETATM   32  C   UNK N   1      19.605  15.867   5.164  0.00  0.00     0.179 C 
BRANCH  32  33
HETATM   33  O   UNK N   1      18.291  15.949   5.637  0.00  0.00    -0.400 OA
HETATM   34  H   UNK N   1      17.542  15.366   5.833  0.00  0.00     0.209 HD
ENDBRANCH  32  33
ENDBRANCH  29  32
ENDBRANCH   1  29
BRANCH   9  35
HETATM   35  C   UNK N   1      21.364  18.683   4.787  0.00  0.00     0.163 C 
BRANCH  35  36
HETATM   36  C   UNK N   1      21.191  18.651   3.264  0.00  0.00     0.160 C 
BRANCH  36  37
HETATM   37  C   UNK N   1      21.440  20.042   2.729  0.00  0.00     0.197 C 
BRANCH  37  38
HETATM   38  O   UNK N   1      20.663  20.956   3.435  0.00  0.00    -0.398 OA
HETATM   39  H   UNK N   1      20.116  21.627   2.997  0.00  0.00     0.209 HD
ENDBRANCH  37  38
ENDBRANCH  36  37
BRANCH  36  40
HETATM   40  O   UNK N   1      19.921  18.229   2.861  0.00  0.00    -0.392 OA
HETATM   41  H   UNK N   1      19.196  17.779   3.323  0.00  0.00     0.210 HD
ENDBRANCH  36  40
ENDBRANCH  35  36
ENDBRANCH   9  35
TORSDOF 11
ENDMDL
MODEL 6
REMARK VINA RESULT:      -8.2      4.514     10.150
REMARK  11 active torsions:
REMARK  status: ('A' for Active; 'I' for Inactive)
REMARK    1  A    between atoms: C_2  and  C_4 
REMARK    2  A    between atoms: C_2  and  C_6 
REMARK    3  A    between atoms: C_4  and  O_5 
REMARK    4  A    between atoms: C_10  and  N_21 
REMARK    5  A    between atoms: N_14  and  C_15 
REMARK    6  A    between atoms: C_15  and  C_16 
REMARK    7  A    between atoms: C_16  and  C_17 
REMARK    8  A    between atoms: C_16  and  O_19 
REMARK    9  A    between atoms: C_17  and  O_18 
REMARK       I    between atoms: N_21  and  C_22 
REMARK   10  A    between atoms: C_22  and  C_24 
REMARK   11  A    between atoms: C_24  and  C_27 
ROOT
HETATM    1  C   UNK N   1      23.158  14.147   7.575  0.00  0.00     0.023 A 
HETATM    2  C   UNK N   1      24.543  13.909   7.648  0.00  0.00     0.039 A 
HETATM    3  C   UNK N   1      25.107  14.834   6.792  0.00  0.00    -0.005 A 
HETATM    4  C   UNK N   1      26.434  15.055   6.436  0.00  0.00     0.046 A 
HETATM    5  C   UNK N   1      26.711  16.062   5.484  0.00  0.00     0.074 A 
HETATM    6  C   UNK N   1      25.641  16.794   4.896  0.00  0.00     0.145 A 
HETATM    7  C   UNK N   1      24.330  16.542   5.283  0.00  0.00     0.075 A 
HETATM    8  C   UNK N   1      24.100  15.563   6.235  0.00  0.00     0.048 A 
HETATM    9  N   UNK N   1      22.913  15.168   6.710  0.00  0.00    -0.346 N 
HETATM   10  F   UNK N   1      25.843  17.676   3.891  0.00  0.00    -0.204 F 
ENDROOT
BRANCH   5  11
HETATM   11  N   UNK N   1      28.021  16.152   4.975  0.00  0.00    -0.324 N 
HETATM   12  C   UNK N   1      28.516  15.647   3.812  0.00  0.00     0.235 C 
HETATM   13  O   UNK N   1      27.805  15.480   2.831  0.00  0.00    -0.272 OA
HETATM   14  H   UNK N   1      28.665  16.643   5.534  0.00  0.00     0.169 HD
BRANCH  12  15
HETATM   15  C   UNK N   1      29.963  15.241   3.811  0.00  0.00     0.068 A 
HETATM   16  C   UNK N   1      30.480  13.963   3.174  0.00  0.00     0.026 A 
HETATM   17  C   UNK N   1      30.116  13.970   4.640  0.00  0.00     0.026 A 
BRANCH  15  18
HETATM   18  C   UNK N   1      30.855  16.318   4.346  0.00  0.00    -0.037 A 
HETATM   19  C   UNK N   1      31.824  16.904   3.480  0.00  0.00     0.011 A 
HETATM   20  C   UNK N   1      32.961  17.539   4.007  0.00  0.00     0.040 A 
HETATM   21  C   UNK N   1      33.109  17.527   5.388  0.00  0.00     0.111 A 
HETATM   22  C   UNK N   1      32.190  16.993   6.205  0.00  0.00     0.112 A 
HETATM   23  O   UNK N   1      34.136  17.967   6.112  0.00  0.00    -0.256 OA
HETATM   24  C   UNK N   1      31.045  16.367   5.736  0.00  0.00     0.048 A 
HETATM   25  O   UNK N   1      32.608  17.095   7.464  0.00  0.00    -0.256 OA
HETATM   26  C   UNK N   1      33.871  17.692   7.458  0.00  0.00     0.498 A 
HETATM   27  F   UNK N   1      33.857  18.862   8.190  0.00  0.00    -0.147 F 
HETATM   28  F   UNK N   1      34.807  16.811   7.967  0.00  0.00    -0.147 F 
ENDBRANCH  15  18
ENDBRANCH  12  15
ENDBRANCH   5  11
BRANCH   1  29
HETATM   29  C   UNK N   1      22.130  13.328   8.341  0.00  0.00     0.016 C 
HETATM   30  C   UNK N   1      21.157  12.726   7.345  0.00  0.00     0.023 C 
HETATM   31  C   UNK N   1      22.821  12.184   9.069  0.00  0.00     0.023 C 
BRANCH  29  32
HETATM   32  C   UNK N   1      21.312  14.120   9.361  0.00  0.00     0.179 C 
BRANCH  32  33
HETATM   33  O   UNK N   1      19.944  13.866   9.216  0.00  0.00    -0.400 OA
HETATM   34  H   UNK N   1      19.251  13.318   9.615  0.00  0.00     0.209 HD
ENDBRANCH  32  33
ENDBRANCH  29  32
ENDBRANCH   1  29
BRANCH   9  35
HETATM   35  C   UNK N   1      21.641  15.734   6.257  0.00  0.00     0.163 C 
BRANCH  35  36
HETATM   36  C   UNK N   1      21.118  16.847   7.172  0.00  0.00     0.160 C 
BRANCH  36  37
HETATM   37  C   UNK N   1      19.617  16.704   7.283  0.00  0.00     0.197 C 
BRANCH  37  38
HETATM   38  O   UNK N   1      19.229  15.475   6.754  0.00  0.00    -0.398 OA
HETATM   39  H   UNK N   1      19.790  14.685   6.803  0.00  0.00     0.209 HD
ENDBRANCH  37  38
ENDBRANCH  36  37
BRANCH  36  40
HETATM   40  O   UNK N   1      21.420  18.130   6.709  0.00  0.00    -0.392 OA
HETATM   41  H   UNK N   1      20.934  18.970   6.725  0.00  0.00     0.210 HD
ENDBRANCH  36  40
ENDBRANCH  35  36
ENDBRANCH   9  35
TORSDOF 11
ENDMDL
MODEL 7
REMARK VINA RESULT:      -8.1      4.508     10.344
REMARK  11 active torsions:
REMARK  status: ('A' for Active; 'I' for Inactive)
REMARK    1  A    between atoms: C_2  and  C_4 
REMARK    2  A    between atoms: C_2  and  C_6 
REMARK    3  A    between atoms: C_4  and  O_5 
REMARK    4  A    between atoms: C_10  and  N_21 
REMARK    5  A    between atoms: N_14  and  C_15 
REMARK    6  A    between atoms: C_15  and  C_16 
REMARK    7  A    between atoms: C_16  and  C_17 
REMARK    8  A    between atoms: C_16  and  O_19 
REMARK    9  A    between atoms: C_17  and  O_18 
REMARK       I    between atoms: N_21  and  C_22 
REMARK   10  A    between atoms: C_22  and  C_24 
REMARK   11  A    between atoms: C_24  and  C_27 
ROOT
HETATM    1  C   UNK N   1      21.489  14.885   2.100  0.00  0.00     0.023 A 
HETATM    2  C   UNK N   1      22.735  14.393   1.672  0.00  0.00     0.039 A 
HETATM    3  C   UNK N   1      23.652  14.940   2.546  0.00  0.00    -0.005 A 
HETATM    4  C   UNK N   1      25.039  14.831   2.598  0.00  0.00     0.046 A 
HETATM    5  C   UNK N   1      25.728  15.555   3.597  0.00  0.00     0.074 A 
HETATM    6  C   UNK N   1      25.004  16.390   4.494  0.00  0.00     0.145 A 
HETATM    7  C   UNK N   1      23.619  16.466   4.408  0.00  0.00     0.075 A 
HETATM    8  C   UNK N   1      22.976  15.726   3.430  0.00  0.00     0.048 A 
HETATM    9  N   UNK N   1      21.662  15.692   3.182  0.00  0.00    -0.346 N 
HETATM   10  F   UNK N   1      25.625  17.197   5.383  0.00  0.00    -0.204 F 
ENDROOT
BRANCH   5  11
HETATM   11  N   UNK N   1      27.134  15.607   3.528  0.00  0.00    -0.324 N 
HETATM   12  C   UNK N   1      28.046  15.018   4.349  0.00  0.00     0.235 C 
HETATM   13  O   UNK N   1      27.796  13.982   4.948  0.00  0.00    -0.272 OA
HETATM   14  H   UNK N   1      27.507  16.139   2.789  0.00  0.00     0.169 HD
BRANCH  12  15
HETATM   15  C   UNK N   1      29.351  15.739   4.537  0.00  0.00     0.068 A 
HETATM   16  C   UNK N   1      30.630  15.373   3.804  0.00  0.00     0.026 A 
HETATM   17  C   UNK N   1      30.356  14.778   5.164  0.00  0.00     0.026 A 
BRANCH  15  18
HETATM   18  C   UNK N   1      29.207  16.964   5.387  0.00  0.00    -0.037 A 
HETATM   19  C   UNK N   1      28.844  16.813   6.758  0.00  0.00     0.011 A 
HETATM   20  C   UNK N   1      28.246  17.872   7.458  0.00  0.00     0.040 A 
HETATM   21  C   UNK N   1      27.992  19.038   6.746  0.00  0.00     0.111 A 
HETATM   22  C   UNK N   1      28.349  19.189   5.463  0.00  0.00     0.112 A 
HETATM   23  O   UNK N   1      27.352  20.131   7.154  0.00  0.00    -0.256 OA
HETATM   24  C   UNK N   1      28.953  18.178   4.731  0.00  0.00     0.048 A 
HETATM   25  O   UNK N   1      27.954  20.384   5.034  0.00  0.00    -0.256 OA
HETATM   26  C   UNK N   1      27.282  21.024   6.078  0.00  0.00     0.498 A 
HETATM   27  F   UNK N   1      27.905  22.211   6.402  0.00  0.00    -0.147 F 
HETATM   28  F   UNK N   1      25.965  21.248   5.718  0.00  0.00    -0.147 F 
ENDBRANCH  15  18
ENDBRANCH  12  15
ENDBRANCH   5  11
BRANCH   1  29
HETATM   29  C   UNK N   1      20.178  14.562   1.398  0.00  0.00     0.016 C 
HETATM   30  C   UNK N   1      20.423  13.429   0.420  0.00  0.00     0.023 C 
HETATM   31  C   UNK N   1      19.152  14.086   2.417  0.00  0.00     0.023 C 
BRANCH  29  32
HETATM   32  C   UNK N   1      19.569  15.724   0.615  0.00  0.00     0.179 C 
BRANCH  32  33
HETATM   33  O   UNK N   1      20.563  16.576   0.122  0.00  0.00    -0.400 OA
HETATM   34  H   UNK N   1      20.696  17.517  -0.071  0.00  0.00     0.209 HD
ENDBRANCH  32  33
ENDBRANCH  29  32
ENDBRANCH   1  29
BRANCH   9  35
HETATM   35  C   UNK N   1      20.684  16.478   3.936  0.00  0.00     0.163 C 
BRANCH  35  36
HETATM   36  C   UNK N   1      20.432  17.865   3.333  0.00  0.00     0.160 C 
BRANCH  36  37
HETATM   37  C   UNK N   1      20.954  18.904   4.298  0.00  0.00     0.197 C 
BRANCH  37  38
HETATM   38  O   UNK N   1      20.790  20.172   3.746  0.00  0.00    -0.398 OA
HETATM   39  H   UNK N   1      20.800  20.331   2.788  0.00  0.00     0.209 HD
ENDBRANCH  37  38
ENDBRANCH  36  37
BRANCH  36  40
HETATM   40  O   UNK N   1      19.082  18.120   3.076  0.00  0.00    -0.392 OA
HETATM   41  H   UNK N   1      18.626  18.646   2.400  0.00  0.00     0.210 HD
ENDBRANCH  36  40
ENDBRANCH  35  36
ENDBRANCH   9  35
TORSDOF 11
ENDMDL
MODEL 8
REMARK VINA RESULT:      -8.0      3.406     10.368
REMARK  11 active torsions:
REMARK  status: ('A' for Active; 'I' for Inactive)
REMARK    1  A    between atoms: C_2  and  C_4 
REMARK    2  A    between atoms: C_2  and  C_6 
REMARK    3  A    between atoms: C_4  and  O_5 
REMARK    4  A    between atoms: C_10  and  N_21 
REMARK    5  A    between atoms: N_14  and  C_15 
REMARK    6  A    between atoms: C_15  and  C_16 
REMARK    7  A    between atoms: C_16  and  C_17 
REMARK    8  A    between atoms: C_16  and  O_19 
REMARK    9  A    between atoms: C_17  and  O_18 
REMARK       I    between atoms: N_21  and  C_22 
REMARK   10  A    between atoms: C_22  and  C_24 
REMARK   11  A    between atoms: C_24  and  C_27 
ROOT
HETATM    1  C   UNK N   1      23.619  16.112   5.835  0.00  0.00     0.023 A 
HETATM    2  C   UNK N   1      24.904  15.542   5.779  0.00  0.00     0.039 A 
HETATM    3  C   UNK N   1      25.699  16.516   5.210  0.00  0.00    -0.005 A 
HETATM    4  C   UNK N   1      27.051  16.510   4.881  0.00  0.00     0.046 A 
HETATM    5  C   UNK N   1      27.591  17.657   4.255  0.00  0.00     0.074 A 
HETATM    6  C   UNK N   1      26.746  18.762   3.951  0.00  0.00     0.145 A 
HETATM    7  C   UNK N   1      25.401  18.725   4.301  0.00  0.00     0.075 A 
HETATM    8  C   UNK N   1      24.913  17.594   4.932  0.00  0.00     0.048 A 
HETATM    9  N   UNK N   1      23.652  17.370   5.318  0.00  0.00    -0.346 N 
HETATM   10  F   UNK N   1      27.185  19.827   3.242  0.00  0.00    -0.204 F 
ENDROOT
BRANCH   5  11
HETATM   11  N   UNK N   1      28.900  17.579   3.742  0.00  0.00    -0.324 N 
HETATM   12  C   UNK N   1      29.705  16.487   3.636  0.00  0.00     0.235 C 
HETATM   13  O   UNK N   1      29.246  15.361   3.507  0.00  0.00    -0.272 OA
HETATM   14  H   UNK N   1      29.285  18.425   3.419  0.00  0.00     0.169 HD
BRANCH  12  15
HETATM   15  C   UNK N   1      31.185  16.723   3.751  0.00  0.00     0.068 A 
HETATM   16  C   UNK N   1      32.062  17.164   2.593  0.00  0.00     0.026 A 
HETATM   17  C   UNK N   1      31.915  15.692   2.896  0.00  0.00     0.026 A 
BRANCH  15  18
HETATM   18  C   UNK N   1      31.663  16.650   5.169  0.00  0.00    -0.037 A 
HETATM   19  C   UNK N   1      30.718  16.816   6.225  0.00  0.00     0.011 A 
HETATM   20  C   UNK N   1      31.138  17.225   7.500  0.00  0.00     0.040 A 
HETATM   21  C   UNK N   1      32.491  17.496   7.664  0.00  0.00     0.111 A 
HETATM   22  C   UNK N   1      33.384  17.323   6.679  0.00  0.00     0.112 A 
HETATM   23  O   UNK N   1      33.111  17.988   8.735  0.00  0.00    -0.256 OA
HETATM   24  C   UNK N   1      33.022  16.908   5.406  0.00  0.00     0.048 A 
HETATM   25  O   UNK N   1      34.588  17.688   7.107  0.00  0.00    -0.256 OA
HETATM   26  C   UNK N   1      34.465  18.150   8.419  0.00  0.00     0.498 A 
HETATM   27  F   UNK N   1      35.247  17.401   9.275  0.00  0.00    -0.147 F 
HETATM   28  F   UNK N   1      34.820  19.486   8.480  0.00  0.00    -0.147 F 
ENDBRANCH  15  18
ENDBRANCH  12  15
ENDBRANCH   5  11
BRANCH   1  29
HETATM   29  C   UNK N   1      22.400  15.373   6.368  0.00  0.00     0.016 C 
HETATM   30  C   UNK N   1      21.730  14.655   5.211  0.00  0.00     0.023 C 
HETATM   31  C   UNK N   1      22.837  14.322   7.379  0.00  0.00     0.023 C 
BRANCH  29  32
HETATM   32  C   UNK N   1      21.349  16.264   7.028  0.00  0.00     0.179 C 
BRANCH  32  33
HETATM   33  O   UNK N   1      20.131  16.198   6.344  0.00  0.00    -0.400 OA
HETATM   34  H   UNK N   1      19.180  16.229   6.530  0.00  0.00     0.209 HD
ENDBRANCH  32  33
ENDBRANCH  29  32
ENDBRANCH   1  29
BRANCH   9  35
HETATM   35  C   UNK N   1      22.566  18.329   5.103  0.00  0.00     0.163 C 
BRANCH  35  36
HETATM   36  C   UNK N   1      21.940  18.227   3.707  0.00  0.00     0.160 C 
BRANCH  36  37
HETATM   37  C   UNK N   1      21.637  19.624   3.220  0.00  0.00     0.197 C 
BRANCH  37  38
HETATM   38  O   UNK N   1      20.697  20.214   4.062  0.00  0.00    -0.398 OA
HETATM   39  H   UNK N   1      20.453  21.151   3.998  0.00  0.00     0.209 HD
ENDBRANCH  37  38
ENDBRANCH  36  37
BRANCH  36  40
HETATM   40  O   UNK N   1      20.765  17.471   3.682  0.00  0.00    -0.392 OA
HETATM   41  H   UNK N   1      19.899  17.608   3.267  0.00  0.00     0.210 HD
ENDBRANCH  36  40
ENDBRANCH  35  36
ENDBRANCH   9  35
TORSDOF 11
ENDMDL
MODEL 9
REMARK VINA RESULT:      -8.0      5.289     11.796
REMARK  11 active torsions:
REMARK  status: ('A' for Active; 'I' for Inactive)
REMARK    1  A    between atoms: C_2  and  C_4 
REMARK    2  A    between atoms: C_2  and  C_6 
REMARK    3  A    between atoms: C_4  and  O_5 
REMARK    4  A    between atoms: C_10  and  N_21 
REMARK    5  A    between atoms: N_14  and  C_15 
REMARK    6  A    between atoms: C_15  and  C_16 
REMARK    7  A    between atoms: C_16  and  C_17 
REMARK    8  A    between atoms: C_16  and  O_19 
REMARK    9  A    between atoms: C_17  and  O_18 
REMARK       I    between atoms: N_21  and  C_22 
REMARK   10  A    between atoms: C_22  and  C_24 
REMARK   11  A    between atoms: C_24  and  C_27 
ROOT
HETATM    1  C   UNK N   1      31.025  15.520   6.141  0.00  0.00     0.023 A 
HETATM    2  C   UNK N   1      31.929  14.445   6.065  0.00  0.00     0.039 A 
HETATM    3  C   UNK N   1      32.750  14.593   7.164  0.00  0.00    -0.005 A 
HETATM    4  C   UNK N   1      33.842  13.845   7.592  0.00  0.00     0.046 A 
HETATM    5  C   UNK N   1      34.529  14.271   8.752  0.00  0.00     0.074 A 
HETATM    6  C   UNK N   1      34.115  15.455   9.426  0.00  0.00     0.145 A 
HETATM    7  C   UNK N   1      33.017  16.170   8.964  0.00  0.00     0.075 A 
HETATM    8  C   UNK N   1      32.355  15.710   7.839  0.00  0.00     0.048 A 
HETATM    9  N   UNK N   1      31.302  16.275   7.239  0.00  0.00    -0.346 N 
HETATM   10  F   UNK N   1      34.814  15.972  10.462  0.00  0.00    -0.204 F 
ENDROOT
BRANCH   5  11
HETATM   11  N   UNK N   1      35.747  13.639   9.071  0.00  0.00    -0.324 N 
HETATM   12  C   UNK N   1      35.989  12.699  10.025  0.00  0.00     0.235 C 
HETATM   13  O   UNK N   1      35.121  11.923  10.397  0.00  0.00    -0.272 OA
HETATM   14  H   UNK N   1      36.525  13.912   8.535  0.00  0.00     0.169 HD
BRANCH  12  15
HETATM   15  C   UNK N   1      37.357  12.705  10.649  0.00  0.00     0.068 A 
HETATM   16  C   UNK N   1      38.623  13.083   9.901  0.00  0.00     0.026 A 
HETATM   17  C   UNK N   1      38.208  11.634   9.976  0.00  0.00     0.026 A 
BRANCH  15  18
HETATM   18  C   UNK N   1      37.307  12.474  12.128  0.00  0.00    -0.037 A 
HETATM   19  C   UNK N   1      37.349  11.135  12.619  0.00  0.00     0.011 A 
HETATM   20  C   UNK N   1      36.845  10.825  13.891  0.00  0.00     0.040 A 
HETATM   21  C   UNK N   1      36.275  11.865  14.616  0.00  0.00     0.111 A 
HETATM   22  C   UNK N   1      36.251  13.127  14.166  0.00  0.00     0.112 A 
HETATM   23  O   UNK N   1      35.647  11.806  15.788  0.00  0.00    -0.256 OA
HETATM   24  C   UNK N   1      36.747  13.487  12.922  0.00  0.00     0.048 A 
HETATM   25  O   UNK N   1      35.620  13.897  15.047  0.00  0.00    -0.256 OA
HETATM   26  C   UNK N   1      35.186  13.090  16.101  0.00  0.00     0.498 A 
HETATM   27  F   UNK N   1      35.732  13.515  17.295  0.00  0.00    -0.147 F 
HETATM   28  F   UNK N   1      33.804  13.107  16.165  0.00  0.00    -0.147 F 
ENDBRANCH  15  18
ENDBRANCH  12  15
ENDBRANCH   5  11
BRANCH   1  29
HETATM   29  C   UNK N   1      29.942  15.777   5.103  0.00  0.00     0.016 C 
HETATM   30  C   UNK N   1      30.175  14.846   3.927  0.00  0.00     0.023 C 
HETATM   31  C   UNK N   1      28.577  15.452   5.692  0.00  0.00     0.023 C 
BRANCH  29  32
HETATM   32  C   UNK N   1      29.901  17.204   4.559  0.00  0.00     0.179 C 
BRANCH  32  33
HETATM   33  O   UNK N   1      29.396  17.232   3.255  0.00  0.00    -0.400 OA
HETATM   34  H   UNK N   1      29.688  17.049   2.349  0.00  0.00     0.209 HD
ENDBRANCH  32  33
ENDBRANCH  29  32
ENDBRANCH   1  29
BRANCH   9  35
HETATM   35  C   UNK N   1      30.686  17.519   7.706  0.00  0.00     0.163 C 
BRANCH  35  36
HETATM   36  C   UNK N   1      29.600  17.293   8.764  0.00  0.00     0.160 C 
BRANCH  36  37
HETATM   37  C   UNK N   1      28.350  18.018   8.323  0.00  0.00     0.197 C 
BRANCH  37  38
HETATM   38  O   UNK N   1      27.497  18.175   9.413  0.00  0.00    -0.398 OA
HETATM   39  H   UNK N   1      27.734  17.886  10.308  0.00  0.00     0.209 HD
ENDBRANCH  37  38
ENDBRANCH  36  37
BRANCH  36  40
HETATM   40  O   UNK N   1      29.964  17.746  10.035  0.00  0.00    -0.392 OA
HETATM   41  H   UNK N   1      30.495  18.498  10.342  0.00  0.00     0.210 HD
ENDBRANCH  36  40
ENDBRANCH  35  36
ENDBRANCH   9  35
TORSDOF 11
ENDMDL
