MODEL 1
REMARK VINA RESULT:      -6.8      0.000      0.000
REMARK  12 active torsions:
REMARK  status: ('A' for Active; 'I' for Inactive)
REMARK    1  A    between atoms: C_2  and  C_3 
REMARK    2  A    between atoms: C_3  and  C_4 
REMARK    3  A    between atoms: N_6  and  C_37 
REMARK    4  A    between atoms: C_11  and  C_15 
REMARK    5  A    between atoms: C_17  and  S_25 
REMARK    6  A    between atoms: C_20  and  O_21 
REMARK    7  A    between atoms: O_21  and  C_22 
REMARK    8  A    between atoms: C_22  and  C_23 
REMARK    9  A    between atoms: S_25  and  N_28 
REMARK   10  A    between atoms: N_31  and  C_34 
REMARK   11  A    between atoms: C_34  and  C_35 
REMARK   12  A    between atoms: C_35  and  O_36 
ROOT
HETATM    1  C   UNK N   1      24.199  18.283   4.471  0.00  0.00     0.043 A 
HETATM    2  C   UNK N   1      22.924  18.810   4.214  0.00  0.00     0.042 A 
HETATM    3  C   UNK N   1      22.710  19.866   3.347  0.00  0.00     0.075 A 
HETATM    4  C   UNK N   1      23.788  20.452   2.700  0.00  0.00     0.027 A 
HETATM    5  C   UNK N   1      25.076  19.978   2.936  0.00  0.00     0.039 A 
HETATM    6  C   UNK N   1      25.325  18.889   3.789  0.00  0.00     0.082 A 
ENDROOT
BRANCH   1   7
HETATM    7  C   UNK N   1      24.166  17.097   5.385  0.00  0.00     0.121 A 
HETATM    8  N   UNK N   1      22.956  16.728   5.920  0.00  0.00    -0.339 N 
HETATM    9  C   UNK N   1      22.881  15.632   6.703  0.00  0.00     0.074 A 
ATOM     10  HN  UNK N   1      22.119  17.281   5.728  1.00  0.00     0.167 HD
HETATM   11  C   UNK N   1      23.958  14.861   6.976  0.00  0.00     0.130 A 
HETATM   12  C   UNK N   1      21.794  15.086   7.340  0.00  0.00    -0.013 A 
HETATM   13  N   UNK N   1      23.599  13.834   7.774  0.00  0.00    -0.350 N 
HETATM   14  C   UNK N   1      25.194  15.200   6.434  0.00  0.00     0.276 A 
HETATM   15  C   UNK N   1      22.268  13.953   8.007  0.00  0.00     0.101 A 
HETATM   16  N   UNK N   1      25.266  16.322   5.640  0.00  0.00    -0.307 N 
HETATM   17  O   UNK N   1      26.187  14.526   6.640  0.00  0.00    -0.266 OA
HETATM   18  H   UNK N   1      26.132  16.575   5.244  0.00  0.00     0.170 HD
BRANCH  13  19
HETATM   19  C   UNK N   1      24.441  12.769   8.303  0.00  0.00     0.124 C 
HETATM   20  C   UNK N   1      24.896  13.104   9.712  0.00  0.00     0.027 C 
ENDBRANCH  13  19
BRANCH  12  21
HETATM   21  C   UNK N   1      20.397  15.626   7.305  0.00  0.00     0.042 C 
BRANCH  21  22
HETATM   22  C   UNK N   1      19.916  16.078   8.673  0.00  0.00     0.000 C 
HETATM   23  C   UNK N   1      19.720  17.580   8.666  0.00  0.00     0.005 C 
ENDBRANCH  21  22
ENDBRANCH  12  21
ENDBRANCH   1   7
BRANCH   6  24
HETATM   24  O   UNK N   1      26.637  18.526   3.872  0.00  0.00    -0.350 OA
BRANCH  24  25
HETATM   25  C   UNK N   1      27.733  19.255   4.243  0.00  0.00     0.175 C 
BRANCH  25  26
HETATM   26  C   UNK N   1      28.775  18.325   4.837  0.00  0.00     0.022 C 
HETATM   27  C   UNK N   1      28.938  17.109   3.947  0.00  0.00     0.007 C 
ENDBRANCH  25  26
ENDBRANCH  24  25
ENDBRANCH   6  24
BRANCH   3  28
HETATM   28  S   UNK N   1      21.039  20.223   2.830  0.00  0.00     0.243 S 
HETATM   29  O   UNK N   1      20.125  20.971   3.815  0.00  0.00    -0.206 OA
HETATM   30  O   UNK N   1      21.215  21.289   1.740  0.00  0.00    -0.206 OA
BRANCH  28  31
HETATM   31  N   UNK N   1      20.090  18.988   1.965  0.00  0.00    -0.203 NA
HETATM   32  C   UNK N   1      20.958  18.025   1.268  0.00  0.00     0.138 C 
HETATM   33  C   UNK N   1      20.700  16.580   1.697  0.00  0.00     0.288 C 
HETATM   34  N   UNK N   1      20.746  16.517   3.152  0.00  0.00     0.092 N 
HETATM   35  C   UNK N   1      19.640  17.279   3.751  0.00  0.00     0.288 C 
HETATM   36  C   UNK N   1      19.074  18.383   2.840  0.00  0.00     0.138 C 
BRANCH  34  37
HETATM   37  C   UNK N   1      20.597  15.124   3.541  0.00  0.00     0.298 C 
BRANCH  37  38
HETATM   38  C   UNK N   1      19.907  14.347   2.435  0.00  0.00     0.194 C 
BRANCH  38  39
HETATM   39  O   UNK N   1      18.639  13.956   2.859  0.00  0.00    -0.399 OA
HETATM   40  H   UNK N   1      18.507  13.622   3.760  0.00  0.00     0.209 HD
ENDBRANCH  38  39
ENDBRANCH  37  38
ENDBRANCH  34  37
ENDBRANCH  28  31
ENDBRANCH   3  28
TORSDOF 12
ENDMDL
MODEL 2
REMARK VINA RESULT:      -6.8      4.337      8.195
REMARK  12 active torsions:
REMARK  status: ('A' for Active; 'I' for Inactive)
REMARK    1  A    between atoms: C_2  and  C_3 
REMARK    2  A    between atoms: C_3  and  C_4 
REMARK    3  A    between atoms: N_6  and  C_37 
REMARK    4  A    between atoms: C_11  and  C_15 
REMARK    5  A    between atoms: C_17  and  S_25 
REMARK    6  A    between atoms: C_20  and  O_21 
REMARK    7  A    between atoms: O_21  and  C_22 
REMARK    8  A    between atoms: C_22  and  C_23 
REMARK    9  A    between atoms: S_25  and  N_28 
REMARK   10  A    between atoms: N_31  and  C_34 
REMARK   11  A    between atoms: C_34  and  C_35 
REMARK   12  A    between atoms: C_35  and  O_36 
ROOT
HETATM    1  C   UNK N   1      27.098  17.115   5.656  0.00  0.00     0.043 A 
HETATM    2  C   UNK N   1      26.273  16.169   6.285  0.00  0.00     0.042 A 
HETATM    3  C   UNK N   1      24.963  15.946   5.904  0.00  0.00     0.075 A 
HETATM    4  C   UNK N   1      24.416  16.683   4.863  0.00  0.00     0.027 A 
HETATM    5  C   UNK N   1      25.187  17.647   4.219  0.00  0.00     0.039 A 
HETATM    6  C   UNK N   1      26.530  17.880   4.564  0.00  0.00     0.082 A 
ENDROOT
BRANCH   1   7
HETATM    7  C   UNK N   1      28.495  17.121   6.196  0.00  0.00     0.121 A 
HETATM    8  N   UNK N   1      29.533  17.182   5.298  0.00  0.00    -0.339 N 
HETATM    9  C   UNK N   1      30.801  17.244   5.752  0.00  0.00     0.074 A 
ATOM     10  HN  UNK N   1      29.345  17.178   4.295  1.00  0.00     0.167 HD
HETATM   11  C   UNK N   1      31.101  17.265   7.070  0.00  0.00     0.130 A 
HETATM   12  C   UNK N   1      31.979  17.306   5.048  0.00  0.00    -0.013 A 
HETATM   13  N   UNK N   1      32.437  17.334   7.239  0.00  0.00    -0.350 N 
HETATM   14  C   UNK N   1      30.069  17.222   8.003  0.00  0.00     0.276 A 
HETATM   15  C   UNK N   1      32.997  17.364   6.003  0.00  0.00     0.101 A 
HETATM   16  N   UNK N   1      28.776  17.153   7.536  0.00  0.00    -0.307 N 
HETATM   17  O   UNK N   1      30.291  17.254   9.200  0.00  0.00    -0.266 OA
HETATM   18  H   UNK N   1      28.033  17.126   8.182  0.00  0.00     0.170 HD
BRANCH  13  19
HETATM   19  C   UNK N   1      33.185  17.381   8.488  0.00  0.00     0.124 C 
HETATM   20  C   UNK N   1      34.437  18.223   8.325  0.00  0.00     0.027 C 
ENDBRANCH  13  19
BRANCH  12  21
HETATM   21  C   UNK N   1      32.107  17.307   3.555  0.00  0.00     0.042 C 
BRANCH  21  22
HETATM   22  C   UNK N   1      32.188  15.903   2.980  0.00  0.00     0.000 C 
HETATM   23  C   UNK N   1      33.639  15.487   2.867  0.00  0.00     0.005 C 
ENDBRANCH  21  22
ENDBRANCH  12  21
ENDBRANCH   1   7
BRANCH   6  24
HETATM   24  O   UNK N   1      27.151  18.826   3.804  0.00  0.00    -0.350 OA
BRANCH  24  25
HETATM   25  C   UNK N   1      27.145  20.189   3.914  0.00  0.00     0.175 C 
BRANCH  25  26
HETATM   26  C   UNK N   1      26.492  20.584   5.227  0.00  0.00     0.022 C 
HETATM   27  C   UNK N   1      27.508  21.276   6.112  0.00  0.00     0.007 C 
ENDBRANCH  25  26
ENDBRANCH  24  25
ENDBRANCH   6  24
BRANCH   3  28
HETATM   28  S   UNK N   1      24.127  14.497   6.526  0.00  0.00     0.243 S 
HETATM   29  O   UNK N   1      22.723  14.679   7.129  0.00  0.00    -0.206 OA
HETATM   30  O   UNK N   1      23.791  13.698   5.259  0.00  0.00    -0.206 OA
BRANCH  28  31
HETATM   31  N   UNK N   1      25.026  13.287   7.476  0.00  0.00    -0.203 NA
HETATM   32  C   UNK N   1      25.189  13.708   8.877  0.00  0.00     0.138 C 
HETATM   33  C   UNK N   1      24.618  12.693   9.869  0.00  0.00     0.288 C 
HETATM   34  N   UNK N   1      23.253  12.379   9.470  0.00  0.00     0.092 N 
HETATM   35  C   UNK N   1      23.225  11.680   8.176  0.00  0.00     0.288 C 
HETATM   36  C   UNK N   1      24.462  11.940   7.297  0.00  0.00     0.138 C 
BRANCH  34  37
HETATM   37  C   UNK N   1      22.691  11.489  10.475  0.00  0.00     0.298 C 
BRANCH  37  38
HETATM   38  C   UNK N   1      22.549  12.222  11.796  0.00  0.00     0.194 C 
BRANCH  38  39
HETATM   39  O   UNK N   1      22.568  11.304  12.844  0.00  0.00    -0.399 OA
HETATM   40  H   UNK N   1      23.414  10.997  13.208  0.00  0.00     0.209 HD
ENDBRANCH  38  39
ENDBRANCH  37  38
ENDBRANCH  34  37
ENDBRANCH  28  31
ENDBRANCH   3  28
TORSDOF 12
ENDMDL
MODEL 3
REMARK VINA RESULT:      -6.7      2.741      7.057
REMARK  12 active torsions:
REMARK  status: ('A' for Active; 'I' for Inactive)
REMARK    1  A    between atoms: C_2  and  C_3 
REMARK    2  A    between atoms: C_3  and  C_4 
REMARK    3  A    between atoms: N_6  and  C_37 
REMARK    4  A    between atoms: C_11  and  C_15 
REMARK    5  A    between atoms: C_17  and  S_25 
REMARK    6  A    between atoms: C_20  and  O_21 
REMARK    7  A    between atoms: O_21  and  C_22 
REMARK    8  A    between atoms: C_22  and  C_23 
REMARK    9  A    between atoms: S_25  and  N_28 
REMARK   10  A    between atoms: N_31  and  C_34 
REMARK   11  A    between atoms: C_34  and  C_35 
REMARK   12  A    between atoms: C_35  and  O_36 
ROOT
HETATM    1  C   UNK N   1      24.596  15.765   5.506  0.00  0.00     0.043 A 
HETATM    2  C   UNK N   1      23.859  14.576   5.380  0.00  0.00     0.042 A 
HETATM    3  C   UNK N   1      24.274  13.376   5.927  0.00  0.00     0.075 A 
HETATM    4  C   UNK N   1      25.471  13.318   6.626  0.00  0.00     0.027 A 
HETATM    5  C   UNK N   1      26.248  14.465   6.763  0.00  0.00     0.039 A 
HETATM    6  C   UNK N   1      25.843  15.706   6.243  0.00  0.00     0.082 A 
ENDROOT
BRANCH   1   7
HETATM    7  C   UNK N   1      23.906  16.946   4.895  0.00  0.00     0.121 A 
HETATM    8  N   UNK N   1      24.687  17.956   4.387  0.00  0.00    -0.339 N 
HETATM    9  C   UNK N   1      24.099  19.008   3.781  0.00  0.00     0.074 A 
ATOM     10  HN  UNK N   1      25.703  17.911   4.470  1.00  0.00     0.167 HD
HETATM   11  C   UNK N   1      22.759  19.107   3.636  0.00  0.00     0.130 A 
HETATM   12  C   UNK N   1      24.672  20.119   3.212  0.00  0.00    -0.013 A 
HETATM   13  N   UNK N   1      22.447  20.251   2.993  0.00  0.00    -0.350 N 
HETATM   14  C   UNK N   1      21.944  18.091   4.125  0.00  0.00     0.276 A 
HETATM   15  C   UNK N   1      23.614  20.889   2.720  0.00  0.00     0.101 A 
HETATM   16  N   UNK N   1      22.547  17.021   4.748  0.00  0.00    -0.307 N 
HETATM   17  O   UNK N   1      20.733  18.130   4.003  0.00  0.00    -0.266 OA
HETATM   18  H   UNK N   1      21.986  16.290   5.096  0.00  0.00     0.170 HD
BRANCH  13  19
HETATM   19  C   UNK N   1      21.127  20.748   2.629  0.00  0.00     0.124 C 
HETATM   20  C   UNK N   1      20.876  20.546   1.145  0.00  0.00     0.027 C 
ENDBRANCH  13  19
BRANCH  12  21
HETATM   21  C   UNK N   1      26.139  20.414   3.152  0.00  0.00     0.042 C 
BRANCH  21  22
HETATM   22  C   UNK N   1      26.735  20.671   4.526  0.00  0.00     0.000 C 
HETATM   23  C   UNK N   1      28.004  19.860   4.684  0.00  0.00     0.005 C 
ENDBRANCH  21  22
ENDBRANCH  12  21
ENDBRANCH   1   7
BRANCH   6  24
HETATM   24  O   UNK N   1      26.699  16.734   6.505  0.00  0.00    -0.350 OA
BRANCH  24  25
HETATM   25  C   UNK N   1      28.028  16.715   6.829  0.00  0.00     0.175 C 
BRANCH  25  26
HETATM   26  C   UNK N   1      28.331  17.872   7.764  0.00  0.00     0.022 C 
HETATM   27  C   UNK N   1      28.071  17.450   9.195  0.00  0.00     0.007 C 
ENDBRANCH  25  26
ENDBRANCH  24  25
ENDBRANCH   6  24
BRANCH   3  28
HETATM   28  S   UNK N   1      23.109  12.027   6.009  0.00  0.00     0.243 S 
HETATM   29  O   UNK N   1      22.570  11.459   4.686  0.00  0.00    -0.206 OA
HETATM   30  O   UNK N   1      23.955  10.845   6.502  0.00  0.00    -0.206 OA
BRANCH  28  31
HETATM   31  N   UNK N   1      21.801  12.050   7.219  0.00  0.00    -0.203 NA
HETATM   32  C   UNK N   1      22.279  12.521   8.528  0.00  0.00     0.138 C 
HETATM   33  C   UNK N   1      21.504  13.738   9.037  0.00  0.00     0.288 C 
HETATM   34  N   UNK N   1      21.485  14.744   7.984  0.00  0.00     0.092 N 
HETATM   35  C   UNK N   1      20.714  14.281   6.820  0.00  0.00     0.288 C 
HETATM   36  C   UNK N   1      20.611  12.749   6.706  0.00  0.00     0.138 C 
BRANCH  34  37
HETATM   37  C   UNK N   1      20.831  15.930   8.514  0.00  0.00     0.298 C 
BRANCH  37  38
HETATM   38  C   UNK N   1      20.226  16.739   7.382  0.00  0.00     0.194 C 
BRANCH  38  39
HETATM   39  O   UNK N   1      20.917  17.942   7.246  0.00  0.00    -0.399 OA
HETATM   40  H   UNK N   1      21.419  18.127   6.436  0.00  0.00     0.209 HD
ENDBRANCH  38  39
ENDBRANCH  37  38
ENDBRANCH  34  37
ENDBRANCH  28  31
ENDBRANCH   3  28
TORSDOF 12
ENDMDL
MODEL 4
REMARK VINA RESULT:      -6.7     12.839     15.126
REMARK  12 active torsions:
REMARK  status: ('A' for Active; 'I' for Inactive)
REMARK    1  A    between atoms: C_2  and  C_3 
REMARK    2  A    between atoms: C_3  and  C_4 
REMARK    3  A    between atoms: N_6  and  C_37 
REMARK    4  A    between atoms: C_11  and  C_15 
REMARK    5  A    between atoms: C_17  and  S_25 
REMARK    6  A    between atoms: C_20  and  O_21 
REMARK    7  A    between atoms: O_21  and  C_22 
REMARK    8  A    between atoms: C_22  and  C_23 
REMARK    9  A    between atoms: S_25  and  N_28 
REMARK   10  A    between atoms: N_31  and  C_34 
REMARK   11  A    between atoms: C_34  and  C_35 
REMARK   12  A    between atoms: C_35  and  O_36 
ROOT
HETATM    1  C   UNK N   1      27.286  25.214  -4.928  0.00  0.00     0.043 A 
HETATM    2  C   UNK N   1      27.609  26.509  -4.494  0.00  0.00     0.042 A 
HETATM    3  C   UNK N   1      26.762  27.589  -4.660  0.00  0.00     0.075 A 
HETATM    4  C   UNK N   1      25.539  27.411  -5.290  0.00  0.00     0.027 A 
HETATM    5  C   UNK N   1      25.179  26.149  -5.756  0.00  0.00     0.039 A 
HETATM    6  C   UNK N   1      26.004  25.025  -5.579  0.00  0.00     0.082 A 
ENDROOT
BRANCH   1   7
HETATM    7  C   UNK N   1      28.328  24.201  -4.568  0.00  0.00     0.121 A 
HETATM    8  N   UNK N   1      28.629  23.229  -5.492  0.00  0.00    -0.339 N 
HETATM    9  C   UNK N   1      29.601  22.334  -5.222  0.00  0.00     0.074 A 
ATOM     10  HN  UNK N   1      28.119  23.184  -6.374  1.00  0.00     0.167 HD
HETATM   11  C   UNK N   1      30.314  22.360  -4.073  0.00  0.00     0.130 A 
HETATM   12  C   UNK N   1      30.062  21.289  -5.984  0.00  0.00    -0.013 A 
HETATM   13  N   UNK N   1      31.219  21.360  -4.068  0.00  0.00    -0.350 N 
HETATM   14  C   UNK N   1      30.043  23.344  -3.126  0.00  0.00     0.276 A 
HETATM   15  C   UNK N   1      31.081  20.689  -5.240  0.00  0.00     0.101 A 
HETATM   16  N   UNK N   1      29.046  24.252  -3.403  0.00  0.00    -0.307 N 
HETATM   17  O   UNK N   1      30.669  23.415  -2.085  0.00  0.00    -0.266 OA
HETATM   18  H   UNK N   1      28.844  24.957  -2.746  0.00  0.00     0.170 HD
BRANCH  13  19
HETATM   19  C   UNK N   1      32.187  21.028  -3.032  0.00  0.00     0.124 C 
HETATM   20  C   UNK N   1      33.586  20.957  -3.617  0.00  0.00     0.027 C 
ENDBRANCH  13  19
BRANCH  12  21
HETATM   21  C   UNK N   1      29.548  20.898  -7.336  0.00  0.00     0.042 C 
BRANCH  21  22
HETATM   22  C   UNK N   1      29.263  19.409  -7.440  0.00  0.00     0.000 C 
HETATM   23  C   UNK N   1      29.928  18.856  -8.683  0.00  0.00     0.005 C 
ENDBRANCH  21  22
ENDBRANCH  12  21
ENDBRANCH   1   7
BRANCH   6  24
HETATM   24  O   UNK N   1      25.480  23.861  -6.054  0.00  0.00    -0.350 OA
BRANCH  24  25
HETATM   25  C   UNK N   1      25.683  23.225  -7.249  0.00  0.00     0.175 C 
BRANCH  25  26
HETATM   26  C   UNK N   1      25.118  21.818  -7.168  0.00  0.00     0.022 C 
HETATM   27  C   UNK N   1      25.714  20.967  -8.270  0.00  0.00     0.007 C 
ENDBRANCH  25  26
ENDBRANCH  24  25
ENDBRANCH   6  24
BRANCH   3  28
HETATM   28  S   UNK N   1      27.113  29.096  -3.771  0.00  0.00     0.243 S 
HETATM   29  O   UNK N   1      26.047  30.204  -3.783  0.00  0.00    -0.206 OA
HETATM   30  O   UNK N   1      27.063  28.669  -2.297  0.00  0.00    -0.206 OA
BRANCH  28  31
HETATM   31  N   UNK N   1      28.733  29.833  -3.868  0.00  0.00    -0.203 NA
HETATM   32  C   UNK N   1      29.764  28.958  -3.287  0.00  0.00     0.138 C 
HETATM   33  C   UNK N   1      30.880  28.623  -4.277  0.00  0.00     0.288 C 
HETATM   34  N   UNK N   1      30.272  28.134  -5.507  0.00  0.00     0.092 N 
HETATM   35  C   UNK N   1      29.498  29.192  -6.174  0.00  0.00     0.288 C 
HETATM   36  C   UNK N   1      29.022  30.310  -5.230  0.00  0.00     0.138 C 
BRANCH  34  37
HETATM   37  C   UNK N   1      31.345  27.728  -6.402  0.00  0.00     0.298 C 
BRANCH  37  38
HETATM   38  C   UNK N   1      31.108  26.309  -6.886  0.00  0.00     0.194 C 
BRANCH  38  39
HETATM   39  O   UNK N   1      31.037  25.448  -5.793  0.00  0.00    -0.399 OA
HETATM   40  H   UNK N   1      30.599  24.586  -5.878  0.00  0.00     0.209 HD
ENDBRANCH  38  39
ENDBRANCH  37  38
ENDBRANCH  34  37
ENDBRANCH  28  31
ENDBRANCH   3  28
TORSDOF 12
ENDMDL
MODEL 5
REMARK VINA RESULT:      -6.6      6.602     11.347
REMARK  12 active torsions:
REMARK  status: ('A' for Active; 'I' for Inactive)
REMARK    1  A    between atoms: C_2  and  C_3 
REMARK    2  A    between atoms: C_3  and  C_4 
REMARK    3  A    between atoms: N_6  and  C_37 
REMARK    4  A    between atoms: C_11  and  C_15 
REMARK    5  A    between atoms: C_17  and  S_25 
REMARK    6  A    between atoms: C_20  and  O_21 
REMARK    7  A    between atoms: O_21  and  C_22 
REMARK    8  A    between atoms: C_22  and  C_23 
REMARK    9  A    between atoms: S_25  and  N_28 
REMARK   10  A    between atoms: N_31  and  C_34 
REMARK   11  A    between atoms: C_34  and  C_35 
REMARK   12  A    between atoms: C_35  and  O_36 
ROOT
HETATM    1  C   UNK N   1      31.519  16.833   6.742  0.00  0.00     0.043 A 
HETATM    2  C   UNK N   1      32.511  15.978   6.239  0.00  0.00     0.042 A 
HETATM    3  C   UNK N   1      33.805  15.962   6.726  0.00  0.00     0.075 A 
HETATM    4  C   UNK N   1      34.163  16.828   7.749  0.00  0.00     0.027 A 
HETATM    5  C   UNK N   1      33.221  17.711   8.269  0.00  0.00     0.039 A 
HETATM    6  C   UNK N   1      31.890  17.733   7.817  0.00  0.00     0.082 A 
ENDROOT
BRANCH   1   7
HETATM    7  C   UNK N   1      30.180  16.612   6.107  0.00  0.00     0.121 A 
HETATM    8  N   UNK N   1      29.501  17.710   5.636  0.00  0.00    -0.339 N 
HETATM    9  C   UNK N   1      28.319  17.541   5.009  0.00  0.00     0.074 A 
ATOM     10  HN  UNK N   1      29.887  18.646   5.761  1.00  0.00     0.167 HD
HETATM   11  C   UNK N   1      27.771  16.321   4.808  0.00  0.00     0.130 A 
HETATM   12  C   UNK N   1      27.474  18.479   4.469  0.00  0.00    -0.013 A 
HETATM   13  N   UNK N   1      26.596  16.443   4.157  0.00  0.00    -0.350 N 
HETATM   14  C   UNK N   1      28.445  15.190   5.258  0.00  0.00     0.276 A 
HETATM   15  C   UNK N   1      26.397  17.767   3.936  0.00  0.00     0.101 A 
HETATM   16  N   UNK N   1      29.649  15.367   5.903  0.00  0.00    -0.307 N 
HETATM   17  O   UNK N   1      27.998  14.070   5.086  0.00  0.00    -0.266 OA
HETATM   18  H   UNK N   1      30.142  14.577   6.224  0.00  0.00     0.170 HD
BRANCH  13  19
HETATM   19  C   UNK N   1      25.685  15.387   3.739  0.00  0.00     0.124 C 
HETATM   20  C   UNK N   1      24.271  15.926   3.615  0.00  0.00     0.027 C 
ENDBRANCH  13  19
BRANCH  12  21
HETATM   21  C   UNK N   1      27.696  19.961   4.473  0.00  0.00     0.042 C 
BRANCH  21  22
HETATM   22  C   UNK N   1      26.615  20.707   5.236  0.00  0.00     0.000 C 
HETATM   23  C   UNK N   1      27.253  21.537   6.331  0.00  0.00     0.005 C 
ENDBRANCH  21  22
ENDBRANCH  12  21
ENDBRANCH   1   7
BRANCH   6  24
HETATM   24  O   UNK N   1      31.089  18.625   8.464  0.00  0.00    -0.350 OA
BRANCH  24  25
HETATM   25  C   UNK N   1      30.165  18.426   9.453  0.00  0.00     0.175 C 
BRANCH  25  26
HETATM   26  C   UNK N   1      28.774  18.657   8.892  0.00  0.00     0.022 C 
HETATM   27  C   UNK N   1      27.972  17.375   8.976  0.00  0.00     0.007 C 
ENDBRANCH  25  26
ENDBRANCH  24  25
ENDBRANCH   6  24
BRANCH   3  28
HETATM   28  S   UNK N   1      34.876  14.611   6.264  0.00  0.00     0.243 S 
HETATM   29  O   UNK N   1      34.564  13.859   4.959  0.00  0.00    -0.206 OA
HETATM   30  O   UNK N   1      36.193  15.303   5.887  0.00  0.00    -0.206 OA
BRANCH  28  31
HETATM   31  N   UNK N   1      35.430  13.450   7.497  0.00  0.00    -0.203 NA
HETATM   32  C   UNK N   1      36.492  14.020   8.342  0.00  0.00     0.138 C 
HETATM   33  C   UNK N   1      36.136  14.002   9.829  0.00  0.00     0.288 C 
HETATM   34  N   UNK N   1      34.821  14.606   9.995  0.00  0.00     0.092 N 
HETATM   35  C   UNK N   1      33.777  13.787   9.360  0.00  0.00     0.288 C 
HETATM   36  C   UNK N   1      34.295  12.872   8.235  0.00  0.00     0.138 C 
BRANCH  34  37
HETATM   37  C   UNK N   1      34.538  14.671  11.420  0.00  0.00     0.298 C 
BRANCH  37  38
HETATM   38  C   UNK N   1      35.297  13.578  12.150  0.00  0.00     0.194 C 
BRANCH  38  39
HETATM   39  O   UNK N   1      34.398  12.765  12.837  0.00  0.00    -0.399 OA
HETATM   40  H   UNK N   1      34.580  11.818  12.944  0.00  0.00     0.209 HD
ENDBRANCH  38  39
ENDBRANCH  37  38
ENDBRANCH  34  37
ENDBRANCH  28  31
ENDBRANCH   3  28
TORSDOF 12
ENDMDL
MODEL 6
REMARK VINA RESULT:      -6.6      3.114      6.480
REMARK  12 active torsions:
REMARK  status: ('A' for Active; 'I' for Inactive)
REMARK    1  A    between atoms: C_2  and  C_3 
REMARK    2  A    between atoms: C_3  and  C_4 
REMARK    3  A    between atoms: N_6  and  C_37 
REMARK    4  A    between atoms: C_11  and  C_15 
REMARK    5  A    between atoms: C_17  and  S_25 
REMARK    6  A    between atoms: C_20  and  O_21 
REMARK    7  A    between atoms: O_21  and  C_22 
REMARK    8  A    between atoms: C_22  and  C_23 
REMARK    9  A    between atoms: S_25  and  N_28 
REMARK   10  A    between atoms: N_31  and  C_34 
REMARK   11  A    between atoms: C_34  and  C_35 
REMARK   12  A    between atoms: C_35  and  O_36 
ROOT
HETATM    1  C   UNK N   1      25.793  15.923   4.269  0.00  0.00     0.043 A 
HETATM    2  C   UNK N   1      24.571  16.149   4.922  0.00  0.00     0.042 A 
HETATM    3  C   UNK N   1      23.349  15.839   4.354  0.00  0.00     0.075 A 
HETATM    4  C   UNK N   1      23.303  15.289   3.081  0.00  0.00     0.027 A 
HETATM    5  C   UNK N   1      24.487  15.063   2.383  0.00  0.00     0.039 A 
HETATM    6  C   UNK N   1      25.747  15.341   2.941  0.00  0.00     0.082 A 
ENDROOT
BRANCH   1   7
HETATM    7  C   UNK N   1      26.980  16.269   5.114  0.00  0.00     0.121 A 
HETATM    8  N   UNK N   1      28.206  16.355   4.500  0.00  0.00    -0.339 N 
HETATM    9  C   UNK N   1      29.286  16.719   5.222  0.00  0.00     0.074 A 
ATOM     10  HN  UNK N   1      28.299  16.145   3.506  1.00  0.00     0.167 HD
HETATM   11  C   UNK N   1      29.212  17.020   6.538  0.00  0.00     0.130 A 
HETATM   12  C   UNK N   1      30.592  16.865   4.825  0.00  0.00    -0.013 A 
HETATM   13  N   UNK N   1      30.433  17.353   7.004  0.00  0.00    -0.350 N 
HETATM   14  C   UNK N   1      27.981  16.958   7.182  0.00  0.00     0.276 A 
HETATM   15  C   UNK N   1      31.298  17.266   5.962  0.00  0.00     0.101 A 
HETATM   16  N   UNK N   1      26.881  16.581   6.444  0.00  0.00    -0.307 N 
HETATM   17  O   UNK N   1      27.864  17.236   8.362  0.00  0.00    -0.266 OA
HETATM   18  H   UNK N   1      26.001  16.536   6.883  0.00  0.00     0.170 HD
BRANCH  13  19
HETATM   19  C   UNK N   1      30.803  17.748   8.357  0.00  0.00     0.124 C 
HETATM   20  C   UNK N   1      32.302  17.969   8.453  0.00  0.00     0.027 C 
ENDBRANCH  13  19
BRANCH  12  21
HETATM   21  C   UNK N   1      31.119  16.629   3.442  0.00  0.00     0.042 C 
BRANCH  21  22
HETATM   22  C   UNK N   1      32.583  17.009   3.307  0.00  0.00     0.000 C 
HETATM   23  C   UNK N   1      33.386  15.787   2.912  0.00  0.00     0.005 C 
ENDBRANCH  21  22
ENDBRANCH  12  21
ENDBRANCH   1   7
BRANCH   6  24
HETATM   24  O   UNK N   1      26.802  15.018   2.141  0.00  0.00    -0.350 OA
BRANCH  24  25
HETATM   25  C   UNK N   1      27.392  13.807   1.905  0.00  0.00     0.175 C 
BRANCH  25  26
HETATM   26  C   UNK N   1      28.901  13.979   1.893  0.00  0.00     0.022 C 
HETATM   27  C   UNK N   1      29.493  13.363   3.144  0.00  0.00     0.007 C 
ENDBRANCH  25  26
ENDBRANCH  24  25
ENDBRANCH   6  24
BRANCH   3  28
HETATM   28  S   UNK N   1      21.899  15.840   5.394  0.00  0.00     0.243 S 
HETATM   29  O   UNK N   1      21.189  14.498   5.640  0.00  0.00    -0.206 OA
HETATM   30  O   UNK N   1      22.456  16.128   6.796  0.00  0.00    -0.206 OA
BRANCH  28  31
HETATM   31  N   UNK N   1      20.682  17.131   5.228  0.00  0.00    -0.203 NA
HETATM   32  C   UNK N   1      21.304  18.428   4.915  0.00  0.00     0.138 C 
HETATM   33  C   UNK N   1      20.771  19.041   3.621  0.00  0.00     0.288 C 
HETATM   34  N   UNK N   1      20.860  18.040   2.566  0.00  0.00     0.092 N 
HETATM   35  C   UNK N   1      19.959  16.908   2.832  0.00  0.00     0.288 C 
HETATM   36  C   UNK N   1      19.598  16.730   4.318  0.00  0.00     0.138 C 
BRANCH  34  37
HETATM   37  C   UNK N   1      20.441  18.667   1.322  0.00  0.00     0.298 C 
BRANCH  37  38
HETATM   38  C   UNK N   1      20.875  20.121   1.302  0.00  0.00     0.194 C 
BRANCH  38  39
HETATM   39  O   UNK N   1      20.701  20.642   0.021  0.00  0.00    -0.399 OA
HETATM   40  H   UNK N   1      21.461  20.743  -0.572  0.00  0.00     0.209 HD
ENDBRANCH  38  39
ENDBRANCH  37  38
ENDBRANCH  34  37
ENDBRANCH  28  31
ENDBRANCH   3  28
TORSDOF 12
ENDMDL
MODEL 7
REMARK VINA RESULT:      -6.5     10.007     13.651
REMARK  12 active torsions:
REMARK  status: ('A' for Active; 'I' for Inactive)
REMARK    1  A    between atoms: C_2  and  C_3 
REMARK    2  A    between atoms: C_3  and  C_4 
REMARK    3  A    between atoms: N_6  and  C_37 
REMARK    4  A    between atoms: C_11  and  C_15 
REMARK    5  A    between atoms: C_17  and  S_25 
REMARK    6  A    between atoms: C_20  and  O_21 
REMARK    7  A    between atoms: O_21  and  C_22 
REMARK    8  A    between atoms: C_22  and  C_23 
REMARK    9  A    between atoms: S_25  and  N_28 
REMARK   10  A    between atoms: N_31  and  C_34 
REMARK   11  A    between atoms: C_34  and  C_35 
REMARK   12  A    between atoms: C_35  and  O_36 
ROOT
HETATM    1  C   UNK N   1      35.585  14.143   9.794  0.00  0.00     0.043 A 
HETATM    2  C   UNK N   1      35.104  15.405   9.414  0.00  0.00     0.042 A 
HETATM    3  C   UNK N   1      34.973  15.791   8.093  0.00  0.00     0.075 A 
HETATM    4  C   UNK N   1      35.335  14.912   7.082  0.00  0.00     0.027 A 
HETATM    5  C   UNK N   1      35.836  13.655   7.407  0.00  0.00     0.039 A 
HETATM    6  C   UNK N   1      35.957  13.221   8.738  0.00  0.00     0.082 A 
ENDROOT
BRANCH   1   7
HETATM    7  C   UNK N   1      35.565  13.933  11.277  0.00  0.00     0.121 A 
HETATM    8  N   UNK N   1      34.966  12.794  11.759  0.00  0.00    -0.339 N 
HETATM    9  C   UNK N   1      34.980  12.547  13.084  0.00  0.00     0.074 A 
ATOM     10  HN  UNK N   1      34.514  12.141  11.118  1.00  0.00     0.167 HD
HETATM   11  C   UNK N   1      35.576  13.374  13.972  0.00  0.00     0.130 A 
HETATM   12  C   UNK N   1      34.447  11.490  13.781  0.00  0.00    -0.013 A 
HETATM   13  N   UNK N   1      35.443  12.885  15.222  0.00  0.00    -0.350 N 
HETATM   14  C   UNK N   1      36.206  14.526  13.511  0.00  0.00     0.276 A 
HETATM   15  C   UNK N   1      34.752  11.721  15.125  0.00  0.00     0.101 A 
HETATM   16  N   UNK N   1      36.186  14.778  12.157  0.00  0.00    -0.307 N 
HETATM   17  O   UNK N   1      36.770  15.292  14.271  0.00  0.00    -0.266 OA
HETATM   18  H   UNK N   1      36.631  15.587  11.813  0.00  0.00     0.170 HD
BRANCH  13  19
HETATM   19  C   UNK N   1      35.936  13.454  16.468  0.00  0.00     0.124 C 
HETATM   20  C   UNK N   1      34.920  13.260  17.578  0.00  0.00     0.027 C 
ENDBRANCH  13  19
BRANCH  12  21
HETATM   21  C   UNK N   1      33.695  10.339  13.185  0.00  0.00     0.042 C 
BRANCH  21  22
HETATM   22  C   UNK N   1      34.605   9.376  12.440  0.00  0.00     0.000 C 
HETATM   23  C   UNK N   1      35.426   8.586  13.437  0.00  0.00     0.005 C 
ENDBRANCH  21  22
ENDBRANCH  12  21
ENDBRANCH   1   7
BRANCH   6  24
HETATM   24  O   UNK N   1      36.421  11.947   8.877  0.00  0.00    -0.350 OA
BRANCH  24  25
HETATM   25  C   UNK N   1      37.703  11.470   8.870  0.00  0.00     0.175 C 
BRANCH  25  26
HETATM   26  C   UNK N   1      38.327  11.691  10.237  0.00  0.00     0.022 C 
HETATM   27  C   UNK N   1      37.804  10.653  11.208  0.00  0.00     0.007 C 
ENDBRANCH  25  26
ENDBRANCH  24  25
ENDBRANCH   6  24
BRANCH   3  28
HETATM   28  S   UNK N   1      34.034  17.263   7.721  0.00  0.00     0.243 S 
HETATM   29  O   UNK N   1      34.374  18.548   8.495  0.00  0.00    -0.206 OA
HETATM   30  O   UNK N   1      34.503  17.648   6.311  0.00  0.00    -0.206 OA
BRANCH  28  31
HETATM   31  N   UNK N   1      32.270  17.162   7.490  0.00  0.00    -0.203 NA
HETATM   32  C   UNK N   1      31.890  17.411   6.090  0.00  0.00     0.138 C 
HETATM   33  C   UNK N   1      31.097  16.255   5.479  0.00  0.00     0.288 C 
HETATM   34  N   UNK N   1      31.833  15.019   5.713  0.00  0.00     0.092 N 
HETATM   35  C   UNK N   1      31.895  14.701   7.147  0.00  0.00     0.288 C 
HETATM   36  C   UNK N   1      31.725  15.923   8.068  0.00  0.00     0.138 C 
BRANCH  34  37
HETATM   37  C   UNK N   1      31.117  13.944   5.043  0.00  0.00     0.298 C 
BRANCH  37  38
HETATM   38  C   UNK N   1      31.989  12.703   4.978  0.00  0.00     0.194 C 
BRANCH  38  39
HETATM   39  O   UNK N   1      31.248  11.590   5.373  0.00  0.00    -0.399 OA
HETATM   40  H   UNK N   1      31.499  11.095   6.169  0.00  0.00     0.209 HD
ENDBRANCH  38  39
ENDBRANCH  37  38
ENDBRANCH  34  37
ENDBRANCH  28  31
ENDBRANCH   3  28
TORSDOF 12
ENDMDL
MODEL 8
REMARK VINA RESULT:      -6.5      6.158     10.701
REMARK  12 active torsions:
REMARK  status: ('A' for Active; 'I' for Inactive)
REMARK    1  A    between atoms: C_2  and  C_3 
REMARK    2  A    between atoms: C_3  and  C_4 
REMARK    3  A    between atoms: N_6  and  C_37 
REMARK    4  A    between atoms: C_11  and  C_15 
REMARK    5  A    between atoms: C_17  and  S_25 
REMARK    6  A    between atoms: C_20  and  O_21 
REMARK    7  A    between atoms: O_21  and  C_22 
REMARK    8  A    between atoms: C_22  and  C_23 
REMARK    9  A    between atoms: S_25  and  N_28 
REMARK   10  A    between atoms: N_31  and  C_34 
REMARK   11  A    between atoms: C_34  and  C_35 
REMARK   12  A    between atoms: C_35  and  O_36 
ROOT
HETATM    1  C   UNK N   1      29.923  16.973   6.579  0.00  0.00     0.043 A 
HETATM    2  C   UNK N   1      31.251  16.630   6.282  0.00  0.00     0.042 A 
HETATM    3  C   UNK N   1      32.318  17.009   7.075  0.00  0.00     0.075 A 
HETATM    4  C   UNK N   1      32.091  17.769   8.213  0.00  0.00     0.027 A 
HETATM    5  C   UNK N   1      30.793  18.152   8.541  0.00  0.00     0.039 A 
HETATM    6  C   UNK N   1      29.684  17.760   7.772  0.00  0.00     0.082 A 
ENDROOT
BRANCH   1   7
HETATM    7  C   UNK N   1      28.939  16.385   5.615  0.00  0.00     0.121 A 
HETATM    8  N   UNK N   1      27.772  17.073   5.383  0.00  0.00    -0.339 N 
HETATM    9  C   UNK N   1      26.890  16.599   4.480  0.00  0.00     0.074 A 
ATOM     10  HN  UNK N   1      27.575  17.935   5.892  1.00  0.00     0.167 HD
HETATM   11  C   UNK N   1      27.111  15.469   3.771  0.00  0.00     0.130 A 
HETATM   12  C   UNK N   1      25.675  17.111   4.095  0.00  0.00    -0.013 A 
HETATM   13  N   UNK N   1      26.074  15.233   2.942  0.00  0.00    -0.350 N 
HETATM   14  C   UNK N   1      28.292  14.760   3.972  0.00  0.00     0.276 A 
HETATM   15  C   UNK N   1      25.178  16.236   3.125  0.00  0.00     0.101 A 
HETATM   16  N   UNK N   1      29.188  15.244   4.899  0.00  0.00    -0.307 N 
HETATM   17  O   UNK N   1      28.541  13.746   3.346  0.00  0.00    -0.266 OA
HETATM   18  H   UNK N   1      30.031  14.757   5.051  0.00  0.00     0.170 HD
BRANCH  13  19
HETATM   19  C   UNK N   1      25.904  14.132   2.004  0.00  0.00     0.124 C 
HETATM   20  C   UNK N   1      24.656  14.338   1.165  0.00  0.00     0.027 C 
ENDBRANCH  13  19
BRANCH  12  21
HETATM   21  C   UNK N   1      25.040  18.357   4.632  0.00  0.00     0.042 C 
BRANCH  21  22
HETATM   22  C   UNK N   1      24.861  19.423   3.564  0.00  0.00     0.000 C 
HETATM   23  C   UNK N   1      26.188  20.106   3.306  0.00  0.00     0.005 C 
ENDBRANCH  21  22
ENDBRANCH  12  21
ENDBRANCH   1   7
BRANCH   6  24
HETATM   24  O   UNK N   1      28.483  18.183   8.259  0.00  0.00    -0.350 OA
BRANCH  24  25
HETATM   25  C   UNK N   1      27.902  19.420   8.224  0.00  0.00     0.175 C 
BRANCH  25  26
HETATM   26  C   UNK N   1      27.755  19.863   6.779  0.00  0.00     0.022 C 
HETATM   27  C   UNK N   1      26.952  21.147   6.720  0.00  0.00     0.007 C 
ENDBRANCH  25  26
ENDBRANCH  24  25
ENDBRANCH   6  24
BRANCH   3  28
HETATM   28  S   UNK N   1      33.903  16.235   6.803  0.00  0.00     0.243 S 
HETATM   29  O   UNK N   1      34.477  16.251   5.376  0.00  0.00    -0.206 OA
HETATM   30  O   UNK N   1      34.891  17.167   7.518  0.00  0.00    -0.206 OA
BRANCH  28  31
HETATM   31  N   UNK N   1      34.275  14.671   7.572  0.00  0.00    -0.203 NA
HETATM   32  C   UNK N   1      35.686  14.590   7.983  0.00  0.00     0.138 C 
HETATM   33  C   UNK N   1      35.850  14.303   9.476  0.00  0.00     0.288 C 
HETATM   34  N   UNK N   1      35.041  15.260  10.220  0.00  0.00     0.092 N 
HETATM   35  C   UNK N   1      33.607  15.054   9.964  0.00  0.00     0.288 C 
HETATM   36  C   UNK N   1      33.303  14.350   8.629  0.00  0.00     0.138 C 
BRANCH  34  37
HETATM   37  C   UNK N   1      35.282  15.039  11.637  0.00  0.00     0.298 C 
BRANCH  37  38
HETATM   38  C   UNK N   1      35.428  13.554  11.913  0.00  0.00     0.194 C 
BRANCH  38  39
HETATM   39  O   UNK N   1      34.373  13.122  12.715  0.00  0.00    -0.399 OA
HETATM   40  H   UNK N   1      34.428  13.204  13.680  0.00  0.00     0.209 HD
ENDBRANCH  38  39
ENDBRANCH  37  38
ENDBRANCH  34  37
ENDBRANCH  28  31
ENDBRANCH   3  28
TORSDOF 12
ENDMDL
MODEL 9
REMARK VINA RESULT:      -6.5      3.116      5.183
REMARK  12 active torsions:
REMARK  status: ('A' for Active; 'I' for Inactive)
REMARK    1  A    between atoms: C_2  and  C_3 
REMARK    2  A    between atoms: C_3  and  C_4 
REMARK    3  A    between atoms: N_6  and  C_37 
REMARK    4  A    between atoms: C_11  and  C_15 
REMARK    5  A    between atoms: C_17  and  S_25 
REMARK    6  A    between atoms: C_20  and  O_21 
REMARK    7  A    between atoms: O_21  and  C_22 
REMARK    8  A    between atoms: C_22  and  C_23 
REMARK    9  A    between atoms: S_25  and  N_28 
REMARK   10  A    between atoms: N_31  and  C_34 
REMARK   11  A    between atoms: C_34  and  C_35 
REMARK   12  A    between atoms: C_35  and  O_36 
ROOT
HETATM    1  C   UNK N   1      24.118  16.180   4.366  0.00  0.00     0.043 A 
HETATM    2  C   UNK N   1      24.023  14.921   3.753  0.00  0.00     0.042 A 
HETATM    3  C   UNK N   1      24.954  14.459   2.842  0.00  0.00     0.075 A 
HETATM    4  C   UNK N   1      26.032  15.260   2.496  0.00  0.00     0.027 A 
HETATM    5  C   UNK N   1      26.162  16.526   3.061  0.00  0.00     0.039 A 
HETATM    6  C   UNK N   1      25.249  17.015   4.011  0.00  0.00     0.082 A 
ENDROOT
BRANCH   1   7
HETATM    7  C   UNK N   1      23.034  16.424   5.371  0.00  0.00     0.121 A 
HETATM    8  N   UNK N   1      22.747  15.421   6.265  0.00  0.00    -0.339 N 
HETATM    9  C   UNK N   1      21.815  15.628   7.218  0.00  0.00     0.074 A 
ATOM     10  HN  UNK N   1      23.234  14.526   6.208  1.00  0.00     0.167 HD
HETATM   11  C   UNK N   1      21.151  16.799   7.343  0.00  0.00     0.130 A 
HETATM   12  C   UNK N   1      21.367  14.780   8.201  0.00  0.00    -0.013 A 
HETATM   13  N   UNK N   1      20.286  16.732   8.375  0.00  0.00    -0.350 N 
HETATM   14  C   UNK N   1      21.434  17.839   6.462  0.00  0.00     0.276 A 
HETATM   15  C   UNK N   1      20.406  15.495   8.920  0.00  0.00     0.101 A 
HETATM   16  N   UNK N   1      22.382  17.622   5.488  0.00  0.00    -0.307 N 
HETATM   17  O   UNK N   1      20.873  18.916   6.546  0.00  0.00    -0.266 OA
HETATM   18  H   UNK N   1      22.598  18.348   4.858  0.00  0.00     0.170 HD
BRANCH  13  19
HETATM   19  C   UNK N   1      19.381  17.766   8.860  0.00  0.00     0.124 C 
HETATM   20  C   UNK N   1      18.062  17.154   9.296  0.00  0.00     0.027 C 
ENDBRANCH  13  19
BRANCH  12  21
HETATM   21  C   UNK N   1      21.838  13.375   8.425  0.00  0.00     0.042 C 
BRANCH  21  22
HETATM   22  C   UNK N   1      22.633  13.228   9.711  0.00  0.00     0.000 C 
HETATM   23  C   UNK N   1      21.860  12.365  10.686  0.00  0.00     0.005 C 
ENDBRANCH  21  22
ENDBRANCH  12  21
ENDBRANCH   1   7
BRANCH   6  24
HETATM   24  O   UNK N   1      25.549  18.253   4.497  0.00  0.00    -0.350 OA
BRANCH  24  25
HETATM   25  C   UNK N   1      26.662  19.027   4.313  0.00  0.00     0.175 C 
BRANCH  25  26
HETATM   26  C   UNK N   1      26.235  20.433   3.929  0.00  0.00     0.022 C 
HETATM   27  C   UNK N   1      25.417  20.386   2.655  0.00  0.00     0.007 C 
ENDBRANCH  25  26
ENDBRANCH  24  25
ENDBRANCH   6  24
BRANCH   3  28
HETATM   28  S   UNK N   1      24.929  12.731   2.396  0.00  0.00     0.243 S 
HETATM   29  O   UNK N   1      26.196  11.901   2.660  0.00  0.00    -0.206 OA
HETATM   30  O   UNK N   1      23.963  12.107   3.413  0.00  0.00    -0.206 OA
BRANCH  28  31
HETATM   31  N   UNK N   1      24.196  12.217   0.855  0.00  0.00    -0.203 NA
HETATM   32  C   UNK N   1      23.298  11.065   1.037  0.00  0.00     0.138 C 
HETATM   33  C   UNK N   1      21.877  11.341   0.545  0.00  0.00     0.288 C 
HETATM   34  N   UNK N   1      21.417  12.587   1.144  0.00  0.00     0.092 N 
HETATM   35  C   UNK N   1      22.200  13.732   0.656  0.00  0.00     0.288 C 
HETATM   36  C   UNK N   1      23.602  13.357   0.139  0.00  0.00     0.138 C 
BRANCH  34  37
HETATM   37  C   UNK N   1      20.032  12.786   0.746  0.00  0.00     0.298 C 
BRANCH  37  38
HETATM   38  C   UNK N   1      19.605  14.211   1.049  0.00  0.00     0.194 C 
BRANCH  38  39
HETATM   39  O   UNK N   1      18.721  14.215   2.126  0.00  0.00    -0.399 OA
HETATM   40  H   UNK N   1      17.838  13.823   2.033  0.00  0.00     0.209 HD
ENDBRANCH  38  39
ENDBRANCH  37  38
ENDBRANCH  34  37
ENDBRANCH  28  31
ENDBRANCH   3  28
TORSDOF 12
ENDMDL
