MODEL 1
REMARK VINA RESULT:      -8.0      0.000      0.000
REMARK  1 active torsions:
REMARK  status: ('A' for Active; 'I' for Inactive)
REMARK    1  A    between atoms: C_19  and  C_15 
REMARK       I    between atoms: N_20  and  C_19 
ROOT
HETATM    1  C   UNK N   1      19.638  15.996   0.383  0.00  0.00     0.001 A 
HETATM    2  C   UNK N   1      19.693  14.800   1.102  0.00  0.00     0.001 A 
HETATM    3  C   UNK N   1      19.935  17.208   1.014  0.00  0.00     0.008 A 
HETATM    4  C   UNK N   1      20.049  14.814   2.451  0.00  0.00     0.010 A 
HETATM    5  C   UNK N   1      20.606  18.539   3.024  0.00  0.00     0.059 C 
HETATM    6  C   UNK N   1      21.611  18.336   4.148  0.00  0.00     0.131 C 
HETATM    7  C   UNK N   1      19.681  15.374   5.410  0.00  0.00     0.156 C 
HETATM    8  C   UNK N   1      20.536  16.564   7.396  0.00  0.00     0.228 C 
HETATM    9  C   UNK N   1      20.291  17.230   2.366  0.00  0.00    -0.048 A 
HETATM   10  C   UNK N   1      20.349  16.024   3.094  0.00  0.00    -0.027 A 
HETATM   11  C   UNK N   1      20.763  16.005   4.544  0.00  0.00     0.139 C 
HETATM   12  C   UNK N   1      21.053  17.598   6.412  0.00  0.00     0.238 C 
HETATM   13  C   UNK N   1      20.645  14.104   7.233  0.00  0.00     0.224 C 
HETATM   14  N   UNK N   1      20.245  15.311   6.731  0.00  0.00    -0.341 N 
HETATM   15  N   UNK N   1      21.117  17.326   5.066  0.00  0.00    -0.340 N 
HETATM   16  O   UNK N   1      21.390  18.692   6.837  0.00  0.00    -0.272 OA
HETATM   17  O   UNK N   1      20.431  13.082   6.598  0.00  0.00    -0.273 OA
ENDROOT
BRANCH  13  18
HETATM   18  C   UNK N   1      21.379  13.982   8.537  0.00  0.00     0.078 C 
HETATM   19  C   UNK N   1      22.794  13.426   8.547  0.00  0.00     0.014 C 
HETATM   20  C   UNK N   1      22.804  12.090   9.278  0.00  0.00     0.001 C 
HETATM   21  C   UNK N   1      22.188  12.235  10.671  0.00  0.00     0.000 C 
HETATM   22  C   UNK N   1      20.734  12.699  10.570  0.00  0.00     0.001 C 
HETATM   23  C   UNK N   1      20.647  14.056   9.872  0.00  0.00     0.014 C 
ENDBRANCH  13  18
TORSDOF 1
ENDMDL
MODEL 2
REMARK VINA RESULT:      -7.7     15.838     17.413
REMARK  1 active torsions:
REMARK  status: ('A' for Active; 'I' for Inactive)
REMARK    1  A    between atoms: C_19  and  C_15 
REMARK       I    between atoms: N_20  and  C_19 
ROOT
HETATM    1  C   UNK N   1      30.609  19.961  -6.547  0.00  0.00     0.001 A 
HETATM    2  C   UNK N   1      30.872  21.053  -5.717  0.00  0.00     0.001 A 
HETATM    3  C   UNK N   1      29.503  19.981  -7.403  0.00  0.00     0.008 A 
HETATM    4  C   UNK N   1      30.033  22.167  -5.745  0.00  0.00     0.010 A 
HETATM    5  C   UNK N   1      27.478  21.096  -8.359  0.00  0.00     0.059 C 
HETATM    6  C   UNK N   1      27.149  22.518  -8.791  0.00  0.00     0.131 C 
HETATM    7  C   UNK N   1      27.478  23.726  -5.253  0.00  0.00     0.156 C 
HETATM    8  C   UNK N   1      25.619  24.994  -6.267  0.00  0.00     0.228 C 
HETATM    9  C   UNK N   1      28.657  21.094  -7.434  0.00  0.00    -0.048 A 
HETATM   10  C   UNK N   1      28.921  22.198  -6.599  0.00  0.00    -0.027 A 
HETATM   11  C   UNK N   1      28.051  23.429  -6.631  0.00  0.00     0.139 C 
HETATM   12  C   UNK N   1      25.834  24.113  -7.485  0.00  0.00     0.238 C 
HETATM   13  C   UNK N   1      27.314  26.111  -4.865  0.00  0.00     0.224 C 
HETATM   14  N   UNK N   1      26.775  24.973  -5.397  0.00  0.00    -0.341 N 
HETATM   15  N   UNK N   1      26.973  23.354  -7.618  0.00  0.00    -0.340 N 
HETATM   16  O   UNK N   1      24.961  24.070  -8.337  0.00  0.00    -0.272 OA
HETATM   17  O   UNK N   1      28.331  26.044  -4.190  0.00  0.00    -0.273 OA
ENDROOT
BRANCH  13  18
HETATM   18  C   UNK N   1      26.718  27.468  -5.106  0.00  0.00     0.078 C 
HETATM   19  C   UNK N   1      27.330  28.375  -6.161  0.00  0.00     0.014 C 
HETATM   20  C   UNK N   1      27.943  29.593  -5.482  0.00  0.00     0.001 C 
HETATM   21  C   UNK N   1      26.910  30.290  -4.595  0.00  0.00     0.000 C 
HETATM   22  C   UNK N   1      26.418  29.343  -3.497  0.00  0.00     0.001 C 
HETATM   23  C   UNK N   1      25.760  28.106  -4.105  0.00  0.00     0.014 C 
ENDBRANCH  13  18
TORSDOF 1
ENDMDL
MODEL 3
REMARK VINA RESULT:      -7.5     15.105     17.004
REMARK  1 active torsions:
REMARK  status: ('A' for Active; 'I' for Inactive)
REMARK    1  A    between atoms: C_19  and  C_15 
REMARK       I    between atoms: N_20  and  C_19 
ROOT
HETATM    1  C   UNK N   1      29.677  19.613  -8.118  0.00  0.00     0.001 A 
HETATM    2  C   UNK N   1      28.881  20.716  -8.435  0.00  0.00     0.001 A 
HETATM    3  C   UNK N   1      30.367  19.571  -6.903  0.00  0.00     0.008 A 
HETATM    4  C   UNK N   1      28.770  21.776  -7.535  0.00  0.00     0.010 A 
HETATM    5  C   UNK N   1      31.008  20.567  -4.698  0.00  0.00     0.059 C 
HETATM    6  C   UNK N   1      30.261  21.341  -3.622  0.00  0.00     0.131 C 
HETATM    7  C   UNK N   1      29.714  24.207  -5.984  0.00  0.00     0.156 C 
HETATM    8  C   UNK N   1      30.124  25.189  -3.757  0.00  0.00     0.228 C 
HETATM    9  C   UNK N   1      30.262  20.631  -5.997  0.00  0.00    -0.048 A 
HETATM   10  C   UNK N   1      29.458  21.745  -6.313  0.00  0.00    -0.027 A 
HETATM   11  C   UNK N   1      29.293  22.891  -5.345  0.00  0.00     0.139 C 
HETATM   12  C   UNK N   1      30.372  23.762  -3.300  0.00  0.00     0.238 C 
HETATM   13  C   UNK N   1      28.327  26.038  -5.220  0.00  0.00     0.224 C 
HETATM   14  N   UNK N   1      29.399  25.216  -5.010  0.00  0.00    -0.341 N 
HETATM   15  N   UNK N   1      30.006  22.693  -4.082  0.00  0.00    -0.340 N 
HETATM   16  O   UNK N   1      30.931  23.580  -2.230  0.00  0.00    -0.272 OA
HETATM   17  O   UNK N   1      27.709  25.974  -6.272  0.00  0.00    -0.273 OA
ENDROOT
BRANCH  13  18
HETATM   18  C   UNK N   1      27.847  27.010  -4.180  0.00  0.00     0.078 C 
HETATM   19  C   UNK N   1      26.492  26.794  -3.527  0.00  0.00     0.014 C 
HETATM   20  C   UNK N   1      25.553  27.923  -3.934  0.00  0.00     0.001 C 
HETATM   21  C   UNK N   1      26.179  29.283  -3.619  0.00  0.00     0.000 C 
HETATM   22  C   UNK N   1      27.487  29.463  -4.393  0.00  0.00     0.001 C 
HETATM   23  C   UNK N   1      28.495  28.380  -4.012  0.00  0.00     0.014 C 
ENDBRANCH  13  18
TORSDOF 1
ENDMDL
MODEL 4
REMARK VINA RESULT:      -7.4     15.262     18.885
REMARK  1 active torsions:
REMARK  status: ('A' for Active; 'I' for Inactive)
REMARK    1  A    between atoms: C_19  and  C_15 
REMARK       I    between atoms: N_20  and  C_19 
ROOT
HETATM    1  C   UNK N   1      35.230  12.696  19.562  0.00  0.00     0.001 A 
HETATM    2  C   UNK N   1      35.096  13.695  18.596  0.00  0.00     0.001 A 
HETATM    3  C   UNK N   1      35.525  11.384  19.178  0.00  0.00     0.008 A 
HETATM    4  C   UNK N   1      35.262  13.385  17.246  0.00  0.00     0.010 A 
HETATM    5  C   UNK N   1      36.009   9.654  17.436  0.00  0.00     0.059 C 
HETATM    6  C   UNK N   1      36.830   9.634  16.155  0.00  0.00     0.131 C 
HETATM    7  C   UNK N   1      34.531  12.145  14.575  0.00  0.00     0.156 C 
HETATM    8  C   UNK N   1      35.189  10.565  12.796  0.00  0.00     0.228 C 
HETATM    9  C   UNK N   1      35.691  11.066  17.827  0.00  0.00    -0.048 A 
HETATM   10  C   UNK N   1      35.559  12.073  16.849  0.00  0.00    -0.027 A 
HETATM   11  C   UNK N   1      35.765  11.774  15.385  0.00  0.00     0.139 C 
HETATM   12  C   UNK N   1      35.912   9.807  13.896  0.00  0.00     0.238 C 
HETATM   13  C   UNK N   1      35.137  12.999  12.392  0.00  0.00     0.224 C 
HETATM   14  N   UNK N   1      34.900  11.924  13.203  0.00  0.00    -0.341 N 
HETATM   15  N   UNK N   1      36.140  10.384  15.122  0.00  0.00    -0.340 N 
HETATM   16  O   UNK N   1      36.267   8.659  13.678  0.00  0.00    -0.272 OA
HETATM   17  O   UNK N   1      34.938  14.130  12.809  0.00  0.00    -0.273 OA
ENDROOT
BRANCH  13  18
HETATM   18  C   UNK N   1      35.672  12.847  10.997  0.00  0.00     0.078 C 
HETATM   19  C   UNK N   1      37.150  13.088  10.735  0.00  0.00     0.014 C 
HETATM   20  C   UNK N   1      37.310  14.322   9.856  0.00  0.00     0.001 C 
HETATM   21  C   UNK N   1      36.472  14.187   8.583  0.00  0.00     0.000 C 
HETATM   22  C   UNK N   1      34.988  14.050   8.929  0.00  0.00     0.001 C 
HETATM   23  C   UNK N   1      34.744  12.811   9.788  0.00  0.00     0.014 C 
ENDBRANCH  13  18
TORSDOF 1
ENDMDL
MODEL 5
REMARK VINA RESULT:      -6.8     11.779     14.750
REMARK  1 active torsions:
REMARK  status: ('A' for Active; 'I' for Inactive)
REMARK    1  A    between atoms: C_19  and  C_15 
REMARK       I    between atoms: N_20  and  C_19 
ROOT
HETATM    1  C   UNK N   1      35.674  10.458  11.418  0.00  0.00     0.001 A 
HETATM    2  C   UNK N   1      34.605  10.492  10.520  0.00  0.00     0.001 A 
HETATM    3  C   UNK N   1      36.303  11.645  11.807  0.00  0.00     0.008 A 
HETATM    4  C   UNK N   1      34.160  11.714  10.014  0.00  0.00     0.010 A 
HETATM    5  C   UNK N   1      36.549  14.134  11.732  0.00  0.00     0.059 C 
HETATM    6  C   UNK N   1      35.572  15.300  11.708  0.00  0.00     0.131 C 
HETATM    7  C   UNK N   1      34.305  14.238   8.338  0.00  0.00     0.156 C 
HETATM    8  C   UNK N   1      34.333  16.707   8.342  0.00  0.00     0.228 C 
HETATM    9  C   UNK N   1      35.864  12.872  11.302  0.00  0.00    -0.048 A 
HETATM   10  C   UNK N   1      34.783  12.911  10.397  0.00  0.00    -0.027 A 
HETATM   11  C   UNK N   1      34.259  14.219   9.859  0.00  0.00     0.139 C 
HETATM   12  C   UNK N   1      34.967  16.583   9.716  0.00  0.00     0.238 C 
HETATM   13  C   UNK N   1      32.420  15.450   7.418  0.00  0.00     0.224 C 
HETATM   14  N   UNK N   1      33.676  15.475   7.958  0.00  0.00    -0.341 N 
HETATM   15  N   UNK N   1      34.954  15.390  10.398  0.00  0.00    -0.340 N 
HETATM   16  O   UNK N   1      35.516  17.562  10.197  0.00  0.00    -0.272 OA
HETATM   17  O   UNK N   1      31.886  14.379   7.174  0.00  0.00    -0.273 OA
ENDROOT
BRANCH  13  18
HETATM   18  C   UNK N   1      31.643  16.704   7.140  0.00  0.00     0.078 C 
HETATM   19  C   UNK N   1      30.774  17.301   8.235  0.00  0.00     0.014 C 
HETATM   20  C   UNK N   1      29.310  17.200   7.826  0.00  0.00     0.001 C 
HETATM   21  C   UNK N   1      29.092  17.834   6.451  0.00  0.00     0.000 C 
HETATM   22  C   UNK N   1      29.923  17.112   5.388  0.00  0.00     0.001 C 
HETATM   23  C   UNK N   1      31.413  17.199   5.717  0.00  0.00     0.014 C 
ENDBRANCH  13  18
TORSDOF 1
ENDMDL
MODEL 6
REMARK VINA RESULT:      -6.7     16.731     19.407
REMARK  1 active torsions:
REMARK  status: ('A' for Active; 'I' for Inactive)
REMARK    1  A    between atoms: C_19  and  C_15 
REMARK       I    between atoms: N_20  and  C_19 
ROOT
HETATM    1  C   UNK N   1      34.347   9.628  20.047  0.00  0.00     0.001 A 
HETATM    2  C   UNK N   1      34.337   8.879  18.869  0.00  0.00     0.001 A 
HETATM    3  C   UNK N   1      34.736  10.971  20.022  0.00  0.00     0.008 A 
HETATM    4  C   UNK N   1      34.712   9.473  17.664  0.00  0.00     0.010 A 
HETATM    5  C   UNK N   1      35.527  13.013  18.811  0.00  0.00     0.059 C 
HETATM    6  C   UNK N   1      35.196  13.650  17.470  0.00  0.00     0.131 C 
HETATM    7  C   UNK N   1      36.626  10.695  15.652  0.00  0.00     0.156 C 
HETATM    8  C   UNK N   1      37.216  12.695  14.331  0.00  0.00     0.228 C 
HETATM    9  C   UNK N   1      35.115  11.572  18.818  0.00  0.00    -0.048 A 
HETATM   10  C   UNK N   1      35.104  10.819  17.626  0.00  0.00    -0.027 A 
HETATM   11  C   UNK N   1      35.472  11.443  16.303  0.00  0.00     0.139 C 
HETATM   12  C   UNK N   1      36.577  13.486  15.459  0.00  0.00     0.238 C 
HETATM   13  C   UNK N   1      36.389  10.641  13.242  0.00  0.00     0.224 C 
HETATM   14  N   UNK N   1      36.795  11.310  14.363  0.00  0.00    -0.341 N 
HETATM   15  N   UNK N   1      35.789  12.869  16.401  0.00  0.00    -0.340 N 
HETATM   16  O   UNK N   1      36.800  14.685  15.531  0.00  0.00    -0.272 OA
HETATM   17  O   UNK N   1      35.980   9.493  13.335  0.00  0.00    -0.273 OA
ENDROOT
BRANCH  13  18
HETATM   18  C   UNK N   1      36.393  11.279  11.883  0.00  0.00     0.078 C 
HETATM   19  C   UNK N   1      37.675  11.290  11.068  0.00  0.00     0.014 C 
HETATM   20  C   UNK N   1      38.161  12.726  10.916  0.00  0.00     0.001 C 
HETATM   21  C   UNK N   1      37.054  13.609  10.336  0.00  0.00     0.000 C 
HETATM   22  C   UNK N   1      35.838  13.625  11.265  0.00  0.00     0.001 C 
HETATM   23  C   UNK N   1      35.274  12.216  11.441  0.00  0.00     0.014 C 
ENDBRANCH  13  18
TORSDOF 1
ENDMDL
MODEL 7
REMARK VINA RESULT:      -6.7     13.530     15.537
REMARK  1 active torsions:
REMARK  status: ('A' for Active; 'I' for Inactive)
REMARK    1  A    between atoms: C_19  and  C_15 
REMARK       I    between atoms: N_20  and  C_19 
ROOT
HETATM    1  C   UNK N   1      34.092  17.584   7.203  0.00  0.00     0.001 A 
HETATM    2  C   UNK N   1      34.561  17.916   8.476  0.00  0.00     0.001 A 
HETATM    3  C   UNK N   1      33.799  16.254   6.889  0.00  0.00     0.008 A 
HETATM    4  C   UNK N   1      34.731  16.920   9.437  0.00  0.00     0.010 A 
HETATM    5  C   UNK N   1      33.648  13.829   7.491  0.00  0.00     0.059 C 
HETATM    6  C   UNK N   1      33.195  13.066   8.726  0.00  0.00     0.131 C 
HETATM    7  C   UNK N   1      36.035  14.499  10.720  0.00  0.00     0.156 C 
HETATM    8  C   UNK N   1      35.738  12.168  11.478  0.00  0.00     0.228 C 
HETATM    9  C   UNK N   1      33.970  15.249   7.847  0.00  0.00    -0.048 A 
HETATM   10  C   UNK N   1      34.440  15.582   9.133  0.00  0.00    -0.027 A 
HETATM   11  C   UNK N   1      34.603  14.531  10.203  0.00  0.00     0.139 C 
HETATM   12  C   UNK N   1      34.689  12.068  10.385  0.00  0.00     0.238 C 
HETATM   13  C   UNK N   1      36.102  14.002  13.089  0.00  0.00     0.224 C 
HETATM   14  N   UNK N   1      36.023  13.551  11.801  0.00  0.00    -0.341 N 
HETATM   15  N   UNK N   1      34.194  13.193   9.771  0.00  0.00    -0.340 N 
HETATM   16  O   UNK N   1      34.308  10.959  10.041  0.00  0.00    -0.272 OA
HETATM   17  O   UNK N   1      36.279  15.192  13.306  0.00  0.00    -0.273 OA
ENDROOT
BRANCH  13  18
HETATM   18  C   UNK N   1      35.943  13.088  14.269  0.00  0.00     0.078 C 
HETATM   19  C   UNK N   1      37.127  12.256  14.733  0.00  0.00     0.014 C 
HETATM   20  C   UNK N   1      36.826  10.781  14.502  0.00  0.00     0.001 C 
HETATM   21  C   UNK N   1      35.503  10.392  15.164  0.00  0.00     0.000 C 
HETATM   22  C   UNK N   1      34.348  11.202  14.572  0.00  0.00     0.001 C 
HETATM   23  C   UNK N   1      34.566  12.697  14.794  0.00  0.00     0.014 C 
ENDBRANCH  13  18
TORSDOF 1
ENDMDL
MODEL 8
REMARK VINA RESULT:      -6.4     14.368     16.398
REMARK  1 active torsions:
REMARK  status: ('A' for Active; 'I' for Inactive)
REMARK    1  A    between atoms: C_19  and  C_15 
REMARK       I    between atoms: N_20  and  C_19 
ROOT
HETATM    1  C   UNK N   1      34.636  15.709   5.840  0.00  0.00     0.001 A 
HETATM    2  C   UNK N   1      34.056  15.941   7.089  0.00  0.00     0.001 A 
HETATM    3  C   UNK N   1      35.671  14.778   5.710  0.00  0.00     0.008 A 
HETATM    4  C   UNK N   1      34.506  15.240   8.208  0.00  0.00     0.010 A 
HETATM    5  C   UNK N   1      37.239  13.078   6.667  0.00  0.00     0.059 C 
HETATM    6  C   UNK N   1      37.105  11.968   7.697  0.00  0.00     0.131 C 
HETATM    7  C   UNK N   1      36.456  14.483  10.406  0.00  0.00     0.156 C 
HETATM    8  C   UNK N   1      37.818  12.689  11.414  0.00  0.00     0.228 C 
HETATM    9  C   UNK N   1      36.130  14.073   6.827  0.00  0.00    -0.048 A 
HETATM   10  C   UNK N   1      35.544  14.303   8.089  0.00  0.00    -0.027 A 
HETATM   11  C   UNK N   1      35.988  13.537   9.309  0.00  0.00     0.139 C 
HETATM   12  C   UNK N   1      37.873  12.102  10.015  0.00  0.00     0.238 C 
HETATM   13  C   UNK N   1      35.875  13.641  12.601  0.00  0.00     0.224 C 
HETATM   14  N   UNK N   1      36.734  13.641  11.538  0.00  0.00    -0.341 N 
HETATM   15  N   UNK N   1      37.026  12.543   9.027  0.00  0.00    -0.340 N 
HETATM   16  O   UNK N   1      38.707  11.243   9.774  0.00  0.00    -0.272 OA
HETATM   17  O   UNK N   1      34.937  14.424  12.623  0.00  0.00    -0.273 OA
ENDROOT
BRANCH  13  18
HETATM   18  C   UNK N   1      36.017  12.680  13.745  0.00  0.00     0.078 C 
HETATM   19  C   UNK N   1      35.127  11.449  13.801  0.00  0.00     0.014 C 
HETATM   20  C   UNK N   1      34.187  11.561  14.993  0.00  0.00     0.001 C 
HETATM   21  C   UNK N   1      34.978  11.808  16.280  0.00  0.00     0.000 C 
HETATM   22  C   UNK N   1      35.766  13.116  16.183  0.00  0.00     0.001 C 
HETATM   23  C   UNK N   1      36.757  13.066  15.021  0.00  0.00     0.014 C 
ENDBRANCH  13  18
TORSDOF 1
ENDMDL
MODEL 9
REMARK VINA RESULT:      -6.4      8.093      9.971
REMARK  1 active torsions:
REMARK  status: ('A' for Active; 'I' for Inactive)
REMARK    1  A    between atoms: C_19  and  C_15 
REMARK       I    between atoms: N_20  and  C_19 
ROOT
HETATM    1  C   UNK N   1      34.305  16.421   5.592  0.00  0.00     0.001 A 
HETATM    2  C   UNK N   1      33.358  15.961   4.674  0.00  0.00     0.001 A 
HETATM    3  C   UNK N   1      33.894  17.085   6.751  0.00  0.00     0.008 A 
HETATM    4  C   UNK N   1      31.999  16.160   4.918  0.00  0.00     0.010 A 
HETATM    5  C   UNK N   1      32.113  18.003   8.251  0.00  0.00     0.059 C 
HETATM    6  C   UNK N   1      30.746  17.513   8.702  0.00  0.00     0.131 C 
HETATM    7  C   UNK N   1      29.437  17.762   5.193  0.00  0.00     0.156 C 
HETATM    8  C   UNK N   1      27.599  18.453   6.688  0.00  0.00     0.228 C 
HETATM    9  C   UNK N   1      32.534  17.290   7.001  0.00  0.00    -0.048 A 
HETATM   10  C   UNK N   1      31.575  16.825   6.078  0.00  0.00    -0.027 A 
HETATM   11  C   UNK N   1      30.098  16.997   6.331  0.00  0.00     0.139 C 
HETATM   12  C   UNK N   1      28.608  18.299   7.812  0.00  0.00     0.238 C 
HETATM   13  C   UNK N   1      27.195  16.949   4.774  0.00  0.00     0.224 C 
HETATM   14  N   UNK N   1      28.031  17.751   5.499  0.00  0.00    -0.341 N 
HETATM   15  N   UNK N   1      29.798  17.640   7.611  0.00  0.00    -0.340 N 
HETATM   16  O   UNK N   1      28.355  18.797   8.898  0.00  0.00    -0.272 OA
HETATM   17  O   UNK N   1      27.628  16.326   3.817  0.00  0.00    -0.273 OA
ENDROOT
BRANCH  13  18
HETATM   18  C   UNK N   1      25.748  16.770   5.133  0.00  0.00     0.078 C 
HETATM   19  C   UNK N   1      25.346  15.648   6.076  0.00  0.00     0.014 C 
HETATM   20  C   UNK N   1      24.506  14.629   5.316  0.00  0.00     0.001 C 
HETATM   21  C   UNK N   1      23.321  15.313   4.631  0.00  0.00     0.000 C 
HETATM   22  C   UNK N   1      23.811  16.356   3.625  0.00  0.00     0.001 C 
HETATM   23  C   UNK N   1      24.639  17.434   4.324  0.00  0.00     0.014 C 
ENDBRANCH  13  18
TORSDOF 1
ENDMDL
