REMARK  4 active torsions:
REMARK  status: ('A' for Active; 'I' for Inactive)
REMARK    1  A    between atoms: C_3  and  C_4 
REMARK    2  A    between atoms: C_4  and  C_5 
REMARK    3  A    between atoms: C_4  and  N_8 
REMARK    4  A    between atoms: N_8  and  C_9 
ROOT
HETATM    1  N   UNK N   1       1.209  -1.026   0.279  0.00  0.00    -0.351 N 
HETATM    2  H   UNK N   1       0.502  -1.604   0.646  0.00  0.00     0.163 HD
ENDROOT
BRANCH   1   3
HETATM    3  C   UNK N   1       2.490  -1.635  -0.018  0.00  0.00     0.093 C 
BRANCH   3   4
HETATM    4  C   UNK N   1       2.462  -3.068   0.508  0.00  0.00     0.009 A 
HETATM    5  C   UNK N   1       1.604  -3.946  -0.379  0.00  0.00     0.007 A 
HETATM    6  C   UNK N   1       3.115  -4.006  -0.485  0.00  0.00     0.007 A 
ENDBRANCH   3   4
BRANCH   3   7
HETATM    7  C   UNK N   1       3.639  -0.879   0.651  0.00  0.00     0.009 A 
HETATM    8  C   UNK N   1       4.364  -0.037  -0.383  0.00  0.00     0.007 A 
HETATM    9  C   UNK N   1       4.977  -1.334   0.095  0.00  0.00     0.007 A 
ENDBRANCH   3   7
ENDBRANCH   1   3
BRANCH   1  10
HETATM   10  C   UNK N   1       0.902   0.344   0.077  0.00  0.00     0.215 A 
HETATM   11  N   UNK N   1      -0.273   0.799   0.216  0.00  0.00    -0.354 N 
HETATM   12  C   UNK N   1      -0.284   2.216  -0.014  0.00  0.00     0.150 A 
ATOM     13  HN  UNK N   1      -1.091   0.240   0.456  1.00  0.00     0.163 HD
HETATM   14  C   UNK N   1       1.204   2.515  -0.310  0.00  0.00     0.198 A 
HETATM   15  O   UNK N   1       1.804   1.276  -0.236  0.00  0.00    -0.321 OA
ENDBRANCH   1  10
TORSDOF 4
