MODEL 1
REMARK VINA RESULT:      -7.1      0.000      0.000
REMARK  3 active torsions:
REMARK  status: ('A' for Active; 'I' for Inactive)
REMARK    1  A    between atoms: N_10  and  C_11 
REMARK    2  A    between atoms: C_11  and  C_12 
REMARK    3  A    between atoms: C_12  and  C_13 
ROOT
HETATM    1  C   UNK N   1      31.675  22.677  -3.795  0.00  0.00     0.048 C 
HETATM    2  C   UNK N   1      30.326  23.093  -4.259  0.00  0.00    -0.061 A 
HETATM    3  C   UNK N   1      29.553  23.972  -3.464  0.00  0.00     0.009 A 
HETATM    4  C   UNK N   1      28.271  24.369  -3.879  0.00  0.00     0.031 A 
HETATM    5  C   UNK N   1      27.801  23.869  -5.094  0.00  0.00     0.045 A 
HETATM    6  C   UNK N   1      28.553  23.017  -5.867  0.00  0.00     0.001 A 
HETATM    7  C   UNK N   1      29.824  22.603  -5.481  0.00  0.00     0.021 A 
HETATM    8  C   UNK N   1      27.781  22.706  -6.968  0.00  0.00     0.005 A 
HETATM    9  C   UNK N   1      26.602  23.379  -6.819  0.00  0.00     0.022 A 
HETATM   10  N   UNK N   1      26.604  24.090  -5.669  0.00  0.00    -0.349 N 
HETATM   11  C   UNK N   1      25.505  23.226  -7.799  0.00  0.00     0.088 C 
HETATM   12  C   UNK N   1      25.461  21.730  -8.145  0.00  0.00     0.278 C 
HETATM   13  N   UNK N   1      26.757  21.172  -8.613  0.00  0.00     0.088 N 
HETATM   14  C   UNK N   1      28.015  21.786  -8.118  0.00  0.00     0.313 C 
HETATM   15  C   UNK N   1      26.773  21.211 -10.064  0.00  0.00     0.310 C 
ENDROOT
BRANCH  10  16
HETATM   16  C   UNK N   1      25.522  24.898  -5.142  0.00  0.00     0.134 C 
BRANCH  16  17
HETATM   17  C   UNK N   1      25.373  26.159  -5.975  0.00  0.00     0.060 C 
BRANCH  17  18
HETATM   18  C   UNK N   1      25.935  27.300  -5.213  0.00  0.00    -0.041 A 
HETATM   19  C   UNK N   1      26.800  28.208  -5.832  0.00  0.00     0.010 A 
HETATM   20  C   UNK N   1      27.278  29.303  -5.114  0.00  0.00     0.025 A 
HETATM   21  C   UNK N   1      26.877  29.477  -3.787  0.00  0.00     0.005 A 
HETATM   22  N   UNK N   1      26.040  28.578  -3.202  0.00  0.00    -0.369 N 
HETATM   23  C   UNK N   1      27.357  30.653  -3.017  0.00  0.00     0.068 C 
HETATM   24  C   UNK N   1      25.568  27.500  -3.883  0.00  0.00     0.095 A 
ATOM     25  HN  UNK N   1      25.761  28.715  -2.230  1.00  0.00     0.165 HD
ENDBRANCH  17  18
ENDBRANCH  16  17
ENDBRANCH  10  16
TORSDOF 3
ENDMDL
MODEL 2
REMARK VINA RESULT:      -7.0      1.108      3.957
REMARK  3 active torsions:
REMARK  status: ('A' for Active; 'I' for Inactive)
REMARK    1  A    between atoms: N_10  and  C_11 
REMARK    2  A    between atoms: C_11  and  C_12 
REMARK    3  A    between atoms: C_12  and  C_13 
ROOT
HETATM    1  C   UNK N   1      27.922  20.963 -10.072  0.00  0.00     0.048 C 
HETATM    2  C   UNK N   1      27.499  21.862  -8.968  0.00  0.00    -0.061 A 
HETATM    3  C   UNK N   1      26.295  22.595  -9.084  0.00  0.00     0.009 A 
HETATM    4  C   UNK N   1      25.882  23.459  -8.055  0.00  0.00     0.031 A 
HETATM    5  C   UNK N   1      26.698  23.558  -6.929  0.00  0.00     0.045 A 
HETATM    6  C   UNK N   1      27.868  22.844  -6.814  0.00  0.00     0.001 A 
HETATM    7  C   UNK N   1      28.304  21.984  -7.817  0.00  0.00     0.021 A 
HETATM    8  C   UNK N   1      28.424  23.199  -5.603  0.00  0.00     0.005 A 
HETATM    9  C   UNK N   1      27.576  24.106  -5.035  0.00  0.00     0.022 A 
HETATM   10  N   UNK N   1      26.517  24.336  -5.845  0.00  0.00    -0.349 N 
HETATM   11  C   UNK N   1      27.896  24.750  -3.743  0.00  0.00     0.088 C 
HETATM   12  C   UNK N   1      29.395  25.081  -3.803  0.00  0.00     0.278 C 
HETATM   13  N   UNK N   1      30.266  23.918  -4.120  0.00  0.00     0.088 N 
HETATM   14  C   UNK N   1      29.711  22.820  -4.951  0.00  0.00     0.313 C 
HETATM   15  C   UNK N   1      30.738  23.348  -2.871  0.00  0.00     0.310 C 
ENDROOT
BRANCH  10  16
HETATM   16  C   UNK N   1      25.426  25.261  -5.612  0.00  0.00     0.134 C 
BRANCH  16  17
HETATM   17  C   UNK N   1      25.634  26.515  -6.444  0.00  0.00     0.060 C 
BRANCH  17  18
HETATM   18  C   UNK N   1      26.047  27.618  -5.545  0.00  0.00    -0.041 A 
HETATM   19  C   UNK N   1      27.029  28.530  -5.947  0.00  0.00     0.010 A 
HETATM   20  C   UNK N   1      27.368  29.591  -5.108  0.00  0.00     0.025 A 
HETATM   21  C   UNK N   1      26.714  29.727  -3.882  0.00  0.00     0.005 A 
HETATM   22  N   UNK N   1      25.768  28.825  -3.506  0.00  0.00    -0.369 N 
HETATM   23  C   UNK N   1      27.047  30.867  -2.989  0.00  0.00     0.068 C 
HETATM   24  C   UNK N   1      25.426  27.780  -4.306  0.00  0.00     0.095 A 
ATOM     25  HN  UNK N   1      25.304  28.935  -2.604  1.00  0.00     0.165 HD
ENDBRANCH  17  18
ENDBRANCH  16  17
ENDBRANCH  10  16
TORSDOF 3
ENDMDL
MODEL 3
REMARK VINA RESULT:      -6.9     22.420     25.791
REMARK  3 active torsions:
REMARK  status: ('A' for Active; 'I' for Inactive)
REMARK    1  A    between atoms: N_10  and  C_11 
REMARK    2  A    between atoms: C_11  and  C_12 
REMARK    3  A    between atoms: C_12  and  C_13 
ROOT
HETATM    1  C   UNK N   1      38.450   7.958  12.268  0.00  0.00     0.048 C 
HETATM    2  C   UNK N   1      38.031   9.281  12.798  0.00  0.00    -0.061 A 
HETATM    3  C   UNK N   1      38.031   9.508  14.195  0.00  0.00     0.009 A 
HETATM    4  C   UNK N   1      37.629  10.749  14.717  0.00  0.00     0.031 A 
HETATM    5  C   UNK N   1      37.237  11.735  13.812  0.00  0.00     0.045 A 
HETATM    6  C   UNK N   1      37.239  11.515  12.454  0.00  0.00     0.001 A 
HETATM    7  C   UNK N   1      37.629  10.297  11.908  0.00  0.00     0.021 A 
HETATM    8  C   UNK N   1      36.777  12.677  11.871  0.00  0.00     0.005 A 
HETATM    9  C   UNK N   1      36.517  13.548  12.891  0.00  0.00     0.022 A 
HETATM   10  N   UNK N   1      36.792  12.975  14.084  0.00  0.00    -0.349 N 
HETATM   11  C   UNK N   1      35.944  14.886  12.627  0.00  0.00     0.088 C 
HETATM   12  C   UNK N   1      34.872  14.674  11.548  0.00  0.00     0.278 C 
HETATM   13  N   UNK N   1      35.363  13.987  10.325  0.00  0.00     0.088 N 
HETATM   14  C   UNK N   1      36.492  13.031  10.450  0.00  0.00     0.313 C 
HETATM   15  C   UNK N   1      35.730  14.998   9.350  0.00  0.00     0.310 C 
ENDROOT
BRANCH  10  16
HETATM   16  C   UNK N   1      36.607  13.563  15.396  0.00  0.00     0.134 C 
BRANCH  16  17
HETATM   17  C   UNK N   1      35.182  13.328  15.865  0.00  0.00     0.060 C 
BRANCH  17  18
HETATM   18  C   UNK N   1      35.221  12.584  17.147  0.00  0.00    -0.041 A 
HETATM   19  C   UNK N   1      35.234  13.269  18.365  0.00  0.00     0.010 A 
HETATM   20  C   UNK N   1      35.219  12.552  19.560  0.00  0.00     0.025 A 
HETATM   21  C   UNK N   1      35.185  11.156  19.517  0.00  0.00     0.005 A 
HETATM   22  N   UNK N   1      35.181  10.508  18.321  0.00  0.00    -0.369 N 
HETATM   23  C   UNK N   1      35.143  10.378  20.781  0.00  0.00     0.068 C 
HETATM   24  C   UNK N   1      35.201  11.188  17.144  0.00  0.00     0.095 A 
ATOM     25  HN  UNK N   1      35.162   9.488  18.306  1.00  0.00     0.165 HD
ENDBRANCH  17  18
ENDBRANCH  16  17
ENDBRANCH  10  16
TORSDOF 3
ENDMDL
MODEL 4
REMARK VINA RESULT:      -6.8     15.647     17.056
REMARK  3 active torsions:
REMARK  status: ('A' for Active; 'I' for Inactive)
REMARK    1  A    between atoms: N_10  and  C_11 
REMARK    2  A    between atoms: C_11  and  C_12 
REMARK    3  A    between atoms: C_12  and  C_13 
ROOT
HETATM    1  C   UNK N   1      23.082  11.532  11.060  0.00  0.00     0.048 C 
HETATM    2  C   UNK N   1      22.915  12.548   9.989  0.00  0.00    -0.061 A 
HETATM    3  C   UNK N   1      23.929  12.714   9.016  0.00  0.00     0.009 A 
HETATM    4  C   UNK N   1      23.795  13.676   8.001  0.00  0.00     0.031 A 
HETATM    5  C   UNK N   1      22.633  14.448   7.992  0.00  0.00     0.045 A 
HETATM    6  C   UNK N   1      21.646  14.285   8.936  0.00  0.00     0.001 A 
HETATM    7  C   UNK N   1      21.752  13.344   9.954  0.00  0.00     0.021 A 
HETATM    8  C   UNK N   1      20.671  15.216   8.644  0.00  0.00     0.005 A 
HETATM    9  C   UNK N   1      21.102  15.899   7.542  0.00  0.00     0.022 A 
HETATM   10  N   UNK N   1      22.307  15.438   7.140  0.00  0.00    -0.349 N 
HETATM   11  C   UNK N   1      20.320  17.024   6.985  0.00  0.00     0.088 C 
HETATM   12  C   UNK N   1      19.817  17.823   8.197  0.00  0.00     0.278 C 
HETATM   13  N   UNK N   1      19.067  17.014   9.194  0.00  0.00     0.088 N 
HETATM   14  C   UNK N   1      19.399  15.574   9.336  0.00  0.00     0.313 C 
HETATM   15  C   UNK N   1      17.650  17.127   8.899  0.00  0.00     0.310 C 
ENDROOT
BRANCH  10  16
HETATM   16  C   UNK N   1      23.106  15.933   6.037  0.00  0.00     0.134 C 
BRANCH  16  17
HETATM   17  C   UNK N   1      22.462  15.535   4.720  0.00  0.00     0.060 C 
BRANCH  17  18
HETATM   18  C   UNK N   1      22.024  16.763   4.015  0.00  0.00    -0.041 A 
HETATM   19  C   UNK N   1      20.884  16.748   3.207  0.00  0.00     0.010 A 
HETATM   20  C   UNK N   1      20.458  17.925   2.592  0.00  0.00     0.025 A 
HETATM   21  C   UNK N   1      21.179  19.103   2.803  0.00  0.00     0.005 A 
HETATM   22  N   UNK N   1      22.291  19.095   3.587  0.00  0.00    -0.369 N 
HETATM   23  C   UNK N   1      20.724  20.370   2.176  0.00  0.00     0.068 C 
HETATM   24  C   UNK N   1      22.726  17.956   4.190  0.00  0.00     0.095 A 
ATOM     25  HN  UNK N   1      22.810  19.961   3.726  1.00  0.00     0.165 HD
ENDBRANCH  17  18
ENDBRANCH  16  17
ENDBRANCH  10  16
TORSDOF 3
ENDMDL
MODEL 5
REMARK VINA RESULT:      -6.6      2.186      6.966
REMARK  3 active torsions:
REMARK  status: ('A' for Active; 'I' for Inactive)
REMARK    1  A    between atoms: N_10  and  C_11 
REMARK    2  A    between atoms: C_11  and  C_12 
REMARK    3  A    between atoms: C_12  and  C_13 
ROOT
HETATM    1  C   UNK N   1      29.527  28.139 -10.476  0.00  0.00     0.048 C 
HETATM    2  C   UNK N   1      28.668  27.834  -9.304  0.00  0.00    -0.061 A 
HETATM    3  C   UNK N   1      27.734  26.774  -9.376  0.00  0.00     0.009 A 
HETATM    4  C   UNK N   1      26.905  26.476  -8.282  0.00  0.00     0.031 A 
HETATM    5  C   UNK N   1      27.042  27.257  -7.135  0.00  0.00     0.045 A 
HETATM    6  C   UNK N   1      27.952  28.287  -7.063  0.00  0.00     0.001 A 
HETATM    7  C   UNK N   1      28.783  28.608  -8.131  0.00  0.00     0.021 A 
HETATM    8  C   UNK N   1      27.801  28.853  -5.814  0.00  0.00     0.005 A 
HETATM    9  C   UNK N   1      26.816  28.148  -5.183  0.00  0.00     0.022 A 
HETATM   10  N   UNK N   1      26.342  27.172  -5.989  0.00  0.00    -0.349 N 
HETATM   11  C   UNK N   1      26.350  28.526  -3.831  0.00  0.00     0.088 C 
HETATM   12  C   UNK N   1      26.273  30.061  -3.832  0.00  0.00     0.278 C 
HETATM   13  N   UNK N   1      27.534  30.736  -4.235  0.00  0.00     0.088 N 
HETATM   14  C   UNK N   1      28.447  30.035  -5.174  0.00  0.00     0.313 C 
HETATM   15  C   UNK N   1      28.282  31.062  -3.035  0.00  0.00     0.310 C 
ENDROOT
BRANCH  10  16
HETATM   16  C   UNK N   1      25.268  26.243  -5.694  0.00  0.00     0.134 C 
BRANCH  16  17
HETATM   17  C   UNK N   1      25.770  25.168  -4.745  0.00  0.00     0.060 C 
BRANCH  17  18
HETATM   18  C   UNK N   1      26.558  24.181  -5.520  0.00  0.00    -0.041 A 
HETATM   19  C   UNK N   1      27.936  24.056  -5.315  0.00  0.00     0.010 A 
HETATM   20  C   UNK N   1      28.652  23.087  -6.016  0.00  0.00     0.025 A 
HETATM   21  C   UNK N   1      27.976  22.252  -6.908  0.00  0.00     0.005 A 
HETATM   22  N   UNK N   1      26.637  22.394  -7.099  0.00  0.00    -0.369 N 
HETATM   23  C   UNK N   1      28.721  21.198  -7.644  0.00  0.00     0.068 C 
HETATM   24  C   UNK N   1      25.921  23.337  -6.430  0.00  0.00     0.095 A 
ATOM     25  HN  UNK N   1      26.159  21.781  -7.759  1.00  0.00     0.165 HD
ENDBRANCH  17  18
ENDBRANCH  16  17
ENDBRANCH  10  16
TORSDOF 3
ENDMDL
MODEL 6
REMARK VINA RESULT:      -6.5     11.748     14.404
REMARK  3 active torsions:
REMARK  status: ('A' for Active; 'I' for Inactive)
REMARK    1  A    between atoms: N_10  and  C_11 
REMARK    2  A    between atoms: C_11  and  C_12 
REMARK    3  A    between atoms: C_12  and  C_13 
ROOT
HETATM    1  C   UNK N   1      24.287  20.731   3.062  0.00  0.00     0.048 C 
HETATM    2  C   UNK N   1      25.440  19.910   3.514  0.00  0.00    -0.061 A 
HETATM    3  C   UNK N   1      26.461  20.504   4.293  0.00  0.00     0.009 A 
HETATM    4  C   UNK N   1      27.564  19.747   4.722  0.00  0.00     0.031 A 
HETATM    5  C   UNK N   1      27.607  18.402   4.356  0.00  0.00     0.045 A 
HETATM    6  C   UNK N   1      26.613  17.824   3.601  0.00  0.00     0.001 A 
HETATM    7  C   UNK N   1      25.511  18.548   3.159  0.00  0.00     0.021 A 
HETATM    8  C   UNK N   1      26.987  16.510   3.407  0.00  0.00     0.005 A 
HETATM    9  C   UNK N   1      28.181  16.345   4.048  0.00  0.00     0.022 A 
HETATM   10  N   UNK N   1      28.571  17.503   4.628  0.00  0.00    -0.349 N 
HETATM   11  C   UNK N   1      28.908  15.058   3.995  0.00  0.00     0.088 C 
HETATM   12  C   UNK N   1      28.776  14.566   2.546  0.00  0.00     0.278 C 
HETATM   13  N   UNK N   1      27.375  14.478   2.055  0.00  0.00     0.088 N 
HETATM   14  C   UNK N   1      26.363  15.405   2.622  0.00  0.00     0.313 C 
HETATM   15  C   UNK N   1      26.907  13.118   2.254  0.00  0.00     0.310 C 
ENDROOT
BRANCH  10  16
HETATM   16  C   UNK N   1      29.798  17.740   5.362  0.00  0.00     0.134 C 
BRANCH  16  17
HETATM   17  C   UNK N   1      29.562  17.497   6.843  0.00  0.00     0.060 C 
BRANCH  17  18
HETATM   18  C   UNK N   1      30.803  16.944   7.436  0.00  0.00    -0.041 A 
HETATM   19  C   UNK N   1      31.373  15.774   6.926  0.00  0.00     0.010 A 
HETATM   20  C   UNK N   1      32.568  15.297   7.464  0.00  0.00     0.025 A 
HETATM   21  C   UNK N   1      33.178  16.005   8.502  0.00  0.00     0.005 A 
HETATM   22  N   UNK N   1      32.603  17.137   8.990  0.00  0.00    -0.369 N 
HETATM   23  C   UNK N   1      34.464  15.524   9.069  0.00  0.00     0.068 C 
HETATM   24  C   UNK N   1      31.435  17.615   8.484  0.00  0.00     0.095 A 
ATOM     25  HN  UNK N   1      33.057  17.639   9.753  1.00  0.00     0.165 HD
ENDBRANCH  17  18
ENDBRANCH  16  17
ENDBRANCH  10  16
TORSDOF 3
ENDMDL
MODEL 7
REMARK VINA RESULT:      -6.5      2.690      6.786
REMARK  3 active torsions:
REMARK  status: ('A' for Active; 'I' for Inactive)
REMARK    1  A    between atoms: N_10  and  C_11 
REMARK    2  A    between atoms: C_11  and  C_12 
REMARK    3  A    between atoms: C_12  and  C_13 
ROOT
HETATM    1  C   UNK N   1      29.682  19.426  -9.407  0.00  0.00     0.048 C 
HETATM    2  C   UNK N   1      29.627  20.237  -8.163  0.00  0.00    -0.061 A 
HETATM    3  C   UNK N   1      30.445  19.888  -7.063  0.00  0.00     0.009 A 
HETATM    4  C   UNK N   1      30.401  20.636  -5.874  0.00  0.00     0.031 A 
HETATM    5  C   UNK N   1      29.531  21.724  -5.827  0.00  0.00     0.045 A 
HETATM    6  C   UNK N   1      28.737  22.065  -6.897  0.00  0.00     0.001 A 
HETATM    7  C   UNK N   1      28.756  21.342  -8.085  0.00  0.00     0.021 A 
HETATM    8  C   UNK N   1      27.995  23.158  -6.499  0.00  0.00     0.005 A 
HETATM    9  C   UNK N   1      28.367  23.435  -5.214  0.00  0.00     0.022 A 
HETATM   10  N   UNK N   1      29.304  22.556  -4.793  0.00  0.00    -0.349 N 
HETATM   11  C   UNK N   1      27.721  24.521  -4.447  0.00  0.00     0.088 C 
HETATM   12  C   UNK N   1      26.223  24.429  -4.777  0.00  0.00     0.278 C 
HETATM   13  N   UNK N   1      25.914  24.463  -6.230  0.00  0.00     0.088 N 
HETATM   14  C   UNK N   1      26.920  23.933  -7.185  0.00  0.00     0.313 C 
HETATM   15  C   UNK N   1      25.615  25.835  -6.601  0.00  0.00     0.310 C 
ENDROOT
BRANCH  10  16
HETATM   16  C   UNK N   1      29.916  22.497  -3.480  0.00  0.00     0.134 C 
BRANCH  16  17
HETATM   17  C   UNK N   1      31.131  23.408  -3.441  0.00  0.00     0.060 C 
BRANCH  17  18
HETATM   18  C   UNK N   1      32.340  22.599  -3.730  0.00  0.00    -0.041 A 
HETATM   19  C   UNK N   1      32.648  21.482  -2.949  0.00  0.00     0.010 A 
HETATM   20  C   UNK N   1      33.761  20.704  -3.267  0.00  0.00     0.025 A 
HETATM   21  C   UNK N   1      34.546  21.055  -4.368  0.00  0.00     0.005 A 
HETATM   22  N   UNK N   1      34.233  22.151  -5.110  0.00  0.00    -0.369 N 
HETATM   23  C   UNK N   1      35.719  20.222  -4.735  0.00  0.00     0.068 C 
HETATM   24  C   UNK N   1      33.155  22.926  -4.814  0.00  0.00     0.095 A 
ATOM     25  HN  UNK N   1      34.819  22.398  -5.907  1.00  0.00     0.165 HD
ENDBRANCH  17  18
ENDBRANCH  16  17
ENDBRANCH  10  16
TORSDOF 3
ENDMDL
MODEL 8
REMARK VINA RESULT:      -6.4     15.373     16.635
REMARK  3 active torsions:
REMARK  status: ('A' for Active; 'I' for Inactive)
REMARK    1  A    between atoms: N_10  and  C_11 
REMARK    2  A    between atoms: C_11  and  C_12 
REMARK    3  A    between atoms: C_12  and  C_13 
ROOT
HETATM    1  C   UNK N   1      22.645  12.069  11.778  0.00  0.00     0.048 C 
HETATM    2  C   UNK N   1      22.408  12.761  10.485  0.00  0.00    -0.061 A 
HETATM    3  C   UNK N   1      21.093  13.139  10.123  0.00  0.00     0.009 A 
HETATM    4  C   UNK N   1      20.847  13.785   8.900  0.00  0.00     0.031 A 
HETATM    5  C   UNK N   1      21.940  14.039   8.071  0.00  0.00     0.045 A 
HETATM    6  C   UNK N   1      23.218  13.674   8.424  0.00  0.00     0.001 A 
HETATM    7  C   UNK N   1      23.493  13.030   9.625  0.00  0.00     0.021 A 
HETATM    8  C   UNK N   1      24.033  14.049   7.375  0.00  0.00     0.005 A 
HETATM    9  C   UNK N   1      23.222  14.622   6.437  0.00  0.00     0.022 A 
HETATM   10  N   UNK N   1      21.936  14.615   6.854  0.00  0.00    -0.349 N 
HETATM   11  C   UNK N   1      23.762  15.090   5.142  0.00  0.00     0.088 C 
HETATM   12  C   UNK N   1      24.759  14.011   4.693  0.00  0.00     0.278 C 
HETATM   13  N   UNK N   1      25.811  13.695   5.695  0.00  0.00     0.088 N 
HETATM   14  C   UNK N   1      25.493  13.863   7.136  0.00  0.00     0.313 C 
HETATM   15  C   UNK N   1      26.984  14.495   5.393  0.00  0.00     0.310 C 
ENDROOT
BRANCH  10  16
HETATM   16  C   UNK N   1      20.780  15.095   6.124  0.00  0.00     0.134 C 
BRANCH  16  17
HETATM   17  C   UNK N   1      20.538  16.557   6.456  0.00  0.00     0.060 C 
BRANCH  17  18
HETATM   18  C   UNK N   1      20.626  17.349   5.205  0.00  0.00    -0.041 A 
HETATM   19  C   UNK N   1      19.959  16.928   4.051  0.00  0.00     0.010 A 
HETATM   20  C   UNK N   1      20.012  17.712   2.899  0.00  0.00     0.025 A 
HETATM   21  C   UNK N   1      20.728  18.911   2.923  0.00  0.00     0.005 A 
HETATM   22  N   UNK N   1      21.377  19.299   4.054  0.00  0.00    -0.369 N 
HETATM   23  C   UNK N   1      20.773  19.770   1.712  0.00  0.00     0.068 C 
HETATM   24  C   UNK N   1      21.343  18.546   5.186  0.00  0.00     0.095 A 
ATOM     25  HN  UNK N   1      21.901  20.174   4.054  1.00  0.00     0.165 HD
ENDBRANCH  17  18
ENDBRANCH  16  17
ENDBRANCH  10  16
TORSDOF 3
ENDMDL
MODEL 9
REMARK VINA RESULT:      -6.4     18.895     22.426
REMARK  3 active torsions:
REMARK  status: ('A' for Active; 'I' for Inactive)
REMARK    1  A    between atoms: N_10  and  C_11 
REMARK    2  A    between atoms: C_11  and  C_12 
REMARK    3  A    between atoms: C_12  and  C_13 
ROOT
HETATM    1  C   UNK N   1      33.215   8.574  10.833  0.00  0.00     0.048 C 
HETATM    2  C   UNK N   1      33.900   9.876  11.037  0.00  0.00    -0.061 A 
HETATM    3  C   UNK N   1      34.394  10.591   9.920  0.00  0.00     0.009 A 
HETATM    4  C   UNK N   1      35.053  11.819  10.093  0.00  0.00     0.031 A 
HETATM    5  C   UNK N   1      35.195  12.299  11.395  0.00  0.00     0.045 A 
HETATM    6  C   UNK N   1      34.713  11.606  12.481  0.00  0.00     0.001 A 
HETATM    7  C   UNK N   1      34.059  10.386  12.341  0.00  0.00     0.021 A 
HETATM    8  C   UNK N   1      35.046  12.348  13.595  0.00  0.00     0.005 A 
HETATM    9  C   UNK N   1      35.710  13.453  13.144  0.00  0.00     0.022 A 
HETATM   10  N   UNK N   1      35.810  13.427  11.796  0.00  0.00    -0.349 N 
HETATM   11  C   UNK N   1      36.270  14.447  14.085  0.00  0.00     0.088 C 
HETATM   12  C   UNK N   1      36.889  13.632  15.231  0.00  0.00     0.278 C 
HETATM   13  N   UNK N   1      35.955  12.669  15.871  0.00  0.00     0.088 N 
HETATM   14  C   UNK N   1      34.860  12.090  15.053  0.00  0.00     0.313 C 
HETATM   15  C   UNK N   1      35.365  13.309  17.032  0.00  0.00     0.310 C 
ENDROOT
BRANCH  10  16
HETATM   16  C   UNK N   1      36.479  14.399  10.953  0.00  0.00     0.134 C 
BRANCH  16  17
HETATM   17  C   UNK N   1      35.746  15.728  11.026  0.00  0.00     0.060 C 
BRANCH  17  18
HETATM   18  C   UNK N   1      35.214  16.050   9.680  0.00  0.00    -0.041 A 
HETATM   19  C   UNK N   1      34.621  17.292   9.431  0.00  0.00     0.010 A 
HETATM   20  C   UNK N   1      34.173  17.597   8.146  0.00  0.00     0.025 A 
HETATM   21  C   UNK N   1      34.332  16.655   7.127  0.00  0.00     0.005 A 
HETATM   22  N   UNK N   1      34.905  15.450   7.392  0.00  0.00    -0.369 N 
HETATM   23  C   UNK N   1      33.884  16.975   5.748  0.00  0.00     0.068 C 
HETATM   24  C   UNK N   1      35.343  15.130   8.639  0.00  0.00     0.095 A 
ATOM     25  HN  UNK N   1      35.009  14.770   6.639  1.00  0.00     0.165 HD
ENDBRANCH  17  18
ENDBRANCH  16  17
ENDBRANCH  10  16
TORSDOF 3
ENDMDL
