MODEL 1
REMARK VINA RESULT:      -7.7      0.000      0.000
REMARK  7 active torsions:
REMARK  status: ('A' for Active; 'I' for Inactive)
REMARK    1  A    between atoms: C_12  and  C_9 
REMARK    2  A    between atoms: C_16  and  C_9 
REMARK    3  A    between atoms: C_18  and  C_11 
REMARK    4  A    between atoms: C_19  and  C_16 
REMARK    5  A    between atoms: N_23  and  C_16 
REMARK    6  A    between atoms: O_24  and  C_17 
REMARK       I    between atoms: N_23  and  C_18 
REMARK    7  A    between atoms: O_27  and  C_19 
ROOT
HETATM    1  C   UNK N   1      28.908  18.188   7.480  0.00  0.00     0.186 C 
ENDROOT
BRANCH   1   2
HETATM    2  C   UNK N   1      29.642  16.866   7.266  0.00  0.00     0.075 C 
BRANCH   2   3
HETATM    3  C   UNK N   1      31.057  17.121   6.872  0.00  0.00    -0.039 A 
HETATM    4  C   UNK N   1      31.944  17.544   7.858  0.00  0.00     0.064 A 
HETATM    5  C   UNK N   1      33.261  17.849   7.522  0.00  0.00     0.140 A 
HETATM    6  N   UNK N   1      33.684  17.728   6.235  0.00  0.00    -0.336 N 
HETATM    7  C   UNK N   1      32.850  17.310   5.248  0.00  0.00     0.044 A 
ATOM      8  HN  UNK N   1      34.651  17.957   6.005  1.00  0.00     0.168 HD
HETATM    9  C   UNK N   1      33.321  17.200   3.935  0.00  0.00     0.030 A 
HETATM   10  C   UNK N   1      31.503  16.995   5.542  0.00  0.00    -0.003 A 
HETATM   11  C   UNK N   1      32.464  16.775   2.916  0.00  0.00     0.002 A 
HETATM   12  C   UNK N   1      31.132  16.459   3.203  0.00  0.00     0.001 A 
HETATM   13  C   UNK N   1      30.650  16.570   4.511  0.00  0.00     0.014 A 
BRANCH   5  14
HETATM   14  O   UNK N   1      34.106  18.273   8.472  0.00  0.00    -0.346 OA
HETATM   15  H   UNK N   1      34.754  17.714   8.857  0.00  0.00     0.219 HD
ENDBRANCH   5  14
ENDBRANCH   2   3
ENDBRANCH   1   2
BRANCH   1  16
HETATM   16  C   UNK N   1      28.541  18.424   8.928  0.00  0.00     0.163 C 
HETATM   17  O   UNK N   1      29.374  18.812   9.733  0.00  0.00    -0.648 OA
BRANCH  16  18
HETATM   18  O   UNK N   1      27.258  18.299   9.313  0.00  0.00    -0.775 OA
HETATM   19  H   UNK N   1      26.374  18.544   9.123  0.00  0.00     0.167 HD
ENDBRANCH  16  18
ENDBRANCH   1  16
BRANCH   1  20
HETATM   20  N   UNK N   1      27.801  18.291   6.547  0.00  0.00    -0.342 N 
HETATM   21  C   UNK N   1      27.835  18.926   5.345  0.00  0.00     0.252 C 
HETATM   22  O   UNK N   1      28.889  19.344   4.887  0.00  0.00    -0.268 OA
HETATM   23  H   UNK N   1      26.953  17.864   6.806  0.00  0.00     0.163 HD
BRANCH  21  24
HETATM   24  C   UNK N   1      26.574  19.198   4.631  0.00  0.00     0.032 A 
HETATM   25  C   UNK N   1      26.514  20.205   3.656  0.00  0.00     0.018 A 
HETATM   26  C   UNK N   1      25.296  20.536   3.060  0.00  0.00     0.025 A 
HETATM   27  C   UNK N   1      24.127  19.872   3.444  0.00  0.00     0.034 A 
HETATM   28  C   UNK N   1      24.180  18.861   4.408  0.00  0.00     0.025 A 
HETATM   29 Cl   UNK N   1      22.592  20.324   2.739  0.00  0.00    -0.084 Cl
HETATM   30  C   UNK N   1      25.400  18.524   4.999  0.00  0.00     0.018 A 
ENDBRANCH  21  24
ENDBRANCH   1  20
TORSDOF 7
ENDMDL
MODEL 2
REMARK VINA RESULT:      -7.7      8.910     11.016
REMARK  7 active torsions:
REMARK  status: ('A' for Active; 'I' for Inactive)
REMARK    1  A    between atoms: C_12  and  C_9 
REMARK    2  A    between atoms: C_16  and  C_9 
REMARK    3  A    between atoms: C_18  and  C_11 
REMARK    4  A    between atoms: C_19  and  C_16 
REMARK    5  A    between atoms: N_23  and  C_16 
REMARK    6  A    between atoms: O_24  and  C_17 
REMARK       I    between atoms: N_23  and  C_18 
REMARK    7  A    between atoms: O_27  and  C_19 
ROOT
HETATM    1  C   UNK N   1      20.785  16.499   7.179  0.00  0.00     0.186 C 
ENDROOT
BRANCH   1   2
HETATM    2  C   UNK N   1      21.725  16.763   6.004  0.00  0.00     0.075 C 
BRANCH   2   3
HETATM    3  C   UNK N   1      20.967  16.724   4.720  0.00  0.00    -0.039 A 
HETATM    4  C   UNK N   1      20.263  15.564   4.411  0.00  0.00     0.064 A 
HETATM    5  C   UNK N   1      19.589  15.464   3.197  0.00  0.00     0.140 A 
HETATM    6  N   UNK N   1      19.611  16.500   2.315  0.00  0.00    -0.336 N 
HETATM    7  C   UNK N   1      20.280  17.650   2.586  0.00  0.00     0.044 A 
ATOM      8  HN  UNK N   1      19.113  16.409   1.429  1.00  0.00     0.168 HD
HETATM    9  C   UNK N   1      20.281  18.693   1.653  0.00  0.00     0.030 A 
HETATM   10  C   UNK N   1      20.982  17.794   3.804  0.00  0.00    -0.003 A 
HETATM   11  C   UNK N   1      20.972  19.877   1.925  0.00  0.00     0.002 A 
HETATM   12  C   UNK N   1      21.666  20.025   3.131  0.00  0.00     0.001 A 
HETATM   13  C   UNK N   1      21.674  18.986   4.068  0.00  0.00     0.014 A 
BRANCH   5  14
HETATM   14  O   UNK N   1      18.927  14.337   2.896  0.00  0.00    -0.346 OA
HETATM   15  H   UNK N   1      18.266  14.303   2.232  0.00  0.00     0.219 HD
ENDBRANCH   5  14
ENDBRANCH   2   3
ENDBRANCH   1   2
BRANCH   1  16
HETATM   16  C   UNK N   1      20.298  17.772   7.833  0.00  0.00     0.163 C 
HETATM   17  O   UNK N   1      20.764  18.858   7.524  0.00  0.00    -0.648 OA
BRANCH  16  18
HETATM   18  O   UNK N   1      19.270  17.718   8.699  0.00  0.00    -0.775 OA
HETATM   19  H   UNK N   1      18.405  17.385   8.841  0.00  0.00     0.167 HD
ENDBRANCH  16  18
ENDBRANCH   1  16
BRANCH   1  20
HETATM   20  N   UNK N   1      21.390  15.542   8.086  0.00  0.00    -0.342 N 
HETATM   21  C   UNK N   1      21.022  14.240   8.224  0.00  0.00     0.252 C 
HETATM   22  O   UNK N   1      20.218  13.731   7.455  0.00  0.00    -0.268 OA
HETATM   23  H   UNK N   1      22.132  15.861   8.648  0.00  0.00     0.163 HD
BRANCH  21  24
HETATM   24  C   UNK N   1      21.523  13.461   9.371  0.00  0.00     0.032 A 
HETATM   25  C   UNK N   1      20.637  12.994  10.353  0.00  0.00     0.018 A 
HETATM   26  C   UNK N   1      21.125  12.353  11.493  0.00  0.00     0.025 A 
HETATM   27  C   UNK N   1      22.502  12.186  11.665  0.00  0.00     0.034 A 
HETATM   28  C   UNK N   1      23.391  12.639  10.686  0.00  0.00     0.025 A 
HETATM   29 Cl   UNK N   1      23.116  11.433  13.119  0.00  0.00    -0.084 Cl
HETATM   30  C   UNK N   1      22.903  13.274   9.542  0.00  0.00     0.018 A 
ENDBRANCH  21  24
ENDBRANCH   1  20
TORSDOF 7
ENDMDL
MODEL 3
REMARK VINA RESULT:      -7.7      5.228      9.193
REMARK  7 active torsions:
REMARK  status: ('A' for Active; 'I' for Inactive)
REMARK    1  A    between atoms: C_12  and  C_9 
REMARK    2  A    between atoms: C_16  and  C_9 
REMARK    3  A    between atoms: C_18  and  C_11 
REMARK    4  A    between atoms: C_19  and  C_16 
REMARK    5  A    between atoms: N_23  and  C_16 
REMARK    6  A    between atoms: O_24  and  C_17 
REMARK       I    between atoms: N_23  and  C_18 
REMARK    7  A    between atoms: O_27  and  C_19 
ROOT
HETATM    1  C   UNK N   1      33.426  17.120   8.567  0.00  0.00     0.186 C 
ENDROOT
BRANCH   1   2
HETATM    2  C   UNK N   1      32.421  16.388   7.678  0.00  0.00     0.075 C 
BRANCH   2   3
HETATM    3  C   UNK N   1      31.120  17.118   7.664  0.00  0.00    -0.039 A 
HETATM    4  C   UNK N   1      30.669  17.673   8.859  0.00  0.00     0.064 A 
HETATM    5  C   UNK N   1      29.434  18.312   8.904  0.00  0.00     0.140 A 
HETATM    6  N   UNK N   1      28.668  18.401   7.782  0.00  0.00    -0.336 N 
HETATM    7  C   UNK N   1      29.079  17.879   6.597  0.00  0.00     0.044 A 
ATOM      8  HN  UNK N   1      27.764  18.871   7.832  1.00  0.00     0.168 HD
HETATM    9  C   UNK N   1      28.264  17.988   5.466  0.00  0.00     0.030 A 
HETATM   10  C   UNK N   1      30.324  17.216   6.507  0.00  0.00    -0.003 A 
HETATM   11  C   UNK N   1      28.679  17.448   4.246  0.00  0.00     0.002 A 
HETATM   12  C   UNK N   1      29.913  16.795   4.151  0.00  0.00     0.001 A 
HETATM   13  C   UNK N   1      30.734  16.676   5.278  0.00  0.00     0.014 A 
BRANCH   5  14
HETATM   14  O   UNK N   1      28.996  18.830  10.060  0.00  0.00    -0.346 OA
HETATM   15  H   UNK N   1      28.473  19.608  10.099  0.00  0.00     0.219 HD
ENDBRANCH   5  14
ENDBRANCH   2   3
ENDBRANCH   1   2
BRANCH   1  16
HETATM   16  C   UNK N   1      34.382  17.984   7.776  0.00  0.00     0.163 C 
HETATM   17  O   UNK N   1      34.683  17.702   6.626  0.00  0.00    -0.648 OA
BRANCH  16  18
HETATM   18  O   UNK N   1      34.831  19.133   8.313  0.00  0.00    -0.775 OA
HETATM   19  H   UNK N   1      34.641  20.040   8.451  0.00  0.00     0.167 HD
ENDBRANCH  16  18
ENDBRANCH   1  16
BRANCH   1  20
HETATM   20  N   UNK N   1      34.061  16.177   9.468  0.00  0.00    -0.342 N 
HETATM   21  C   UNK N   1      35.109  16.450  10.289  0.00  0.00     0.252 C 
HETATM   22  O   UNK N   1      35.508  17.597  10.435  0.00  0.00    -0.268 OA
HETATM   23  H   UNK N   1      33.701  15.261   9.487  0.00  0.00     0.163 HD
BRANCH  21  24
HETATM   24  C   UNK N   1      35.834  15.341  10.936  0.00  0.00     0.032 A 
HETATM   25  C   UNK N   1      36.713  14.539  10.193  0.00  0.00     0.018 A 
HETATM   26  C   UNK N   1      37.312  13.422  10.779  0.00  0.00     0.025 A 
HETATM   27  C   UNK N   1      37.029  13.094  12.108  0.00  0.00     0.034 A 
HETATM   28  C   UNK N   1      36.162  13.895  12.858  0.00  0.00     0.025 A 
HETATM   29 Cl   UNK N   1      37.736  11.665  12.826  0.00  0.00    -0.084 Cl
HETATM   30  C   UNK N   1      35.568  15.015  12.275  0.00  0.00     0.018 A 
ENDBRANCH  21  24
ENDBRANCH   1  20
TORSDOF 7
ENDMDL
MODEL 4
REMARK VINA RESULT:      -7.6      1.310      2.725
REMARK  7 active torsions:
REMARK  status: ('A' for Active; 'I' for Inactive)
REMARK    1  A    between atoms: C_12  and  C_9 
REMARK    2  A    between atoms: C_16  and  C_9 
REMARK    3  A    between atoms: C_18  and  C_11 
REMARK    4  A    between atoms: C_19  and  C_16 
REMARK    5  A    between atoms: N_23  and  C_16 
REMARK    6  A    between atoms: O_24  and  C_17 
REMARK       I    between atoms: N_23  and  C_18 
REMARK    7  A    between atoms: O_27  and  C_19 
ROOT
HETATM    1  C   UNK N   1      28.609  18.180   7.160  0.00  0.00     0.186 C 
ENDROOT
BRANCH   1   2
HETATM    2  C   UNK N   1      29.301  16.852   6.860  0.00  0.00     0.075 C 
BRANCH   2   3
HETATM    3  C   UNK N   1      30.580  17.092   6.131  0.00  0.00    -0.039 A 
HETATM    4  C   UNK N   1      30.536  17.178   4.743  0.00  0.00     0.064 A 
HETATM    5  C   UNK N   1      31.714  17.344   4.019  0.00  0.00     0.140 A 
HETATM    6  N   UNK N   1      32.908  17.429   4.667  0.00  0.00    -0.336 N 
HETATM    7  C   UNK N   1      32.989  17.357   6.021  0.00  0.00     0.044 A 
ATOM      8  HN  UNK N   1      33.762  17.548   4.122  1.00  0.00     0.168 HD
HETATM    9  C   UNK N   1      34.235  17.446   6.651  0.00  0.00     0.030 A 
HETATM   10  C   UNK N   1      31.819  17.184   6.795  0.00  0.00    -0.003 A 
HETATM   11  C   UNK N   1      34.325  17.368   8.043  0.00  0.00     0.002 A 
HETATM   12  C   UNK N   1      33.169  17.200   8.813  0.00  0.00     0.001 A 
HETATM   13  C   UNK N   1      31.919  17.106   8.193  0.00  0.00     0.014 A 
BRANCH   5  14
HETATM   14  O   UNK N   1      31.667  17.409   2.681  0.00  0.00    -0.346 OA
HETATM   15  H   UNK N   1      31.695  18.221   2.214  0.00  0.00     0.219 HD
ENDBRANCH   5  14
ENDBRANCH   2   3
ENDBRANCH   1   2
BRANCH   1  16
HETATM   16  C   UNK N   1      28.454  18.433   8.643  0.00  0.00     0.163 C 
HETATM   17  O   UNK N   1      29.349  18.954   9.291  0.00  0.00    -0.648 OA
BRANCH  16  18
HETATM   18  O   UNK N   1      27.276  18.171   9.238  0.00  0.00    -0.775 OA
HETATM   19  H   UNK N   1      26.472  18.543   9.544  0.00  0.00     0.167 HD
ENDBRANCH  16  18
ENDBRANCH   1  16
BRANCH   1  20
HETATM   20  N   UNK N   1      27.381  18.277   6.394  0.00  0.00    -0.342 N 
HETATM   21  C   UNK N   1      27.220  18.983   5.243  0.00  0.00     0.252 C 
HETATM   22  O   UNK N   1      28.181  19.483   4.675  0.00  0.00    -0.268 OA
HETATM   23  H   UNK N   1      26.597  17.790   6.737  0.00  0.00     0.163 HD
BRANCH  21  24
HETATM   24  C   UNK N   1      25.862  19.228   4.724  0.00  0.00     0.032 A 
HETATM   25  C   UNK N   1      24.821  18.331   5.009  0.00  0.00     0.018 A 
HETATM   26  C   UNK N   1      23.564  18.504   4.427  0.00  0.00     0.025 A 
HETATM   27  C   UNK N   1      23.342  19.567   3.547  0.00  0.00     0.034 A 
HETATM   28  C   UNK N   1      24.371  20.471   3.266  0.00  0.00     0.025 A 
HETATM   29 Cl   UNK N   1      21.784  19.752   2.775  0.00  0.00    -0.084 Cl
HETATM   30  C   UNK N   1      25.626  20.303   3.854  0.00  0.00     0.018 A 
ENDBRANCH  21  24
ENDBRANCH   1  20
TORSDOF 7
ENDMDL
MODEL 5
REMARK VINA RESULT:      -7.3     10.281     13.735
REMARK  7 active torsions:
REMARK  status: ('A' for Active; 'I' for Inactive)
REMARK    1  A    between atoms: C_12  and  C_9 
REMARK    2  A    between atoms: C_16  and  C_9 
REMARK    3  A    between atoms: C_18  and  C_11 
REMARK    4  A    between atoms: C_19  and  C_16 
REMARK    5  A    between atoms: N_23  and  C_16 
REMARK    6  A    between atoms: O_24  and  C_17 
REMARK       I    between atoms: N_23  and  C_18 
REMARK    7  A    between atoms: O_27  and  C_19 
ROOT
HETATM    1  C   UNK N   1      29.410  23.126  -3.629  0.00  0.00     0.186 C 
ENDROOT
BRANCH   1   2
HETATM    2  C   UNK N   1      29.254  24.520  -4.235  0.00  0.00     0.075 C 
BRANCH   2   3
HETATM    3  C   UNK N   1      27.852  24.724  -4.701  0.00  0.00    -0.039 A 
HETATM    4  C   UNK N   1      27.213  23.663  -5.336  0.00  0.00     0.064 A 
HETATM    5  C   UNK N   1      25.925  23.829  -5.839  0.00  0.00     0.140 A 
HETATM    6  N   UNK N   1      25.287  25.023  -5.703  0.00  0.00    -0.336 N 
HETATM    7  C   UNK N   1      25.875  26.078  -5.081  0.00  0.00     0.044 A 
ATOM      8  HN  UNK N   1      24.344  25.129  -6.078  1.00  0.00     0.168 HD
HETATM    9  C   UNK N   1      25.188  27.290  -4.963  0.00  0.00     0.030 A 
HETATM   10  C   UNK N   1      27.184  25.956  -4.561  0.00  0.00    -0.003 A 
HETATM   11  C   UNK N   1      25.791  28.380  -4.329  0.00  0.00     0.002 A 
HETATM   12  C   UNK N   1      27.084  28.263  -3.810  0.00  0.00     0.001 A 
HETATM   13  C   UNK N   1      27.782  27.056  -3.926  0.00  0.00     0.014 A 
BRANCH   5  14
HETATM   14  O   UNK N   1      25.321  22.810  -6.466  0.00  0.00    -0.346 OA
HETATM   15  H   UNK N   1      25.538  22.557  -7.342  0.00  0.00     0.219 HD
ENDBRANCH   5  14
ENDBRANCH   2   3
ENDBRANCH   1   2
BRANCH   1  16
HETATM   16  C   UNK N   1      29.167  23.108  -2.137  0.00  0.00     0.163 C 
HETATM   17  O   UNK N   1      28.033  23.072  -1.684  0.00  0.00    -0.648 OA
BRANCH  16  18
HETATM   18  O   UNK N   1      30.216  23.032  -1.298  0.00  0.00    -0.775 OA
HETATM   19  H   UNK N   1      30.799  23.525  -0.754  0.00  0.00     0.167 HD
ENDBRANCH  16  18
ENDBRANCH   1  16
BRANCH   1  20
HETATM   20  N   UNK N   1      30.674  22.549  -4.047  0.00  0.00    -0.342 N 
HETATM   21  C   UNK N   1      30.821  21.491  -4.889  0.00  0.00     0.252 C 
HETATM   22  O   UNK N   1      29.860  21.030  -5.490  0.00  0.00    -0.268 OA
HETATM   23  H   UNK N   1      31.495  22.959  -3.692  0.00  0.00     0.163 HD
BRANCH  21  24
HETATM   24  C   UNK N   1      32.135  20.832  -5.005  0.00  0.00     0.032 A 
HETATM   25  C   UNK N   1      32.500  20.184  -6.195  0.00  0.00     0.018 A 
HETATM   26  C   UNK N   1      33.696  19.467  -6.266  0.00  0.00     0.025 A 
HETATM   27  C   UNK N   1      34.528  19.382  -5.147  0.00  0.00     0.034 A 
HETATM   28  C   UNK N   1      34.175  20.033  -3.961  0.00  0.00     0.025 A 
HETATM   29 Cl   UNK N   1      35.998  18.438  -5.219  0.00  0.00    -0.084 Cl
HETATM   30  C   UNK N   1      32.983  20.757  -3.891  0.00  0.00     0.018 A 
ENDBRANCH  21  24
ENDBRANCH   1  20
TORSDOF 7
ENDMDL
MODEL 6
REMARK VINA RESULT:      -7.3      5.963      9.458
REMARK  7 active torsions:
REMARK  status: ('A' for Active; 'I' for Inactive)
REMARK    1  A    between atoms: C_12  and  C_9 
REMARK    2  A    between atoms: C_16  and  C_9 
REMARK    3  A    between atoms: C_18  and  C_11 
REMARK    4  A    between atoms: C_19  and  C_16 
REMARK    5  A    between atoms: N_23  and  C_16 
REMARK    6  A    between atoms: O_24  and  C_17 
REMARK       I    between atoms: N_23  and  C_18 
REMARK    7  A    between atoms: O_27  and  C_19 
ROOT
HETATM    1  C   UNK N   1      20.765  20.086   2.495  0.00  0.00     0.186 C 
ENDROOT
BRANCH   1   2
HETATM    2  C   UNK N   1      19.729  19.012   2.823  0.00  0.00     0.075 C 
BRANCH   2   3
HETATM    3  C   UNK N   1      20.378  17.872   3.532  0.00  0.00    -0.039 A 
HETATM    4  C   UNK N   1      20.701  18.037   4.876  0.00  0.00     0.064 A 
HETATM    5  C   UNK N   1      21.359  17.020   5.562  0.00  0.00     0.140 A 
HETATM    6  N   UNK N   1      21.680  15.862   4.924  0.00  0.00    -0.336 N 
HETATM    7  C   UNK N   1      21.373  15.661   3.616  0.00  0.00     0.044 A 
ATOM      8  HN  UNK N   1      22.164  15.127   5.440  1.00  0.00     0.168 HD
HETATM    9  C   UNK N   1      21.722  14.458   2.993  0.00  0.00     0.030 A 
HETATM   10  C   UNK N   1      20.710  16.670   2.879  0.00  0.00    -0.003 A 
HETATM   11  C   UNK N   1      21.412  14.249   1.647  0.00  0.00     0.002 A 
HETATM   12  C   UNK N   1      20.753  15.243   0.915  0.00  0.00     0.001 A 
HETATM   13  C   UNK N   1      20.404  16.451   1.527  0.00  0.00     0.014 A 
BRANCH   5  14
HETATM   14  O   UNK N   1      21.684  17.191   6.851  0.00  0.00    -0.346 OA
HETATM   15  H   UNK N   1      21.848  16.471   7.430  0.00  0.00     0.219 HD
ENDBRANCH   5  14
ENDBRANCH   2   3
ENDBRANCH   1   2
BRANCH   1  16
HETATM   16  C   UNK N   1      20.727  20.508   1.043  0.00  0.00     0.163 C 
HETATM   17  O   UNK N   1      20.861  21.679   0.724  0.00  0.00    -0.648 OA
BRANCH  16  18
HETATM   18  O   UNK N   1      20.641  19.569   0.084  0.00  0.00    -0.775 OA
HETATM   19  H   UNK N   1      21.124  18.947  -0.425  0.00  0.00     0.167 HD
ENDBRANCH  16  18
ENDBRANCH   1  16
BRANCH   1  20
HETATM   20  N   UNK N   1      22.070  19.672   2.974  0.00  0.00    -0.342 N 
HETATM   21  C   UNK N   1      23.166  20.470   3.075  0.00  0.00     0.252 C 
HETATM   22  O   UNK N   1      23.080  21.678   2.898  0.00  0.00    -0.268 OA
HETATM   23  H   UNK N   1      22.170  18.733   3.252  0.00  0.00     0.163 HD
BRANCH  21  24
HETATM   24  C   UNK N   1      24.489  19.862   3.305  0.00  0.00     0.032 A 
HETATM   25  C   UNK N   1      24.592  18.564   3.827  0.00  0.00     0.018 A 
HETATM   26  C   UNK N   1      25.842  18.032   4.149  0.00  0.00     0.025 A 
HETATM   27  C   UNK N   1      26.996  18.798   3.963  0.00  0.00     0.034 A 
HETATM   28  C   UNK N   1      26.903  20.089   3.434  0.00  0.00     0.025 A 
HETATM   29 Cl   UNK N   1      28.557  18.153   4.417  0.00  0.00    -0.084 Cl
HETATM   30  C   UNK N   1      25.654  20.619   3.105  0.00  0.00     0.018 A 
ENDBRANCH  21  24
ENDBRANCH   1  20
TORSDOF 7
ENDMDL
MODEL 7
REMARK VINA RESULT:      -7.3      6.883      8.742
REMARK  7 active torsions:
REMARK  status: ('A' for Active; 'I' for Inactive)
REMARK    1  A    between atoms: C_12  and  C_9 
REMARK    2  A    between atoms: C_16  and  C_9 
REMARK    3  A    between atoms: C_18  and  C_11 
REMARK    4  A    between atoms: C_19  and  C_16 
REMARK    5  A    between atoms: N_23  and  C_16 
REMARK    6  A    between atoms: O_24  and  C_17 
REMARK       I    between atoms: N_23  and  C_18 
REMARK    7  A    between atoms: O_27  and  C_19 
ROOT
HETATM    1  C   UNK N   1      21.060  16.220   7.505  0.00  0.00     0.186 C 
ENDROOT
BRANCH   1   2
HETATM    2  C   UNK N   1      21.072  14.700   7.361  0.00  0.00     0.075 C 
BRANCH   2   3
HETATM    3  C   UNK N   1      22.327  14.138   7.938  0.00  0.00    -0.039 A 
HETATM    4  C   UNK N   1      23.509  14.308   7.223  0.00  0.00     0.064 A 
HETATM    5  C   UNK N   1      24.693  13.750   7.697  0.00  0.00     0.140 A 
HETATM    6  N   UNK N   1      24.699  13.044   8.861  0.00  0.00    -0.336 N 
HETATM    7  C   UNK N   1      23.567  12.865   9.590  0.00  0.00     0.044 A 
ATOM      8  HN  UNK N   1      25.574  12.640   9.194  1.00  0.00     0.168 HD
HETATM    9  C   UNK N   1      23.612  12.132  10.780  0.00  0.00     0.030 A 
HETATM   10  C   UNK N   1      22.341  13.410   9.144  0.00  0.00    -0.003 A 
HETATM   11  C   UNK N   1      22.449  11.941  11.531  0.00  0.00     0.002 A 
HETATM   12  C   UNK N   1      21.234  12.481  11.095  0.00  0.00     0.001 A 
HETATM   13  C   UNK N   1      21.178  13.212   9.904  0.00  0.00     0.014 A 
BRANCH   5  14
HETATM   14  O   UNK N   1      25.825  13.901   6.996  0.00  0.00    -0.346 OA
HETATM   15  H   UNK N   1      26.029  14.689   6.530  0.00  0.00     0.219 HD
ENDBRANCH   5  14
ENDBRANCH   2   3
ENDBRANCH   1   2
BRANCH   1  16
HETATM   16  C   UNK N   1      20.062  16.700   8.535  0.00  0.00     0.163 C 
HETATM   17  O   UNK N   1      20.104  17.842   8.968  0.00  0.00    -0.648 OA
BRANCH  16  18
HETATM   18  O   UNK N   1      19.056  15.889   8.907  0.00  0.00    -0.775 OA
HETATM   19  H   UNK N   1      18.127  15.821   9.016  0.00  0.00     0.167 HD
ENDBRANCH  16  18
ENDBRANCH   1  16
BRANCH   1  20
HETATM   20  N   UNK N   1      20.929  16.836   6.198  0.00  0.00    -0.342 N 
HETATM   21  C   UNK N   1      21.950  17.342   5.456  0.00  0.00     0.252 C 
HETATM   22  O   UNK N   1      23.114  17.172   5.792  0.00  0.00    -0.268 OA
HETATM   23  H   UNK N   1      20.025  16.891   5.815  0.00  0.00     0.163 HD
BRANCH  21  24
HETATM   24  C   UNK N   1      21.649  18.186   4.285  0.00  0.00     0.032 A 
HETATM   25  C   UNK N   1      22.546  19.187   3.882  0.00  0.00     0.018 A 
HETATM   26  C   UNK N   1      22.209  20.057   2.844  0.00  0.00     0.025 A 
HETATM   27  C   UNK N   1      20.969  19.941   2.209  0.00  0.00     0.034 A 
HETATM   28  C   UNK N   1      20.074  18.940   2.598  0.00  0.00     0.025 A 
HETATM   29 Cl   UNK N   1      20.525  21.066   0.946  0.00  0.00    -0.084 Cl
HETATM   30  C   UNK N   1      20.413  18.064   3.631  0.00  0.00     0.018 A 
ENDBRANCH  21  24
ENDBRANCH   1  20
TORSDOF 7
ENDMDL
MODEL 8
REMARK VINA RESULT:      -7.0      6.666      9.346
REMARK  7 active torsions:
REMARK  status: ('A' for Active; 'I' for Inactive)
REMARK    1  A    between atoms: C_12  and  C_9 
REMARK    2  A    between atoms: C_16  and  C_9 
REMARK    3  A    between atoms: C_18  and  C_11 
REMARK    4  A    between atoms: C_19  and  C_16 
REMARK    5  A    between atoms: N_23  and  C_16 
REMARK    6  A    between atoms: O_24  and  C_17 
REMARK       I    between atoms: N_23  and  C_18 
REMARK    7  A    between atoms: O_27  and  C_19 
ROOT
HETATM    1  C   UNK N   1      21.243  16.523   3.274  0.00  0.00     0.186 C 
ENDROOT
BRANCH   1   2
HETATM    2  C   UNK N   1      22.217  17.058   4.323  0.00  0.00     0.075 C 
BRANCH   2   3
HETATM    3  C   UNK N   1      22.773  18.371   3.887  0.00  0.00    -0.039 A 
HETATM    4  C   UNK N   1      21.883  19.336   3.422  0.00  0.00     0.064 A 
HETATM    5  C   UNK N   1      22.364  20.554   2.951  0.00  0.00     0.140 A 
HETATM    6  N   UNK N   1      23.702  20.807   2.950  0.00  0.00    -0.336 N 
HETATM    7  C   UNK N   1      24.599  19.894   3.403  0.00  0.00     0.044 A 
ATOM      8  HN  UNK N   1      24.038  21.704   2.600  1.00  0.00     0.168 HD
HETATM    9  C   UNK N   1      25.966  20.189   3.384  0.00  0.00     0.030 A 
HETATM   10  C   UNK N   1      24.155  18.641   3.886  0.00  0.00    -0.003 A 
HETATM   11  C   UNK N   1      26.893  19.250   3.845  0.00  0.00     0.002 A 
HETATM   12  C   UNK N   1      26.458  18.011   4.326  0.00  0.00     0.001 A 
HETATM   13  C   UNK N   1      25.093  17.704   4.345  0.00  0.00     0.014 A 
BRANCH   5  14
HETATM   14  O   UNK N   1      21.505  21.473   2.489  0.00  0.00    -0.346 OA
HETATM   15  H   UNK N   1      21.784  22.309   2.167  0.00  0.00     0.219 HD
ENDBRANCH   5  14
ENDBRANCH   2   3
ENDBRANCH   1   2
BRANCH   1  16
HETATM   16  C   UNK N   1      19.872  16.236   3.844  0.00  0.00     0.163 C 
HETATM   17  O   UNK N   1      19.645  15.197   4.445  0.00  0.00    -0.648 OA
BRANCH  16  18
HETATM   18  O   UNK N   1      18.916  17.180   3.772  0.00  0.00    -0.775 OA
HETATM   19  H   UNK N   1      18.447  17.752   3.197  0.00  0.00     0.167 HD
ENDBRANCH  16  18
ENDBRANCH   1  16
BRANCH   1  20
HETATM   20  N   UNK N   1      21.850  15.415   2.561  0.00  0.00    -0.342 N 
HETATM   21  C   UNK N   1      21.571  15.049   1.282  0.00  0.00     0.252 C 
HETATM   22  O   UNK N   1      20.867  15.750   0.569  0.00  0.00    -0.268 OA
HETATM   23  H   UNK N   1      22.523  14.883   3.045  0.00  0.00     0.163 HD
BRANCH  21  24
HETATM   24  C   UNK N   1      22.044  13.746   0.779  0.00  0.00     0.032 A 
HETATM   25  C   UNK N   1      21.215  12.617   0.845  0.00  0.00     0.018 A 
HETATM   26  C   UNK N   1      21.703  11.363   0.472  0.00  0.00     0.025 A 
HETATM   27  C   UNK N   1      23.026  11.228   0.042  0.00  0.00     0.034 A 
HETATM   28  C   UNK N   1      23.855  12.350  -0.037  0.00  0.00     0.025 A 
HETATM   29 Cl   UNK N   1      23.653   9.649  -0.373  0.00  0.00    -0.084 Cl
HETATM   30  C   UNK N   1      23.366  13.606   0.330  0.00  0.00     0.018 A 
ENDBRANCH  21  24
ENDBRANCH   1  20
TORSDOF 7
ENDMDL
MODEL 9
REMARK VINA RESULT:      -7.0     10.941     14.204
REMARK  7 active torsions:
REMARK  status: ('A' for Active; 'I' for Inactive)
REMARK    1  A    between atoms: C_12  and  C_9 
REMARK    2  A    between atoms: C_16  and  C_9 
REMARK    3  A    between atoms: C_18  and  C_11 
REMARK    4  A    between atoms: C_19  and  C_16 
REMARK    5  A    between atoms: N_23  and  C_16 
REMARK    6  A    between atoms: O_24  and  C_17 
REMARK       I    between atoms: N_23  and  C_18 
REMARK    7  A    between atoms: O_27  and  C_19 
ROOT
HETATM    1  C   UNK N   1      29.180  23.812  -3.448  0.00  0.00     0.186 C 
ENDROOT
BRANCH   1   2
HETATM    2  C   UNK N   1      27.706  23.900  -3.056  0.00  0.00     0.075 C 
BRANCH   2   3
HETATM    3  C   UNK N   1      26.881  24.285  -4.237  0.00  0.00    -0.039 A 
HETATM    4  C   UNK N   1      26.730  23.352  -5.259  0.00  0.00     0.064 A 
HETATM    5  C   UNK N   1      26.016  23.689  -6.406  0.00  0.00     0.140 A 
HETATM    6  N   UNK N   1      25.460  24.926  -6.527  0.00  0.00    -0.336 N 
HETATM    7  C   UNK N   1      25.580  25.858  -5.547  0.00  0.00     0.044 A 
ATOM      8  HN  UNK N   1      24.942  25.158  -7.374  1.00  0.00     0.168 HD
HETATM    9  C   UNK N   1      24.997  27.119  -5.708  0.00  0.00     0.030 A 
HETATM   10  C   UNK N   1      26.301  25.561  -4.368  0.00  0.00    -0.003 A 
HETATM   11  C   UNK N   1      25.122  28.084  -4.705  0.00  0.00     0.002 A 
HETATM   12  C   UNK N   1      25.832  27.793  -3.535  0.00  0.00     0.001 A 
HETATM   13  C   UNK N   1      26.422  26.536  -3.366  0.00  0.00     0.014 A 
BRANCH   5  14
HETATM   14  O   UNK N   1      25.887  22.794  -7.395  0.00  0.00    -0.346 OA
HETATM   15  H   UNK N   1      26.013  23.017  -8.298  0.00  0.00     0.219 HD
ENDBRANCH   5  14
ENDBRANCH   2   3
ENDBRANCH   1   2
BRANCH   1  16
HETATM   16  C   UNK N   1      29.909  22.700  -2.728  0.00  0.00     0.163 C 
HETATM   17  O   UNK N   1      30.111  21.625  -3.271  0.00  0.00    -0.648 OA
BRANCH  16  18
HETATM   18  O   UNK N   1      30.427  22.931  -1.508  0.00  0.00    -0.775 OA
HETATM   19  H   UNK N   1      30.821  22.535  -0.755  0.00  0.00     0.167 HD
ENDBRANCH  16  18
ENDBRANCH   1  16
BRANCH   1  20
HETATM   20  N   UNK N   1      29.798  25.120  -3.332  0.00  0.00    -0.342 N 
HETATM   21  C   UNK N   1      30.205  25.897  -4.370  0.00  0.00     0.252 C 
HETATM   22  O   UNK N   1      29.933  25.596  -5.524  0.00  0.00    -0.268 OA
HETATM   23  H   UNK N   1      29.932  25.475  -2.424  0.00  0.00     0.163 HD
BRANCH  21  24
HETATM   24  C   UNK N   1      31.067  27.065  -4.109  0.00  0.00     0.032 A 
HETATM   25  C   UNK N   1      32.208  27.294  -4.892  0.00  0.00     0.018 A 
HETATM   26  C   UNK N   1      33.082  28.335  -4.574  0.00  0.00     0.025 A 
HETATM   27  C   UNK N   1      32.828  29.147  -3.465  0.00  0.00     0.034 A 
HETATM   28  C   UNK N   1      31.687  28.931  -2.685  0.00  0.00     0.025 A 
HETATM   29 Cl   UNK N   1      33.951  30.416  -3.034  0.00  0.00    -0.084 Cl
HETATM   30  C   UNK N   1      30.809  27.895  -3.007  0.00  0.00     0.018 A 
ENDBRANCH  21  24
ENDBRANCH   1  20
TORSDOF 7
ENDMDL
