MODEL 1
REMARK VINA RESULT:      -6.5      0.000      0.000
REMARK  6 active torsions:
REMARK  status: ('A' for Active; 'I' for Inactive)
REMARK    1  A    between atoms: C_5  and  O_11 
REMARK    2  A    between atoms: C_8  and  O_10 
REMARK    3  A    between atoms: O_11  and  C_12 
REMARK    4  A    between atoms: C_14  and  C_12 
REMARK    5  A    between atoms: C_14  and  C_15 
REMARK    6  A    between atoms: C_14  and  C_17 
ROOT
HETATM    1  C   UNK N   1      24.839  27.053  -5.590  0.00  0.00     0.183 C 
HETATM    2  O   UNK N   1      24.906  25.665  -5.467  0.00  0.00    -0.400 OA
HETATM    3  H   UNK N   1      25.006  24.699  -5.472  0.00  0.00     0.209 HD
ENDROOT
BRANCH   1   4
HETATM    4  C   UNK N   1      26.055  27.717  -4.951  0.00  0.00     0.142 C 
BRANCH   4   5
HETATM    5  C   UNK N   1      26.585  27.028  -3.726  0.00  0.00     0.270 C 
HETATM    6  O   UNK N   1      25.892  27.005  -2.725  0.00  0.00    -0.264 OA
BRANCH   5   7
HETATM    7  O   UNK N   1      27.810  26.431  -3.741  0.00  0.00    -0.315 OA
BRANCH   7   8
HETATM    8  C   UNK N   1      28.066  25.171  -4.259  0.00  0.00     0.136 C 
HETATM    9  C   UNK N   1      29.298  25.106  -5.194  0.00  0.00     0.068 C 
HETATM   10  C   UNK N   1      30.268  23.960  -4.858  0.00  0.00     0.228 C 
HETATM   11  N   UNK N   1      29.483  22.772  -4.536  0.00  0.00     0.096 N 
HETATM   12  C   UNK N   1      31.043  24.320  -3.594  0.00  0.00     0.069 C 
HETATM   13  C   UNK N   1      30.344  21.594  -4.567  0.00  0.00     0.310 C 
HETATM   14  C   UNK N   1      29.056  23.045  -3.164  0.00  0.00     0.254 C 
HETATM   15  C   UNK N   1      27.888  24.042  -3.217  0.00  0.00     0.071 C 
HETATM   16  C   UNK N   1      30.238  23.707  -2.461  0.00  0.00     0.153 C 
BRANCH  16  17
HETATM   17  O   UNK N   1      31.017  22.735  -1.833  0.00  0.00    -0.393 OA
HETATM   18  H   UNK N   1      31.613  22.014  -2.091  0.00  0.00     0.210 HD
ENDBRANCH  16  17
ENDBRANCH   7   8
ENDBRANCH   5   7
ENDBRANCH   4   5
BRANCH   4  19
HETATM   19  C   UNK N   1      27.071  28.310  -5.890  0.00  0.00    -0.043 A 
HETATM   20  C   UNK N   1      27.716  29.501  -5.529  0.00  0.00     0.008 A 
HETATM   21  C   UNK N   1      28.708  30.044  -6.350  0.00  0.00     0.001 A 
HETATM   22  C   UNK N   1      29.065  29.398  -7.536  0.00  0.00     0.000 A 
HETATM   23  C   UNK N   1      28.427  28.209  -7.903  0.00  0.00     0.001 A 
HETATM   24  C   UNK N   1      27.436  27.663  -7.082  0.00  0.00     0.008 A 
ENDBRANCH   4  19
ENDBRANCH   1   4
TORSDOF 6
ENDMDL
MODEL 2
REMARK VINA RESULT:      -6.4     20.808     24.923
REMARK  6 active torsions:
REMARK  status: ('A' for Active; 'I' for Inactive)
REMARK    1  A    between atoms: C_5  and  O_11 
REMARK    2  A    between atoms: C_8  and  O_10 
REMARK    3  A    between atoms: O_11  and  C_12 
REMARK    4  A    between atoms: C_14  and  C_12 
REMARK    5  A    between atoms: C_14  and  C_15 
REMARK    6  A    between atoms: C_14  and  C_17 
ROOT
HETATM    1  C   UNK N   1      35.562   9.478  15.599  0.00  0.00     0.183 C 
HETATM    2  O   UNK N   1      35.385   8.994  14.302  0.00  0.00    -0.400 OA
HETATM    3  H   UNK N   1      35.163   8.638  13.427  0.00  0.00     0.209 HD
ENDROOT
BRANCH   1   4
HETATM    4  C   UNK N   1      35.219  10.962  15.680  0.00  0.00     0.142 C 
BRANCH   4   5
HETATM    5  C   UNK N   1      34.114  11.409  14.766  0.00  0.00     0.270 C 
HETATM    6  O   UNK N   1      33.068  10.786  14.770  0.00  0.00    -0.264 OA
BRANCH   5   7
HETATM    7  O   UNK N   1      34.276  12.497  13.961  0.00  0.00    -0.315 OA
BRANCH   7   8
HETATM    8  C   UNK N   1      35.381  12.722  13.155  0.00  0.00     0.136 C 
HETATM    9  C   UNK N   1      35.264  12.119  11.734  0.00  0.00     0.068 C 
HETATM   10  C   UNK N   1      35.617  13.110  10.612  0.00  0.00     0.228 C 
HETATM   11  N   UNK N   1      36.788  13.878  11.028  0.00  0.00     0.096 N 
HETATM   12  C   UNK N   1      34.478  14.112  10.457  0.00  0.00     0.069 C 
HETATM   13  C   UNK N   1      37.363  14.557   9.870  0.00  0.00     0.310 C 
HETATM   14  C   UNK N   1      36.205  14.856  11.945  0.00  0.00     0.254 C 
HETATM   15  C   UNK N   1      35.945  14.156  13.288  0.00  0.00     0.071 C 
HETATM   16  C   UNK N   1      34.869  15.281  11.344  0.00  0.00     0.153 C 
BRANCH  16  17
HETATM   17  O   UNK N   1      35.050  16.409  10.543  0.00  0.00    -0.393 OA
HETATM   18  H   UNK N   1      35.778  16.852  10.080  0.00  0.00     0.210 HD
ENDBRANCH  16  17
ENDBRANCH   7   8
ENDBRANCH   5   7
ENDBRANCH   4   5
BRANCH   4  19
HETATM   19  C   UNK N   1      35.268  11.591  17.046  0.00  0.00    -0.043 A 
HETATM   20  C   UNK N   1      35.183  12.986  17.155  0.00  0.00     0.008 A 
HETATM   21  C   UNK N   1      35.164  13.598  18.412  0.00  0.00     0.001 A 
HETATM   22  C   UNK N   1      35.224  12.818  19.569  0.00  0.00     0.000 A 
HETATM   23  C   UNK N   1      35.307  11.425  19.470  0.00  0.00     0.001 A 
HETATM   24  C   UNK N   1      35.325  10.812  18.213  0.00  0.00     0.008 A 
ENDBRANCH   4  19
ENDBRANCH   1   4
TORSDOF 6
ENDMDL
MODEL 3
REMARK VINA RESULT:      -6.4      1.723      2.491
REMARK  6 active torsions:
REMARK  status: ('A' for Active; 'I' for Inactive)
REMARK    1  A    between atoms: C_5  and  O_11 
REMARK    2  A    between atoms: C_8  and  O_10 
REMARK    3  A    between atoms: O_11  and  C_12 
REMARK    4  A    between atoms: C_14  and  C_12 
REMARK    5  A    between atoms: C_14  and  C_15 
REMARK    6  A    between atoms: C_14  and  C_17 
ROOT
HETATM    1  C   UNK N   1      25.794  25.003  -6.003  0.00  0.00     0.183 C 
HETATM    2  O   UNK N   1      25.367  23.683  -5.862  0.00  0.00    -0.400 OA
HETATM    3  H   UNK N   1      25.171  22.737  -5.769  0.00  0.00     0.209 HD
ENDROOT
BRANCH   1   4
HETATM    4  C   UNK N   1      26.099  25.627  -4.644  0.00  0.00     0.142 C 
BRANCH   4   5
HETATM    5  C   UNK N   1      26.859  24.744  -3.695  0.00  0.00     0.270 C 
HETATM    6  O   UNK N   1      26.256  23.862  -3.113  0.00  0.00    -0.264 OA
BRANCH   5   7
HETATM    7  O   UNK N   1      28.196  24.922  -3.502  0.00  0.00    -0.315 OA
BRANCH   7   8
HETATM    8  C   UNK N   1      29.179  24.539  -4.400  0.00  0.00     0.136 C 
HETATM    9  C   UNK N   1      30.621  24.880  -3.949  0.00  0.00     0.068 C 
HETATM   10  C   UNK N   1      31.599  23.697  -4.064  0.00  0.00     0.228 C 
HETATM   11  N   UNK N   1      31.330  22.998  -5.317  0.00  0.00     0.096 N 
HETATM   12  C   UNK N   1      31.309  22.702  -2.945  0.00  0.00     0.069 C 
HETATM   13  C   UNK N   1      32.448  22.114  -5.632  0.00  0.00     0.310 C 
HETATM   14  C   UNK N   1      30.145  22.210  -4.983  0.00  0.00     0.254 C 
HETATM   15  C   UNK N   1      28.925  23.143  -5.016  0.00  0.00     0.071 C 
HETATM   16  C   UNK N   1      30.341  21.705  -3.556  0.00  0.00     0.153 C 
BRANCH  16  17
HETATM   17  O   UNK N   1      30.948  20.449  -3.580  0.00  0.00    -0.393 OA
HETATM   18  H   UNK N   1      31.482  19.897  -2.988  0.00  0.00     0.210 HD
ENDBRANCH  16  17
ENDBRANCH   7   8
ENDBRANCH   5   7
ENDBRANCH   4   5
BRANCH   4  19
HETATM   19  C   UNK N   1      26.449  27.091  -4.638  0.00  0.00    -0.043 A 
HETATM   20  C   UNK N   1      27.176  27.620  -5.713  0.00  0.00     0.008 A 
HETATM   21  C   UNK N   1      27.464  28.986  -5.768  0.00  0.00     0.001 A 
HETATM   22  C   UNK N   1      27.024  29.835  -4.749  0.00  0.00     0.000 A 
HETATM   23  C   UNK N   1      26.297  29.315  -3.673  0.00  0.00     0.001 A 
HETATM   24  C   UNK N   1      26.006  27.948  -3.618  0.00  0.00     0.008 A 
ENDBRANCH   4  19
ENDBRANCH   1   4
TORSDOF 6
ENDMDL
MODEL 4
REMARK VINA RESULT:      -6.3     22.756     26.228
REMARK  6 active torsions:
REMARK  status: ('A' for Active; 'I' for Inactive)
REMARK    1  A    between atoms: C_5  and  O_11 
REMARK    2  A    between atoms: C_8  and  O_10 
REMARK    3  A    between atoms: O_11  and  C_12 
REMARK    4  A    between atoms: C_14  and  C_12 
REMARK    5  A    between atoms: C_14  and  C_15 
REMARK    6  A    between atoms: C_14  and  C_17 
ROOT
HETATM    1  C   UNK N   1      35.360  13.059  19.004  0.00  0.00     0.183 C 
HETATM    2  O   UNK N   1      35.249  14.438  18.826  0.00  0.00    -0.400 OA
HETATM    3  H   UNK N   1      35.272  15.396  18.667  0.00  0.00     0.209 HD
ENDROOT
BRANCH   1   4
HETATM    4  C   UNK N   1      34.975  12.311  17.731  0.00  0.00     0.142 C 
BRANCH   4   5
HETATM    5  C   UNK N   1      35.013  13.133  16.475  0.00  0.00     0.270 C 
HETATM    6  O   UNK N   1      34.018  13.174  15.776  0.00  0.00    -0.264 OA
BRANCH   5   7
HETATM    7  O   UNK N   1      36.136  13.826  16.133  0.00  0.00    -0.315 OA
BRANCH   7   8
HETATM    8  C   UNK N   1      36.888  13.595  14.992  0.00  0.00     0.136 C 
HETATM    9  C   UNK N   1      37.240  12.107  14.754  0.00  0.00     0.068 C 
HETATM   10  C   UNK N   1      36.940  11.623  13.324  0.00  0.00     0.228 C 
HETATM   11  N   UNK N   1      37.347  12.669  12.390  0.00  0.00     0.096 N 
HETATM   12  C   UNK N   1      35.433  11.461  13.160  0.00  0.00     0.069 C 
HETATM   13  C   UNK N   1      37.418  12.117  11.040  0.00  0.00     0.310 C 
HETATM   14  C   UNK N   1      36.239  13.617  12.487  0.00  0.00     0.254 C 
HETATM   15  C   UNK N   1      36.417  14.431  13.778  0.00  0.00     0.071 C 
HETATM   16  C   UNK N   1      34.961  12.790  12.598  0.00  0.00     0.153 C 
BRANCH  16  17
HETATM   17  O   UNK N   1      34.428  12.574  11.327  0.00  0.00    -0.393 OA
HETATM   18  H   UNK N   1      34.032  13.101  10.614  0.00  0.00     0.210 HD
ENDBRANCH  16  17
ENDBRANCH   7   8
ENDBRANCH   5   7
ENDBRANCH   4   5
BRANCH   4  19
HETATM   19  C   UNK N   1      35.438  10.883  17.623  0.00  0.00    -0.043 A 
HETATM   20  C   UNK N   1      34.949  10.087  16.578  0.00  0.00     0.008 A 
HETATM   21  C   UNK N   1      35.406   8.777  16.413  0.00  0.00     0.001 A 
HETATM   22  C   UNK N   1      36.359   8.253  17.291  0.00  0.00     0.000 A 
HETATM   23  C   UNK N   1      36.853   9.040  18.336  0.00  0.00     0.001 A 
HETATM   24  C   UNK N   1      36.399  10.353  18.500  0.00  0.00     0.008 A 
ENDBRANCH   4  19
ENDBRANCH   1   4
TORSDOF 6
ENDMDL
MODEL 5
REMARK VINA RESULT:      -6.2      2.072      3.040
REMARK  6 active torsions:
REMARK  status: ('A' for Active; 'I' for Inactive)
REMARK    1  A    between atoms: C_5  and  O_11 
REMARK    2  A    between atoms: C_8  and  O_10 
REMARK    3  A    between atoms: O_11  and  C_12 
REMARK    4  A    between atoms: C_14  and  C_12 
REMARK    5  A    between atoms: C_14  and  C_15 
REMARK    6  A    between atoms: C_14  and  C_17 
ROOT
HETATM    1  C   UNK N   1      25.773  26.162  -8.935  0.00  0.00     0.183 C 
HETATM    2  O   UNK N   1      25.524  25.055  -9.746  0.00  0.00    -0.400 OA
HETATM    3  H   UNK N   1      25.453  24.264 -10.305  0.00  0.00     0.209 HD
ENDROOT
BRANCH   1   4
HETATM    4  C   UNK N   1      25.672  25.791  -7.459  0.00  0.00     0.142 C 
BRANCH   4   5
HETATM    5  C   UNK N   1      26.113  24.395  -7.123  0.00  0.00     0.270 C 
HETATM    6  O   UNK N   1      25.289  23.500  -7.159  0.00  0.00    -0.264 OA
BRANCH   5   7
HETATM    7  O   UNK N   1      27.411  24.137  -6.797  0.00  0.00    -0.315 OA
BRANCH   7   8
HETATM    8  C   UNK N   1      27.817  23.460  -5.658  0.00  0.00     0.136 C 
HETATM    9  C   UNK N   1      29.108  22.625  -5.840  0.00  0.00     0.068 C 
HETATM   10  C   UNK N   1      30.157  22.863  -4.740  0.00  0.00     0.228 C 
HETATM   11  N   UNK N   1      29.468  22.941  -3.456  0.00  0.00     0.096 N 
HETATM   12  C   UNK N   1      30.811  24.223  -4.963  0.00  0.00     0.069 C 
HETATM   13  C   UNK N   1      30.436  22.803  -2.372  0.00  0.00     0.310 C 
HETATM   14  C   UNK N   1      28.929  24.300  -3.477  0.00  0.00     0.254 C 
HETATM   15  C   UNK N   1      27.678  24.305  -4.370  0.00  0.00     0.071 C 
HETATM   16  C   UNK N   1      29.995  25.185  -4.118  0.00  0.00     0.153 C 
BRANCH  16  17
HETATM   17  O   UNK N   1      30.820  25.721  -3.128  0.00  0.00    -0.393 OA
HETATM   18  H   UNK N   1      31.636  25.478  -2.663  0.00  0.00     0.210 HD
ENDBRANCH  16  17
ENDBRANCH   7   8
ENDBRANCH   5   7
ENDBRANCH   4   5
BRANCH   4  19
HETATM   19  C   UNK N   1      26.019  26.869  -6.467  0.00  0.00    -0.043 A 
HETATM   20  C   UNK N   1      27.119  27.700  -6.724  0.00  0.00     0.008 A 
HETATM   21  C   UNK N   1      27.430  28.749  -5.855  0.00  0.00     0.001 A 
HETATM   22  C   UNK N   1      26.641  28.979  -4.725  0.00  0.00     0.000 A 
HETATM   23  C   UNK N   1      25.541  28.156  -4.462  0.00  0.00     0.001 A 
HETATM   24  C   UNK N   1      25.227  27.107  -5.332  0.00  0.00     0.008 A 
ENDBRANCH   4  19
ENDBRANCH   1   4
TORSDOF 6
ENDMDL
MODEL 6
REMARK VINA RESULT:      -6.0     19.072     23.329
REMARK  6 active torsions:
REMARK  status: ('A' for Active; 'I' for Inactive)
REMARK    1  A    between atoms: C_5  and  O_11 
REMARK    2  A    between atoms: C_8  and  O_10 
REMARK    3  A    between atoms: O_11  and  C_12 
REMARK    4  A    between atoms: C_14  and  C_12 
REMARK    5  A    between atoms: C_14  and  C_15 
REMARK    6  A    between atoms: C_14  and  C_17 
ROOT
HETATM    1  C   UNK N   1      37.240  11.682  13.312  0.00  0.00     0.183 C 
HETATM    2  O   UNK N   1      36.302  11.103  12.457  0.00  0.00    -0.400 OA
HETATM    3  H   UNK N   1      35.626  10.635  11.941  0.00  0.00     0.209 HD
ENDROOT
BRANCH   1   4
HETATM    4  C   UNK N   1      36.614  12.813  14.123  0.00  0.00     0.142 C 
BRANCH   4   5
HETATM    5  C   UNK N   1      35.711  13.728  13.346  0.00  0.00     0.270 C 
HETATM    6  O   UNK N   1      34.567  13.371  13.132  0.00  0.00    -0.264 OA
BRANCH   5   7
HETATM    7  O   UNK N   1      36.161  14.935  12.903  0.00  0.00    -0.315 OA
BRANCH   7   8
HETATM    8  C   UNK N   1      36.285  15.288  11.568  0.00  0.00     0.136 C 
HETATM    9  C   UNK N   1      36.590  14.101  10.623  0.00  0.00     0.068 C 
HETATM   10  C   UNK N   1      35.676  14.046   9.386  0.00  0.00     0.228 C 
HETATM   11  N   UNK N   1      35.502  15.405   8.882  0.00  0.00     0.096 N 
HETATM   12  C   UNK N   1      34.293  13.563   9.811  0.00  0.00     0.069 C 
HETATM   13  C   UNK N   1      34.955  15.358   7.530  0.00  0.00     0.310 C 
HETATM   14  C   UNK N   1      34.509  15.952   9.806  0.00  0.00     0.254 C 
HETATM   15  C   UNK N   1      35.226  16.320  11.115  0.00  0.00     0.071 C 
HETATM   16  C   UNK N   1      33.510  14.834  10.090  0.00  0.00     0.153 C 
BRANCH  16  17
HETATM   17  O   UNK N   1      32.448  14.912   9.188  0.00  0.00    -0.393 OA
HETATM   18  H   UNK N   1      31.599  14.468   9.037  0.00  0.00     0.210 HD
ENDBRANCH  16  17
ENDBRANCH   7   8
ENDBRANCH   5   7
ENDBRANCH   4   5
BRANCH   4  19
HETATM   19  C   UNK N   1      36.198  12.482  15.531  0.00  0.00    -0.043 A 
HETATM   20  C   UNK N   1      35.618  13.483  16.321  0.00  0.00     0.008 A 
HETATM   21  C   UNK N   1      35.164  13.193  17.611  0.00  0.00     0.001 A 
HETATM   22  C   UNK N   1      35.284  11.897  18.118  0.00  0.00     0.000 A 
HETATM   23  C   UNK N   1      35.860  10.891  17.336  0.00  0.00     0.001 A 
HETATM   24  C   UNK N   1      36.312  11.180  16.044  0.00  0.00     0.008 A 
ENDBRANCH   4  19
ENDBRANCH   1   4
TORSDOF 6
ENDMDL
MODEL 7
REMARK VINA RESULT:      -6.0     11.974     14.637
REMARK  6 active torsions:
REMARK  status: ('A' for Active; 'I' for Inactive)
REMARK    1  A    between atoms: C_5  and  O_11 
REMARK    2  A    between atoms: C_8  and  O_10 
REMARK    3  A    between atoms: O_11  and  C_12 
REMARK    4  A    between atoms: C_14  and  C_12 
REMARK    5  A    between atoms: C_14  and  C_15 
REMARK    6  A    between atoms: C_14  and  C_17 
ROOT
HETATM    1  C   UNK N   1      28.369  17.279   8.055  0.00  0.00     0.183 C 
HETATM    2  O   UNK N   1      27.096  16.709   8.028  0.00  0.00    -0.400 OA
HETATM    3  H   UNK N   1      26.172  16.410   8.016  0.00  0.00     0.209 HD
ENDROOT
BRANCH   1   4
HETATM    4  C   UNK N   1      28.840  17.631   6.647  0.00  0.00     0.142 C 
BRANCH   4   5
HETATM    5  C   UNK N   1      29.176  16.454   5.776  0.00  0.00     0.270 C 
HETATM    6  O   UNK N   1      28.454  15.476   5.816  0.00  0.00    -0.264 OA
BRANCH   5   7
HETATM    7  O   UNK N   1      30.261  16.489   4.952  0.00  0.00    -0.315 OA
BRANCH   7   8
HETATM    8  C   UNK N   1      31.550  16.150   5.332  0.00  0.00     0.136 C 
HETATM    9  C   UNK N   1      32.455  17.361   5.663  0.00  0.00     0.068 C 
HETATM   10  C   UNK N   1      33.202  17.225   7.001  0.00  0.00     0.228 C 
HETATM   11  N   UNK N   1      33.682  15.851   7.123  0.00  0.00     0.096 N 
HETATM   12  C   UNK N   1      32.217  17.441   8.145  0.00  0.00     0.069 C 
HETATM   13  C   UNK N   1      34.685  15.776   8.180  0.00  0.00     0.310 C 
HETATM   14  C   UNK N   1      32.472  15.137   7.527  0.00  0.00     0.254 C 
HETATM   15  C   UNK N   1      31.599  14.929   6.280  0.00  0.00     0.071 C 
HETATM   16  C   UNK N   1      31.729  16.048   8.502  0.00  0.00     0.153 C 
BRANCH  16  17
HETATM   17  O   UNK N   1      32.121  15.757   9.809  0.00  0.00    -0.393 OA
HETATM   18  H   UNK N   1      31.924  15.093  10.488  0.00  0.00     0.210 HD
ENDBRANCH  16  17
ENDBRANCH   7   8
ENDBRANCH   5   7
ENDBRANCH   4   5
BRANCH   4  19
HETATM   19  C   UNK N   1      28.158  18.796   5.980  0.00  0.00    -0.043 A 
HETATM   20  C   UNK N   1      27.910  18.740   4.602  0.00  0.00     0.008 A 
HETATM   21  C   UNK N   1      27.225  19.778   3.964  0.00  0.00     0.001 A 
HETATM   22  C   UNK N   1      26.779  20.878   4.701  0.00  0.00     0.000 A 
HETATM   23  C   UNK N   1      27.022  20.941   6.077  0.00  0.00     0.001 A 
HETATM   24  C   UNK N   1      27.705  19.902   6.717  0.00  0.00     0.008 A 
ENDBRANCH   4  19
ENDBRANCH   1   4
TORSDOF 6
ENDMDL
MODEL 8
REMARK VINA RESULT:      -6.0     19.739     23.989
REMARK  6 active torsions:
REMARK  status: ('A' for Active; 'I' for Inactive)
REMARK    1  A    between atoms: C_5  and  O_11 
REMARK    2  A    between atoms: C_8  and  O_10 
REMARK    3  A    between atoms: O_11  and  C_12 
REMARK    4  A    between atoms: C_14  and  C_12 
REMARK    5  A    between atoms: C_14  and  C_15 
REMARK    6  A    between atoms: C_14  and  C_17 
ROOT
HETATM    1  C   UNK N   1      36.517  14.337  14.515  0.00  0.00     0.183 C 
HETATM    2  O   UNK N   1      37.646  14.173  15.319  0.00  0.00    -0.400 OA
HETATM    3  H   UNK N   1      38.379  14.110  15.952  0.00  0.00     0.209 HD
ENDROOT
BRANCH   1   4
HETATM    4  C   UNK N   1      35.535  13.186  14.713  0.00  0.00     0.142 C 
BRANCH   4   5
HETATM    5  C   UNK N   1      35.379  12.273  13.531  0.00  0.00     0.270 C 
HETATM    6  O   UNK N   1      34.343  11.646  13.412  0.00  0.00    -0.264 OA
BRANCH   5   7
HETATM    7  O   UNK N   1      36.374  12.160  12.605  0.00  0.00    -0.315 OA
BRANCH   7   8
HETATM    8  C   UNK N   1      36.289  12.615  11.299  0.00  0.00     0.136 C 
HETATM    9  C   UNK N   1      34.868  12.541  10.690  0.00  0.00     0.068 C 
HETATM   10  C   UNK N   1      34.418  13.847  10.013  0.00  0.00     0.228 C 
HETATM   11  N   UNK N   1      35.548  14.390   9.264  0.00  0.00     0.096 N 
HETATM   12  C   UNK N   1      34.080  14.874  11.088  0.00  0.00     0.069 C 
HETATM   13  C   UNK N   1      35.072  15.408   8.332  0.00  0.00     0.310 C 
HETATM   14  C   UNK N   1      36.348  15.010  10.319  0.00  0.00     0.254 C 
HETATM   15  C   UNK N   1      37.116  13.899  11.052  0.00  0.00     0.071 C 
HETATM   16  C   UNK N   1      35.366  15.655  11.293  0.00  0.00     0.153 C 
BRANCH  16  17
HETATM   17  O   UNK N   1      35.146  16.984  10.928  0.00  0.00    -0.393 OA
HETATM   18  H   UNK N   1      34.455  17.655  11.041  0.00  0.00     0.210 HD
ENDBRANCH  16  17
ENDBRANCH   7   8
ENDBRANCH   5   7
ENDBRANCH   4   5
BRANCH   4  19
HETATM   19  C   UNK N   1      35.514  12.545  16.074  0.00  0.00    -0.043 A 
HETATM   20  C   UNK N   1      36.051  11.259  16.228  0.00  0.00     0.008 A 
HETATM   21  C   UNK N   1      36.102  10.660  17.489  0.00  0.00     0.001 A 
HETATM   22  C   UNK N   1      35.620  11.344  18.608  0.00  0.00     0.000 A 
HETATM   23  C   UNK N   1      35.083  12.628  18.464  0.00  0.00     0.001 A 
HETATM   24  C   UNK N   1      35.034  13.229  17.202  0.00  0.00     0.008 A 
ENDBRANCH   4  19
ENDBRANCH   1   4
TORSDOF 6
ENDMDL
MODEL 9
REMARK VINA RESULT:      -5.9     20.261     24.433
REMARK  6 active torsions:
REMARK  status: ('A' for Active; 'I' for Inactive)
REMARK    1  A    between atoms: C_5  and  O_11 
REMARK    2  A    between atoms: C_8  and  O_10 
REMARK    3  A    between atoms: O_11  and  C_12 
REMARK    4  A    between atoms: C_14  and  C_12 
REMARK    5  A    between atoms: C_14  and  C_15 
REMARK    6  A    between atoms: C_14  and  C_17 
ROOT
HETATM    1  C   UNK N   1      36.583  14.193  15.262  0.00  0.00     0.183 C 
HETATM    2  O   UNK N   1      37.733  13.435  15.042  0.00  0.00    -0.400 OA
HETATM    3  H   UNK N   1      38.551  12.914  14.993  0.00  0.00     0.209 HD
ENDROOT
BRANCH   1   4
HETATM    4  C   UNK N   1      35.392  13.296  15.587  0.00  0.00     0.142 C 
BRANCH   4   5
HETATM    5  C   UNK N   1      34.894  12.461  14.442  0.00  0.00     0.270 C 
HETATM    6  O   UNK N   1      33.863  11.829  14.588  0.00  0.00    -0.264 OA
BRANCH   5   7
HETATM    7  O   UNK N   1      35.576  12.423  13.263  0.00  0.00    -0.315 OA
BRANCH   7   8
HETATM    8  C   UNK N   1      35.027  12.720  12.025  0.00  0.00     0.136 C 
HETATM    9  C   UNK N   1      34.807  14.231  11.774  0.00  0.00     0.068 C 
HETATM   10  C   UNK N   1      35.355  14.717  10.420  0.00  0.00     0.228 C 
HETATM   11  N   UNK N   1      35.036  13.715   9.408  0.00  0.00     0.096 N 
HETATM   12  C   UNK N   1      36.877  14.785  10.496  0.00  0.00     0.069 C 
HETATM   13  C   UNK N   1      35.211  14.291   8.078  0.00  0.00     0.310 C 
HETATM   14  C   UNK N   1      36.056  12.696   9.651  0.00  0.00     0.254 C 
HETATM   15  C   UNK N   1      35.629  11.875  10.878  0.00  0.00     0.071 C 
HETATM   16  C   UNK N   1      37.349  13.437   9.979  0.00  0.00     0.153 C 
BRANCH  16  17
HETATM   17  O   UNK N   1      38.086  13.638   8.812  0.00  0.00    -0.393 OA
HETATM   18  H   UNK N   1      37.968  13.516   7.857  0.00  0.00     0.210 HD
ENDBRANCH  16  17
ENDBRANCH   7   8
ENDBRANCH   5   7
ENDBRANCH   4   5
BRANCH   4  19
HETATM   19  C   UNK N   1      35.382  12.656  16.949  0.00  0.00    -0.043 A 
HETATM   20  C   UNK N   1      35.719  11.300  17.065  0.00  0.00     0.008 A 
HETATM   21  C   UNK N   1      35.779  10.692  18.321  0.00  0.00     0.001 A 
HETATM   22  C   UNK N   1      35.507  11.436  19.472  0.00  0.00     0.000 A 
HETATM   23  C   UNK N   1      35.172  12.789  19.366  0.00  0.00     0.001 A 
HETATM   24  C   UNK N   1      35.113  13.400  18.109  0.00  0.00     0.008 A 
ENDBRANCH   4  19
ENDBRANCH   1   4
TORSDOF 6
ENDMDL
