MODEL 1
REMARK VINA RESULT:      -6.3      0.000      0.000
REMARK  2 active torsions:
REMARK  status: ('A' for Active; 'I' for Inactive)
REMARK    1  A    between atoms: C_3  and  C_10 
REMARK    2  A    between atoms: C_3  and  O_17 
ROOT
HETATM    1  C   UNK N   1      37.100  14.469  15.506  0.00  0.00     0.038 C 
HETATM    2  C   UNK N   1      36.633  13.197  14.814  0.00  0.00     0.141 C 
HETATM    3  C   UNK N   1      35.427  12.417  15.421  0.00  0.00     0.211 C 
HETATM    4  O   UNK N   1      35.325  11.111  14.843  0.00  0.00    -0.347 OA
HETATM    5  C   UNK N   1      35.722  11.133  13.488  0.00  0.00     0.201 C 
HETATM    6  C   UNK N   1      37.237  11.410  13.375  0.00  0.00     0.040 C 
HETATM    7  N   UNK N   1      37.716  12.289  14.458  0.00  0.00    -0.402 N 
HETATM    8  C   UNK N   1      37.996  10.101  13.433  0.00  0.00     0.040 C 
HETATM    9  C   UNK N   1      37.504  12.062  12.031  0.00  0.00     0.040 C 
HETATM   10  H   UNK N   1      38.643  12.266  14.884  0.00  0.00     0.154 HD
ENDROOT
BRANCH   3  11
HETATM   11  C   UNK N   1      35.474  12.222  16.930  0.00  0.00     0.007 A 
HETATM   12  C   UNK N   1      35.072  13.221  17.837  0.00  0.00     0.013 A 
HETATM   13  C   UNK N   1      35.101  12.983  19.214  0.00  0.00     0.002 A 
HETATM   14  C   UNK N   1      35.530  11.748  19.703  0.00  0.00     0.024 A 
HETATM   15  C   UNK N   1      35.938  10.750  18.815  0.00  0.00     0.034 A 
HETATM   16  C   UNK N   1      35.913  10.990  17.438  0.00  0.00     0.036 A 
HETATM   17 Cl   UNK N   1      36.467   9.197  19.423  0.00  0.00    -0.084 Cl
ENDBRANCH   3  11
BRANCH   3  18
HETATM   18  O   UNK N   1      34.270  13.141  15.122  0.00  0.00    -0.360 OA
HETATM   19  H   UNK N   1      33.373  13.499  15.209  0.00  0.00     0.213 HD
ENDBRANCH   3  18
TORSDOF 2
ENDMDL
MODEL 2
REMARK VINA RESULT:      -6.2      2.279      3.163
REMARK  2 active torsions:
REMARK  status: ('A' for Active; 'I' for Inactive)
REMARK    1  A    between atoms: C_3  and  C_10 
REMARK    2  A    between atoms: C_3  and  O_17 
ROOT
HETATM    1  C   UNK N   1      33.527  10.713  14.602  0.00  0.00     0.038 C 
HETATM    2  C   UNK N   1      34.798  11.386  14.105  0.00  0.00     0.141 C 
HETATM    3  C   UNK N   1      36.032  11.444  15.055  0.00  0.00     0.211 C 
HETATM    4  O   UNK N   1      37.010  12.366  14.561  0.00  0.00    -0.347 OA
HETATM    5  C   UNK N   1      37.030  12.363  13.149  0.00  0.00     0.201 C 
HETATM    6  C   UNK N   1      35.721  12.963  12.591  0.00  0.00     0.040 C 
HETATM    7  N   UNK N   1      34.569  12.676  13.467  0.00  0.00    -0.402 N 
HETATM    8  C   UNK N   1      35.871  14.463  12.452  0.00  0.00     0.040 C 
HETATM    9  C   UNK N   1      35.475  12.374  11.214  0.00  0.00     0.040 C 
HETATM   10  H   UNK N   1      33.754  13.276  13.603  0.00  0.00     0.154 HD
ENDROOT
BRANCH   3  11
HETATM   11  C   UNK N   1      35.729  11.859  16.488  0.00  0.00     0.007 A 
HETATM   12  C   UNK N   1      35.636  10.931  17.543  0.00  0.00     0.013 A 
HETATM   13  C   UNK N   1      35.389  11.364  18.849  0.00  0.00     0.002 A 
HETATM   14  C   UNK N   1      35.233  12.725  19.119  0.00  0.00     0.024 A 
HETATM   15  C   UNK N   1      35.316  13.656  18.080  0.00  0.00     0.034 A 
HETATM   16  C   UNK N   1      35.558  13.222  16.774  0.00  0.00     0.036 A 
HETATM   17 Cl   UNK N   1      35.130  15.362  18.416  0.00  0.00    -0.084 Cl
ENDBRANCH   3  11
BRANCH   3  18
HETATM   18  O   UNK N   1      36.589  10.162  15.093  0.00  0.00    -0.360 OA
HETATM   19  H   UNK N   1      37.254   9.457  15.054  0.00  0.00     0.213 HD
ENDBRANCH   3  18
TORSDOF 2
ENDMDL
MODEL 3
REMARK VINA RESULT:      -6.0      4.730      6.861
REMARK  2 active torsions:
REMARK  status: ('A' for Active; 'I' for Inactive)
REMARK    1  A    between atoms: C_3  and  C_10 
REMARK    2  A    between atoms: C_3  and  O_17 
ROOT
HETATM    1  C   UNK N   1      37.364  12.633  10.669  0.00  0.00     0.038 C 
HETATM    2  C   UNK N   1      36.566  12.708  11.962  0.00  0.00     0.141 C 
HETATM    3  C   UNK N   1      35.102  13.242  11.905  0.00  0.00     0.211 C 
HETATM    4  O   UNK N   1      34.618  13.536  13.219  0.00  0.00    -0.347 OA
HETATM    5  C   UNK N   1      35.150  12.629  14.161  0.00  0.00     0.201 C 
HETATM    6  C   UNK N   1      36.669  12.854  14.328  0.00  0.00     0.040 C 
HETATM    7  N   UNK N   1      37.297  13.305  13.071  0.00  0.00    -0.402 N 
HETATM    8  C   UNK N   1      36.911  13.896  15.400  0.00  0.00     0.040 C 
HETATM    9  C   UNK N   1      37.299  11.548  14.774  0.00  0.00     0.040 C 
HETATM   10  H   UNK N   1      38.102  13.927  12.993  0.00  0.00     0.154 HD
ENDROOT
BRANCH   3  11
HETATM   11  C   UNK N   1      34.905  14.504  11.076  0.00  0.00     0.007 A 
HETATM   12  C   UNK N   1      35.513  15.731  11.405  0.00  0.00     0.013 A 
HETATM   13  C   UNK N   1      35.329  16.854  10.594  0.00  0.00     0.002 A 
HETATM   14  C   UNK N   1      34.539  16.768   9.447  0.00  0.00     0.024 A 
HETATM   15  C   UNK N   1      33.924  15.560   9.112  0.00  0.00     0.034 A 
HETATM   16  C   UNK N   1      34.105  14.438   9.926  0.00  0.00     0.036 A 
HETATM   17 Cl   UNK N   1      32.941  15.446   7.669  0.00  0.00    -0.084 Cl
ENDBRANCH   3  11
BRANCH   3  18
HETATM   18  O   UNK N   1      34.313  12.236  11.340  0.00  0.00    -0.360 OA
HETATM   19  H   UNK N   1      34.029  11.534  10.734  0.00  0.00     0.213 HD
ENDBRANCH   3  18
TORSDOF 2
ENDMDL
MODEL 4
REMARK VINA RESULT:      -5.8      3.573      4.852
REMARK  2 active torsions:
REMARK  status: ('A' for Active; 'I' for Inactive)
REMARK    1  A    between atoms: C_3  and  C_10 
REMARK    2  A    between atoms: C_3  and  O_17 
ROOT
HETATM    1  C   UNK N   1      37.804  13.072  11.017  0.00  0.00     0.038 C 
HETATM    2  C   UNK N   1      36.462  13.722  10.715  0.00  0.00     0.141 C 
HETATM    3  C   UNK N   1      35.719  14.469  11.864  0.00  0.00     0.211 C 
HETATM    4  O   UNK N   1      34.362  14.740  11.498  0.00  0.00    -0.347 OA
HETATM    5  C   UNK N   1      34.261  15.005  10.115  0.00  0.00     0.201 C 
HETATM    6  C   UNK N   1      34.558  13.728   9.299  0.00  0.00     0.040 C 
HETATM    7  N   UNK N   1      35.547  12.865   9.971  0.00  0.00    -0.402 N 
HETATM    8  C   UNK N   1      33.277  12.945   9.101  0.00  0.00     0.040 C 
HETATM    9  C   UNK N   1      35.084  14.143   7.937  0.00  0.00     0.040 C 
HETATM   10  H   UNK N   1      35.585  11.846   9.925  0.00  0.00     0.154 HD
ENDROOT
BRANCH   3  11
HETATM   11  C   UNK N   1      35.670  13.728  13.193  0.00  0.00     0.007 A 
HETATM   12  C   UNK N   1      36.471  14.090  14.293  0.00  0.00     0.013 A 
HETATM   13  C   UNK N   1      36.367  13.401  15.505  0.00  0.00     0.002 A 
HETATM   14  C   UNK N   1      35.463  12.345  15.635  0.00  0.00     0.024 A 
HETATM   15  C   UNK N   1      34.668  11.970  14.550  0.00  0.00     0.034 A 
HETATM   16  C   UNK N   1      34.776  12.657  13.337  0.00  0.00     0.036 A 
HETATM   17 Cl   UNK N   1      33.528  10.653  14.712  0.00  0.00    -0.084 Cl
ENDBRANCH   3  11
BRANCH   3  18
HETATM   18  O   UNK N   1      36.387  15.678  12.076  0.00  0.00    -0.360 OA
HETATM   19  H   UNK N   1      36.534  16.632  12.173  0.00  0.00     0.213 HD
ENDBRANCH   3  18
TORSDOF 2
ENDMDL
MODEL 5
REMARK VINA RESULT:      -5.8     26.050     27.730
REMARK  2 active torsions:
REMARK  status: ('A' for Active; 'I' for Inactive)
REMARK    1  A    between atoms: C_3  and  C_10 
REMARK    2  A    between atoms: C_3  and  O_17 
ROOT
HETATM    1  C   UNK N   1      29.157  25.354  -4.423  0.00  0.00     0.038 C 
HETATM    2  C   UNK N   1      28.016  26.306  -4.096  0.00  0.00     0.141 C 
HETATM    3  C   UNK N   1      26.550  25.801  -4.266  0.00  0.00     0.211 C 
HETATM    4  O   UNK N   1      25.628  26.895  -4.221  0.00  0.00    -0.347 OA
HETATM    5  C   UNK N   1      26.080  27.892  -3.329  0.00  0.00     0.201 C 
HETATM    6  C   UNK N   1      27.351  28.574  -3.882  0.00  0.00     0.040 C 
HETATM    7  N   UNK N   1      28.179  27.637  -4.666  0.00  0.00    -0.402 N 
HETATM    8  C   UNK N   1      26.956  29.738  -4.765  0.00  0.00     0.040 C 
HETATM    9  C   UNK N   1      28.154  29.108  -2.711  0.00  0.00     0.040 C 
HETATM   10  H   UNK N   1      28.763  27.879  -5.467  0.00  0.00     0.154 HD
ENDROOT
BRANCH   3  11
HETATM   11  C   UNK N   1      26.270  25.050  -5.560  0.00  0.00     0.007 A 
HETATM   12  C   UNK N   1      26.139  23.649  -5.611  0.00  0.00     0.013 A 
HETATM   13  C   UNK N   1      25.847  23.006  -6.818  0.00  0.00     0.002 A 
HETATM   14  C   UNK N   1      25.681  23.752  -7.986  0.00  0.00     0.024 A 
HETATM   15  C   UNK N   1      25.816  25.142  -7.952  0.00  0.00     0.034 A 
HETATM   16  C   UNK N   1      26.112  25.783  -6.746  0.00  0.00     0.036 A 
HETATM   17 Cl   UNK N   1      25.600  26.079  -9.413  0.00  0.00    -0.084 Cl
ENDBRANCH   3  11
BRANCH   3  18
HETATM   18  O   UNK N   1      26.283  24.933  -3.204  0.00  0.00    -0.360 OA
HETATM   19  H   UNK N   1      26.427  24.392  -2.412  0.00  0.00     0.213 HD
ENDBRANCH   3  18
TORSDOF 2
ENDMDL
MODEL 6
REMARK VINA RESULT:      -5.8     23.815     25.947
REMARK  2 active torsions:
REMARK  status: ('A' for Active; 'I' for Inactive)
REMARK    1  A    between atoms: C_3  and  C_10 
REMARK    2  A    between atoms: C_3  and  O_17 
ROOT
HETATM    1  C   UNK N   1      25.949  23.203  -5.917  0.00  0.00     0.038 C 
HETATM    2  C   UNK N   1      26.478  24.602  -5.635  0.00  0.00     0.141 C 
HETATM    3  C   UNK N   1      28.020  24.815  -5.560  0.00  0.00     0.211 C 
HETATM    4  O   UNK N   1      28.330  26.090  -4.989  0.00  0.00    -0.347 OA
HETATM    5  C   UNK N   1      27.361  27.049  -5.358  0.00  0.00     0.201 C 
HETATM    6  C   UNK N   1      26.004  26.728  -4.694  0.00  0.00     0.040 C 
HETATM    7  N   UNK N   1      25.803  25.275  -4.533  0.00  0.00    -0.402 N 
HETATM    8  C   UNK N   1      25.937  27.387  -3.333  0.00  0.00     0.040 C 
HETATM    9  C   UNK N   1      24.900  27.303  -5.562  0.00  0.00     0.040 C 
HETATM   10  H   UNK N   1      25.284  24.821  -3.781  0.00  0.00     0.154 HD
ENDROOT
BRANCH   3  11
HETATM   11  C   UNK N   1      28.779  23.778  -4.743  0.00  0.00     0.007 A 
HETATM   12  C   UNK N   1      28.826  23.807  -3.336  0.00  0.00     0.013 A 
HETATM   13  C   UNK N   1      29.507  22.813  -2.628  0.00  0.00     0.002 A 
HETATM   14  C   UNK N   1      30.147  21.778  -3.312  0.00  0.00     0.024 A 
HETATM   15  C   UNK N   1      30.114  21.740  -4.708  0.00  0.00     0.034 A 
HETATM   16  C   UNK N   1      29.437  22.737  -5.416  0.00  0.00     0.036 A 
HETATM   17 Cl   UNK N   1      30.907  20.440  -5.569  0.00  0.00    -0.084 Cl
ENDBRANCH   3  11
BRANCH   3  18
HETATM   18  O   UNK N   1      28.512  24.767  -6.867  0.00  0.00    -0.360 OA
HETATM   19  H   UNK N   1      28.532  24.636  -7.828  0.00  0.00     0.213 HD
ENDBRANCH   3  18
TORSDOF 2
ENDMDL
MODEL 7
REMARK VINA RESULT:      -5.7     13.287     14.738
REMARK  2 active torsions:
REMARK  status: ('A' for Active; 'I' for Inactive)
REMARK    1  A    between atoms: C_3  and  C_10 
REMARK    2  A    between atoms: C_3  and  O_17 
ROOT
HETATM    1  C   UNK N   1      26.556  16.238   5.472  0.00  0.00     0.038 C 
HETATM    2  C   UNK N   1      26.927  17.647   5.031  0.00  0.00     0.141 C 
HETATM    3  C   UNK N   1      28.437  18.017   4.909  0.00  0.00     0.211 C 
HETATM    4  O   UNK N   1      28.605  19.433   4.793  0.00  0.00    -0.347 OA
HETATM    5  C   UNK N   1      27.534  20.005   4.072  0.00  0.00     0.201 C 
HETATM    6  C   UNK N   1      26.224  19.908   4.886  0.00  0.00     0.040 C 
HETATM    7  N   UNK N   1      26.187  18.694   5.723  0.00  0.00    -0.402 N 
HETATM    8  C   UNK N   1      26.091  21.124   5.778  0.00  0.00     0.040 C 
HETATM    9  C   UNK N   1      25.058  19.894   3.914  0.00  0.00     0.040 C 
HETATM   10  H   UNK N   1      25.725  18.603   6.628  0.00  0.00     0.154 HD
ENDROOT
BRANCH   3  11
HETATM   11  C   UNK N   1      29.310  17.569   6.073  0.00  0.00     0.007 A 
HETATM   12  C   UNK N   1      30.314  16.591   5.936  0.00  0.00     0.013 A 
HETATM   13  C   UNK N   1      31.114  16.238   7.027  0.00  0.00     0.002 A 
HETATM   14  C   UNK N   1      30.924  16.855   8.264  0.00  0.00     0.024 A 
HETATM   15  C   UNK N   1      29.927  17.822   8.416  0.00  0.00     0.034 A 
HETATM   16  C   UNK N   1      29.125  18.172   7.326  0.00  0.00     0.036 A 
HETATM   17 Cl   UNK N   1      29.693  18.605   9.963  0.00  0.00    -0.084 Cl
ENDBRANCH   3  11
BRANCH   3  18
HETATM   18  O   UNK N   1      28.924  17.402   3.752  0.00  0.00    -0.360 OA
HETATM   19  H   UNK N   1      29.363  16.750   3.183  0.00  0.00     0.213 HD
ENDBRANCH   3  18
TORSDOF 2
ENDMDL
MODEL 8
REMARK VINA RESULT:      -5.7     23.592     25.679
REMARK  2 active torsions:
REMARK  status: ('A' for Active; 'I' for Inactive)
REMARK    1  A    between atoms: C_3  and  C_10 
REMARK    2  A    between atoms: C_3  and  O_17 
ROOT
HETATM    1  C   UNK N   1      28.757  26.680  -3.853  0.00  0.00     0.038 C 
HETATM    2  C   UNK N   1      27.573  25.898  -4.402  0.00  0.00     0.141 C 
HETATM    3  C   UNK N   1      27.352  24.436  -3.910  0.00  0.00     0.211 C 
HETATM    4  O   UNK N   1      26.405  23.758  -4.743  0.00  0.00    -0.347 OA
HETATM    5  C   UNK N   1      25.415  24.653  -5.202  0.00  0.00     0.201 C 
HETATM    6  C   UNK N   1      26.026  25.674  -6.187  0.00  0.00     0.040 C 
HETATM    7  N   UNK N   1      27.427  25.991  -5.849  0.00  0.00    -0.402 N 
HETATM    8  C   UNK N   1      25.976  25.113  -7.593  0.00  0.00     0.040 C 
HETATM    9  C   UNK N   1      25.191  26.940  -6.143  0.00  0.00     0.040 C 
HETATM   10  H   UNK N   1      28.164  26.232  -6.511  0.00  0.00     0.154 HD
ENDROOT
BRANCH   3  11
HETATM   11  C   UNK N   1      28.602  23.567  -3.878  0.00  0.00     0.007 A 
HETATM   12  C   UNK N   1      29.343  23.346  -2.701  0.00  0.00     0.013 A 
HETATM   13  C   UNK N   1      30.465  22.512  -2.715  0.00  0.00     0.002 A 
HETATM   14  C   UNK N   1      30.860  21.889  -3.899  0.00  0.00     0.024 A 
HETATM   15  C   UNK N   1      30.140  22.105  -5.076  0.00  0.00     0.034 A 
HETATM   16  C   UNK N   1      29.020  22.942  -5.063  0.00  0.00     0.036 A 
HETATM   17 Cl   UNK N   1      30.628  21.318  -6.560  0.00  0.00    -0.084 Cl
ENDBRANCH   3  11
BRANCH   3  18
HETATM   18  O   UNK N   1      26.850  24.505  -2.608  0.00  0.00    -0.360 OA
HETATM   19  H   UNK N   1      26.233  24.668  -1.878  0.00  0.00     0.213 HD
ENDBRANCH   3  18
TORSDOF 2
ENDMDL
MODEL 9
REMARK VINA RESULT:      -5.6      9.145     11.567
REMARK  2 active torsions:
REMARK  status: ('A' for Active; 'I' for Inactive)
REMARK    1  A    between atoms: C_3  and  C_10 
REMARK    2  A    between atoms: C_3  and  O_17 
ROOT
HETATM    1  C   UNK N   1      31.707  17.516   8.204  0.00  0.00     0.038 C 
HETATM    2  C   UNK N   1      32.958  16.652   8.281  0.00  0.00     0.141 C 
HETATM    3  C   UNK N   1      33.951  16.668   7.079  0.00  0.00     0.211 C 
HETATM    4  O   UNK N   1      34.885  15.588   7.178  0.00  0.00    -0.347 OA
HETATM    5  C   UNK N   1      35.198  15.322   8.529  0.00  0.00     0.201 C 
HETATM    6  C   UNK N   1      33.968  14.743   9.263  0.00  0.00     0.040 C 
HETATM    7  N   UNK N   1      32.705  15.289   8.731  0.00  0.00    -0.402 N 
HETATM    8  C   UNK N   1      33.953  13.236   9.113  0.00  0.00     0.040 C 
HETATM    9  C   UNK N   1      34.089  15.079  10.738  0.00  0.00     0.040 C 
HETATM   10  H   UNK N   1      31.811  14.799   8.686  0.00  0.00     0.154 HD
ENDROOT
BRANCH   3  11
HETATM   11  C   UNK N   1      33.306  16.560   5.704  0.00  0.00     0.007 A 
HETATM   12  C   UNK N   1      33.061  17.683   4.890  0.00  0.00     0.013 A 
HETATM   13  C   UNK N   1      32.499  17.530   3.620  0.00  0.00     0.002 A 
HETATM   14  C   UNK N   1      32.174  16.258   3.146  0.00  0.00     0.024 A 
HETATM   15  C   UNK N   1      32.405  15.136   3.945  0.00  0.00     0.034 A 
HETATM   16  C   UNK N   1      32.964  15.290   5.217  0.00  0.00     0.036 A 
HETATM   17 Cl   UNK N   1      32.008  13.539   3.351  0.00  0.00    -0.084 Cl
ENDBRANCH   3  11
BRANCH   3  18
HETATM   18  O   UNK N   1      34.645  17.881   7.128  0.00  0.00    -0.360 OA
HETATM   19  H   UNK N   1      34.919  18.761   7.429  0.00  0.00     0.213 HD
ENDBRANCH   3  18
TORSDOF 2
ENDMDL
