MODEL 1
REMARK VINA RESULT:      -6.7      0.000      0.000
REMARK  11 active torsions:
REMARK  status: ('A' for Active; 'I' for Inactive)
REMARK    1  A    between atoms: O_29  and  C_4 
REMARK    2  A    between atoms: C_11  and  C_10 
REMARK    3  A    between atoms: C_14  and  C_10 
REMARK    4  A    between atoms: C_15  and  C_11 
REMARK    5  A    between atoms: C_17  and  C_13 
REMARK    6  A    between atoms: N_21  and  C_13 
REMARK    7  A    between atoms: C_19  and  C_15 
REMARK    8  A    between atoms: C_15  and  N_21 
REMARK    9  A    between atoms: C_16  and  C_18 
REMARK       I    between atoms: N_23  and  C_17 
REMARK   10  A    between atoms: O_26  and  C_18 
REMARK   11  A    between atoms: O_29  and  C_19 
ROOT
HETATM    1  N   UNK N   1      27.006  24.271  -6.219  0.00  0.00    -0.397 N 
HETATM    2  H   UNK N   1      26.436  23.548  -5.782  0.00  0.00     0.154 HD
ENDROOT
BRANCH   1   3
HETATM    3  C   UNK N   1      28.291  24.755  -5.670  0.00  0.00     0.166 C 
HETATM    4  C   UNK N   1      29.264  25.235  -6.748  0.00  0.00     0.042 C 
BRANCH   3   5
HETATM    5  C   UNK N   1      28.823  23.811  -4.580  0.00  0.00     0.250 C 
HETATM    6  N   UNK N   1      29.424  22.571  -4.791  0.00  0.00    -0.251 N 
HETATM    7  C   UNK N   1      30.139  21.789  -3.766  0.00  0.00     0.213 C 
HETATM    8  C   UNK N   1      29.400  21.820  -5.918  0.00  0.00     0.327 C 
HETATM    9  C   UNK N   1      30.939  20.754  -4.610  0.00  0.00     0.164 C 
HETATM   10  N   UNK N   1      30.226  20.777  -5.855  0.00  0.00    -0.336 N 
HETATM   11  C   UNK N   1      30.431  19.835  -6.926  0.00  0.00     0.154 C 
HETATM   12  O   UNK N   1      28.666  22.005  -6.869  0.00  0.00    -0.247 OA
HETATM   13  O   UNK N   1      28.787  24.260  -3.446  0.00  0.00    -0.271 OA
BRANCH   7  14
HETATM   14  C   UNK N   1      30.970  22.495  -2.711  0.00  0.00     0.166 C 
HETATM   15  O   UNK N   1      32.116  22.835  -2.961  0.00  0.00    -0.648 OA
BRANCH  14  16
HETATM   16  O   UNK N   1      30.408  22.900  -1.555  0.00  0.00    -0.775 OA
HETATM   17  H   UNK N   1      30.679  23.552  -0.939  0.00  0.00     0.167 HD
ENDBRANCH  14  16
ENDBRANCH   7  14
ENDBRANCH   3   5
ENDBRANCH   1   3
BRANCH   1  18
HETATM   18  C   UNK N   1      26.651  24.961  -7.474  0.00  0.00     0.178 C 
BRANCH  18  19
HETATM   19  C   UNK N   1      25.805  26.196  -7.238  0.00  0.00     0.039 C 
BRANCH  19  20
HETATM   20  C   UNK N   1      25.218  26.418  -5.856  0.00  0.00     0.041 C 
BRANCH  20  21
HETATM   21  C   UNK N   1      25.874  27.668  -5.385  0.00  0.00    -0.058 A 
HETATM   22  C   UNK N   1      26.923  28.234  -6.126  0.00  0.00     0.007 A 
HETATM   23  C   UNK N   1      27.648  29.309  -5.605  0.00  0.00     0.001 A 
HETATM   24  C   UNK N   1      27.343  29.806  -4.335  0.00  0.00     0.000 A 
HETATM   25  C   UNK N   1      26.301  29.241  -3.593  0.00  0.00     0.001 A 
HETATM   26  C   UNK N   1      25.572  28.168  -4.115  0.00  0.00     0.007 A 
ENDBRANCH  20  21
ENDBRANCH  19  20
ENDBRANCH  18  19
BRANCH  18  27
HETATM   27  C   UNK N   1      26.044  24.004  -8.460  0.00  0.00     0.281 C 
HETATM   28  O   UNK N   1      26.494  23.920  -9.596  0.00  0.00    -0.263 OA
BRANCH  27  29
HETATM   29  O   UNK N   1      24.940  23.306  -8.102  0.00  0.00    -0.320 OA
BRANCH  29  30
HETATM   30  C   UNK N   1      24.872  21.937  -8.202  0.00  0.00     0.174 C 
HETATM   31  C   UNK N   1      24.543  21.348  -6.850  0.00  0.00     0.034 C 
ENDBRANCH  29  30
ENDBRANCH  27  29
ENDBRANCH  18  27
ENDBRANCH   1  18
TORSDOF 11
ENDMDL
MODEL 2
REMARK VINA RESULT:      -6.6     12.160     14.462
REMARK  11 active torsions:
REMARK  status: ('A' for Active; 'I' for Inactive)
REMARK    1  A    between atoms: O_29  and  C_4 
REMARK    2  A    between atoms: C_11  and  C_10 
REMARK    3  A    between atoms: C_14  and  C_10 
REMARK    4  A    between atoms: C_15  and  C_11 
REMARK    5  A    between atoms: C_17  and  C_13 
REMARK    6  A    between atoms: N_21  and  C_13 
REMARK    7  A    between atoms: C_19  and  C_15 
REMARK    8  A    between atoms: C_15  and  N_21 
REMARK    9  A    between atoms: C_16  and  C_18 
REMARK       I    between atoms: N_23  and  C_17 
REMARK   10  A    between atoms: O_26  and  C_18 
REMARK   11  A    between atoms: O_29  and  C_19 
ROOT
HETATM    1  N   UNK N   1      24.327  18.755   5.102  0.00  0.00    -0.397 N 
HETATM    2  H   UNK N   1      23.825  19.207   5.865  0.00  0.00     0.154 HD
ENDROOT
BRANCH   1   3
HETATM    3  C   UNK N   1      24.507  17.292   4.980  0.00  0.00     0.166 C 
HETATM    4  C   UNK N   1      25.204  16.877   3.685  0.00  0.00     0.042 C 
BRANCH   3   5
HETATM    5  C   UNK N   1      23.232  16.539   5.392  0.00  0.00     0.250 C 
HETATM    6  N   UNK N   1      23.160  15.487   6.304  0.00  0.00    -0.251 N 
HETATM    7  C   UNK N   1      21.914  14.936   6.868  0.00  0.00     0.213 C 
HETATM    8  C   UNK N   1      24.178  14.729   6.777  0.00  0.00     0.327 C 
HETATM    9  C   UNK N   1      22.416  14.119   8.094  0.00  0.00     0.164 C 
HETATM   10  N   UNK N   1      23.802  13.932   7.775  0.00  0.00    -0.336 N 
HETATM   11  C   UNK N   1      24.688  13.049   8.491  0.00  0.00     0.154 C 
HETATM   12  O   UNK N   1      25.304  14.700   6.318  0.00  0.00    -0.247 OA
HETATM   13  O   UNK N   1      22.195  16.989   4.933  0.00  0.00    -0.271 OA
BRANCH   7  14
HETATM   14  C   UNK N   1      20.745  15.853   7.177  0.00  0.00     0.166 C 
HETATM   15  O   UNK N   1      19.601  15.468   6.996  0.00  0.00    -0.648 OA
BRANCH  14  16
HETATM   16  O   UNK N   1      20.945  17.029   7.803  0.00  0.00    -0.775 OA
HETATM   17  H   UNK N   1      21.727  17.413   8.149  0.00  0.00     0.167 HD
ENDBRANCH  14  16
ENDBRANCH   7  14
ENDBRANCH   3   5
ENDBRANCH   1   3
BRANCH   1  18
HETATM   18  C   UNK N   1      24.962  19.481   3.983  0.00  0.00     0.178 C 
BRANCH  18  19
HETATM   19  C   UNK N   1      26.094  20.378   4.443  0.00  0.00     0.039 C 
BRANCH  19  20
HETATM   20  C   UNK N   1      27.517  19.981   4.097  0.00  0.00     0.041 C 
BRANCH  20  21
HETATM   21  C   UNK N   1      27.993  19.260   5.309  0.00  0.00    -0.058 A 
HETATM   22  C   UNK N   1      28.495  17.955   5.198  0.00  0.00     0.007 A 
HETATM   23  C   UNK N   1      28.787  17.217   6.349  0.00  0.00     0.001 A 
HETATM   24  C   UNK N   1      28.557  17.772   7.611  0.00  0.00     0.000 A 
HETATM   25  C   UNK N   1      28.052  19.071   7.723  0.00  0.00     0.001 A 
HETATM   26  C   UNK N   1      27.764  19.812   6.573  0.00  0.00     0.007 A 
ENDBRANCH  20  21
ENDBRANCH  19  20
ENDBRANCH  18  19
BRANCH  18  27
HETATM   27  C   UNK N   1      23.934  20.196   3.156  0.00  0.00     0.281 C 
HETATM   28  O   UNK N   1      24.282  20.977   2.278  0.00  0.00    -0.263 OA
BRANCH  27  29
HETATM   29  O   UNK N   1      22.623  20.035   3.455  0.00  0.00    -0.320 OA
BRANCH  29  30
HETATM   30  C   UNK N   1      21.621  20.572   2.682  0.00  0.00     0.174 C 
HETATM   31  C   UNK N   1      20.297  19.961   3.076  0.00  0.00     0.034 C 
ENDBRANCH  29  30
ENDBRANCH  27  29
ENDBRANCH  18  27
ENDBRANCH   1  18
TORSDOF 11
ENDMDL
MODEL 3
REMARK VINA RESULT:      -6.6      1.527      2.163
REMARK  11 active torsions:
REMARK  status: ('A' for Active; 'I' for Inactive)
REMARK    1  A    between atoms: O_29  and  C_4 
REMARK    2  A    between atoms: C_11  and  C_10 
REMARK    3  A    between atoms: C_14  and  C_10 
REMARK    4  A    between atoms: C_15  and  C_11 
REMARK    5  A    between atoms: C_17  and  C_13 
REMARK    6  A    between atoms: N_21  and  C_13 
REMARK    7  A    between atoms: C_19  and  C_15 
REMARK    8  A    between atoms: C_15  and  N_21 
REMARK    9  A    between atoms: C_16  and  C_18 
REMARK       I    between atoms: N_23  and  C_17 
REMARK   10  A    between atoms: O_26  and  C_18 
REMARK   11  A    between atoms: O_29  and  C_19 
ROOT
HETATM    1  N   UNK N   1      27.801  23.943  -4.159  0.00  0.00    -0.397 N 
HETATM    2  H   UNK N   1      27.362  23.154  -3.685  0.00  0.00     0.154 HD
ENDROOT
BRANCH   1   3
HETATM    3  C   UNK N   1      29.240  24.269  -4.064  0.00  0.00     0.166 C 
HETATM    4  C   UNK N   1      29.748  25.101  -5.242  0.00  0.00     0.042 C 
BRANCH   3   5
HETATM    5  C   UNK N   1      30.061  23.043  -3.633  0.00  0.00     0.250 C 
HETATM    6  N   UNK N   1      30.380  21.947  -4.432  0.00  0.00    -0.251 N 
HETATM    7  C   UNK N   1      31.359  20.900  -4.087  0.00  0.00     0.213 C 
HETATM    8  C   UNK N   1      29.813  21.586  -5.608  0.00  0.00     0.327 C 
HETATM    9  C   UNK N   1      31.622  20.202  -5.453  0.00  0.00     0.164 C 
HETATM   10  N   UNK N   1      30.469  20.597  -6.211  0.00  0.00    -0.336 N 
HETATM   11  C   UNK N   1      30.111  20.043  -7.492  0.00  0.00     0.154 C 
HETATM   12  O   UNK N   1      28.779  22.043  -6.059  0.00  0.00    -0.247 OA
HETATM   13  O   UNK N   1      30.543  23.113  -2.514  0.00  0.00    -0.271 OA
BRANCH   7  14
HETATM   14  C   UNK N   1      32.623  21.259  -3.327  0.00  0.00     0.166 C 
HETATM   15  O   UNK N   1      33.578  21.735  -3.920  0.00  0.00    -0.648 OA
BRANCH  14  16
HETATM   16  O   UNK N   1      32.648  21.215  -1.981  0.00  0.00    -0.775 OA
HETATM   17  H   UNK N   1      31.951  21.238  -1.354  0.00  0.00     0.167 HD
ENDBRANCH  14  16
ENDBRANCH   7  14
ENDBRANCH   3   5
ENDBRANCH   1   3
BRANCH   1  18
HETATM   18  C   UNK N   1      27.077  24.897  -5.022  0.00  0.00     0.178 C 
BRANCH  18  19
HETATM   19  C   UNK N   1      26.357  25.968  -4.226  0.00  0.00     0.039 C 
BRANCH  19  20
HETATM   20  C   UNK N   1      25.432  26.919  -4.963  0.00  0.00     0.041 C 
BRANCH  20  21
HETATM   21  C   UNK N   1      26.186  28.202  -4.991  0.00  0.00    -0.058 A 
HETATM   22  C   UNK N   1      27.154  28.426  -5.982  0.00  0.00     0.007 A 
HETATM   23  C   UNK N   1      27.977  29.554  -5.914  0.00  0.00     0.001 A 
HETATM   24  C   UNK N   1      27.849  30.447  -4.848  0.00  0.00     0.000 A 
HETATM   25  C   UNK N   1      26.888  30.224  -3.857  0.00  0.00     0.001 A 
HETATM   26  C   UNK N   1      26.061  29.098  -3.925  0.00  0.00     0.007 A 
ENDBRANCH  20  21
ENDBRANCH  19  20
ENDBRANCH  18  19
BRANCH  18  27
HETATM   27  C   UNK N   1      26.186  24.176  -5.991  0.00  0.00     0.281 C 
HETATM   28  O   UNK N   1      25.218  23.543  -5.587  0.00  0.00    -0.263 OA
BRANCH  27  29
HETATM   29  O   UNK N   1      26.521  24.161  -7.304  0.00  0.00    -0.320 OA
BRANCH  29  30
HETATM   30  C   UNK N   1      27.079  25.249  -7.932  0.00  0.00     0.174 C 
HETATM   31  C   UNK N   1      25.989  26.075  -8.574  0.00  0.00     0.034 C 
ENDBRANCH  29  30
ENDBRANCH  27  29
ENDBRANCH  18  27
ENDBRANCH   1  18
TORSDOF 11
ENDMDL
MODEL 4
REMARK VINA RESULT:      -6.5     13.258     15.166
REMARK  11 active torsions:
REMARK  status: ('A' for Active; 'I' for Inactive)
REMARK    1  A    between atoms: O_29  and  C_4 
REMARK    2  A    between atoms: C_11  and  C_10 
REMARK    3  A    between atoms: C_14  and  C_10 
REMARK    4  A    between atoms: C_15  and  C_11 
REMARK    5  A    between atoms: C_17  and  C_13 
REMARK    6  A    between atoms: N_21  and  C_13 
REMARK    7  A    between atoms: C_19  and  C_15 
REMARK    8  A    between atoms: C_15  and  N_21 
REMARK    9  A    between atoms: C_16  and  C_18 
REMARK       I    between atoms: N_23  and  C_17 
REMARK   10  A    between atoms: O_26  and  C_18 
REMARK   11  A    between atoms: O_29  and  C_19 
ROOT
HETATM    1  N   UNK N   1      22.966  18.249   5.450  0.00  0.00    -0.397 N 
HETATM    2  H   UNK N   1      23.027  18.875   6.252  0.00  0.00     0.154 HD
ENDROOT
BRANCH   1   3
HETATM    3  C   UNK N   1      22.882  16.777   5.552  0.00  0.00     0.166 C 
HETATM    4  C   UNK N   1      23.181  16.063   4.233  0.00  0.00     0.042 C 
BRANCH   3   5
HETATM    5  C   UNK N   1      21.639  16.344   6.346  0.00  0.00     0.250 C 
HETATM    6  N   UNK N   1      21.615  15.430   7.398  0.00  0.00    -0.251 N 
HETATM    7  C   UNK N   1      20.471  15.204   8.300  0.00  0.00     0.213 C 
HETATM    8  C   UNK N   1      22.572  14.535   7.740  0.00  0.00     0.327 C 
HETATM    9  C   UNK N   1      21.112  14.436   9.493  0.00  0.00     0.164 C 
HETATM   10  N   UNK N   1      22.324  13.940   8.905  0.00  0.00    -0.336 N 
HETATM   11  C   UNK N   1      23.194  12.975   9.529  0.00  0.00     0.154 C 
HETATM   12  O   UNK N   1      23.528  14.232   7.052  0.00  0.00    -0.247 OA
HETATM   13  O   UNK N   1      20.614  16.944   6.067  0.00  0.00    -0.271 OA
BRANCH   7  14
HETATM   14  C   UNK N   1      19.590  16.366   8.721  0.00  0.00     0.166 C 
HETATM   15  O   UNK N   1      18.403  16.185   8.942  0.00  0.00    -0.648 OA
BRANCH  14  16
HETATM   16  O   UNK N   1      20.131  17.564   9.014  0.00  0.00    -0.775 OA
HETATM   17  H   UNK N   1      20.852  18.022   8.626  0.00  0.00     0.167 HD
ENDBRANCH  14  16
ENDBRANCH   7  14
ENDBRANCH   3   5
ENDBRANCH   1   3
BRANCH   1  18
HETATM   18  C   UNK N   1      22.950  18.704   4.045  0.00  0.00     0.178 C 
BRANCH  18  19
HETATM   19  C   UNK N   1      24.042  19.713   3.750  0.00  0.00     0.039 C 
BRANCH  19  20
HETATM   20  C   UNK N   1      25.433  19.201   3.426  0.00  0.00     0.041 C 
BRANCH  20  21
HETATM   21  C   UNK N   1      26.188  19.389   4.695  0.00  0.00    -0.058 A 
HETATM   22  C   UNK N   1      26.381  20.678   5.214  0.00  0.00     0.007 A 
HETATM   23  C   UNK N   1      27.226  20.873   6.309  0.00  0.00     0.001 A 
HETATM   24  C   UNK N   1      27.895  19.785   6.876  0.00  0.00     0.000 A 
HETATM   25  C   UNK N   1      27.707  18.500   6.359  0.00  0.00     0.001 A 
HETATM   26  C   UNK N   1      26.859  18.303   5.265  0.00  0.00     0.007 A 
ENDBRANCH  20  21
ENDBRANCH  19  20
ENDBRANCH  18  19
BRANCH  18  27
HETATM   27  C   UNK N   1      21.581  19.175   3.649  0.00  0.00     0.281 C 
HETATM   28  O   UNK N   1      20.926  19.879   4.408  0.00  0.00    -0.263 OA
BRANCH  27  29
HETATM   29  O   UNK N   1      21.048  18.737   2.483  0.00  0.00    -0.320 OA
BRANCH  29  30
HETATM   30  C   UNK N   1      20.136  17.710   2.432  0.00  0.00     0.174 C 
HETATM   31  C   UNK N   1      20.103  17.133   1.036  0.00  0.00     0.034 C 
ENDBRANCH  29  30
ENDBRANCH  27  29
ENDBRANCH  18  27
ENDBRANCH   1  18
TORSDOF 11
ENDMDL
MODEL 5
REMARK VINA RESULT:      -6.5     12.678     15.615
REMARK  11 active torsions:
REMARK  status: ('A' for Active; 'I' for Inactive)
REMARK    1  A    between atoms: O_29  and  C_4 
REMARK    2  A    between atoms: C_11  and  C_10 
REMARK    3  A    between atoms: C_14  and  C_10 
REMARK    4  A    between atoms: C_15  and  C_11 
REMARK    5  A    between atoms: C_17  and  C_13 
REMARK    6  A    between atoms: N_21  and  C_13 
REMARK    7  A    between atoms: C_19  and  C_15 
REMARK    8  A    between atoms: C_15  and  N_21 
REMARK    9  A    between atoms: C_16  and  C_18 
REMARK       I    between atoms: N_23  and  C_17 
REMARK   10  A    between atoms: O_26  and  C_18 
REMARK   11  A    between atoms: O_29  and  C_19 
ROOT
HETATM    1  N   UNK N   1      29.519  18.055   7.561  0.00  0.00    -0.397 N 
HETATM    2  H   UNK N   1      29.650  19.062   7.470  0.00  0.00     0.154 HD
ENDROOT
BRANCH   1   3
HETATM    3  C   UNK N   1      30.140  17.231   8.621  0.00  0.00     0.166 C 
HETATM    4  C   UNK N   1      29.288  17.135   9.886  0.00  0.00     0.042 C 
BRANCH   3   5
HETATM    5  C   UNK N   1      31.635  17.556   8.775  0.00  0.00     0.250 C 
HETATM    6  N   UNK N   1      32.676  16.630   8.810  0.00  0.00    -0.251 N 
HETATM    7  C   UNK N   1      34.109  16.960   8.718  0.00  0.00     0.213 C 
HETATM    8  C   UNK N   1      32.589  15.294   9.015  0.00  0.00     0.327 C 
HETATM    9  C   UNK N   1      34.765  15.588   8.386  0.00  0.00     0.164 C 
HETATM   10  N   UNK N   1      33.746  14.668   8.803  0.00  0.00    -0.336 N 
HETATM   11  C   UNK N   1      33.932  13.243   8.909  0.00  0.00     0.154 C 
HETATM   12  O   UNK N   1      31.603  14.708   9.418  0.00  0.00    -0.247 OA
HETATM   13  O   UNK N   1      31.908  18.745   8.767  0.00  0.00    -0.271 OA
BRANCH   7  14
HETATM   14  C   UNK N   1      34.574  18.095   7.824  0.00  0.00     0.166 C 
HETATM   15  O   UNK N   1      34.412  18.028   6.616  0.00  0.00    -0.648 OA
BRANCH  14  16
HETATM   16  O   UNK N   1      35.015  19.251   8.358  0.00  0.00    -0.775 OA
HETATM   17  H   UNK N   1      35.878  19.521   8.606  0.00  0.00     0.167 HD
ENDBRANCH  14  16
ENDBRANCH   7  14
ENDBRANCH   3   5
ENDBRANCH   1   3
BRANCH   1  18
HETATM   18  C   UNK N   1      28.688  17.242   6.651  0.00  0.00     0.178 C 
BRANCH  18  19
HETATM   19  C   UNK N   1      29.495  16.615   5.533  0.00  0.00     0.039 C 
BRANCH  19  20
HETATM   20  C   UNK N   1      30.427  17.501   4.728  0.00  0.00     0.041 C 
BRANCH  20  21
HETATM   21  C   UNK N   1      31.562  16.603   4.378  0.00  0.00    -0.058 A 
HETATM   22  C   UNK N   1      32.081  15.721   5.338  0.00  0.00     0.007 A 
HETATM   23  C   UNK N   1      33.247  14.999   5.068  0.00  0.00     0.001 A 
HETATM   24  C   UNK N   1      33.907  15.172   3.848  0.00  0.00     0.000 A 
HETATM   25  C   UNK N   1      33.394  16.054   2.893  0.00  0.00     0.001 A 
HETATM   26  C   UNK N   1      32.226  16.774   3.160  0.00  0.00     0.007 A 
ENDBRANCH  20  21
ENDBRANCH  19  20
ENDBRANCH  18  19
BRANCH  18  27
HETATM   27  C   UNK N   1      27.503  18.025   6.164  0.00  0.00     0.281 C 
HETATM   28  O   UNK N   1      26.672  17.499   5.433  0.00  0.00    -0.263 OA
BRANCH  27  29
HETATM   29  O   UNK N   1      27.417  19.342   6.469  0.00  0.00    -0.320 OA
BRANCH  29  30
HETATM   30  C   UNK N   1      27.076  20.292   5.536  0.00  0.00     0.174 C 
HETATM   31  C   UNK N   1      27.077  21.657   6.182  0.00  0.00     0.034 C 
ENDBRANCH  29  30
ENDBRANCH  27  29
ENDBRANCH  18  27
ENDBRANCH   1  18
TORSDOF 11
ENDMDL
MODEL 6
REMARK VINA RESULT:      -6.4      1.991      3.247
REMARK  11 active torsions:
REMARK  status: ('A' for Active; 'I' for Inactive)
REMARK    1  A    between atoms: O_29  and  C_4 
REMARK    2  A    between atoms: C_11  and  C_10 
REMARK    3  A    between atoms: C_14  and  C_10 
REMARK    4  A    between atoms: C_15  and  C_11 
REMARK    5  A    between atoms: C_17  and  C_13 
REMARK    6  A    between atoms: N_21  and  C_13 
REMARK    7  A    between atoms: C_19  and  C_15 
REMARK    8  A    between atoms: C_15  and  N_21 
REMARK    9  A    between atoms: C_16  and  C_18 
REMARK       I    between atoms: N_23  and  C_17 
REMARK   10  A    between atoms: O_26  and  C_18 
REMARK   11  A    between atoms: O_29  and  C_19 
ROOT
HETATM    1  N   UNK N   1      25.186  23.916  -7.994  0.00  0.00    -0.397 N 
HETATM    2  H   UNK N   1      24.236  24.071  -7.659  0.00  0.00     0.154 HD
ENDROOT
BRANCH   1   3
HETATM    3  C   UNK N   1      26.071  22.837  -7.506  0.00  0.00     0.166 C 
HETATM    4  C   UNK N   1      25.536  21.436  -7.806  0.00  0.00     0.042 C 
BRANCH   3   5
HETATM    5  C   UNK N   1      26.577  23.132  -6.085  0.00  0.00     0.250 C 
HETATM    6  N   UNK N   1      27.899  23.054  -5.653  0.00  0.00    -0.251 N 
HETATM    7  C   UNK N   1      28.404  23.565  -4.365  0.00  0.00     0.213 C 
HETATM    8  C   UNK N   1      28.938  22.440  -6.269  0.00  0.00     0.327 C 
HETATM    9  C   UNK N   1      29.945  23.604  -4.583  0.00  0.00     0.164 C 
HETATM   10  N   UNK N   1      30.107  22.708  -5.692  0.00  0.00    -0.336 N 
HETATM   11  C   UNK N   1      31.379  22.220  -6.162  0.00  0.00     0.154 C 
HETATM   12  O   UNK N   1      28.842  21.665  -7.202  0.00  0.00    -0.247 OA
HETATM   13  O   UNK N   1      25.733  23.562  -5.316  0.00  0.00    -0.271 OA
BRANCH   7  14
HETATM   14  C   UNK N   1      27.834  24.843  -3.776  0.00  0.00     0.166 C 
HETATM   15  O   UNK N   1      28.326  25.922  -4.065  0.00  0.00    -0.648 OA
BRANCH  14  16
HETATM   16  O   UNK N   1      26.688  24.818  -3.068  0.00  0.00    -0.775 OA
HETATM   17  H   UNK N   1      26.427  24.283  -2.344  0.00  0.00     0.167 HD
ENDBRANCH  14  16
ENDBRANCH   7  14
ENDBRANCH   3   5
ENDBRANCH   1   3
BRANCH   1  18
HETATM   18  C   UNK N   1      25.844  24.741  -9.026  0.00  0.00     0.178 C 
BRANCH  18  19
HETATM   19  C   UNK N   1      25.937  26.201  -8.629  0.00  0.00     0.039 C 
BRANCH  19  20
HETATM   20  C   UNK N   1      27.198  26.685  -7.939  0.00  0.00     0.041 C 
BRANCH  20  21
HETATM   21  C   UNK N   1      26.694  27.423  -6.749  0.00  0.00    -0.058 A 
HETATM   22  C   UNK N   1      27.441  28.482  -6.210  0.00  0.00     0.007 A 
HETATM   23  C   UNK N   1      27.055  29.066  -5.001  0.00  0.00     0.001 A 
HETATM   24  C   UNK N   1      25.937  28.581  -4.317  0.00  0.00     0.000 A 
HETATM   25  C   UNK N   1      25.194  27.524  -4.849  0.00  0.00     0.001 A 
HETATM   26  C   UNK N   1      25.576  26.940  -6.061  0.00  0.00     0.007 A 
ENDBRANCH  20  21
ENDBRANCH  19  20
ENDBRANCH  18  19
BRANCH  18  27
HETATM   27  C   UNK N   1      25.209  24.529 -10.370  0.00  0.00     0.281 C 
HETATM   28  O   UNK N   1      25.565  23.596 -11.081  0.00  0.00    -0.263 OA
BRANCH  27  29
HETATM   29  O   UNK N   1      24.306  25.433 -10.819  0.00  0.00    -0.320 OA
BRANCH  29  30
HETATM   30  C   UNK N   1      24.341  25.933 -12.099  0.00  0.00     0.174 C 
HETATM   31  C   UNK N   1      25.407  26.999 -12.195  0.00  0.00     0.034 C 
ENDBRANCH  29  30
ENDBRANCH  27  29
ENDBRANCH  18  27
ENDBRANCH   1  18
TORSDOF 11
ENDMDL
MODEL 7
REMARK VINA RESULT:      -6.4     19.713     24.153
REMARK  11 active torsions:
REMARK  status: ('A' for Active; 'I' for Inactive)
REMARK    1  A    between atoms: O_29  and  C_4 
REMARK    2  A    between atoms: C_11  and  C_10 
REMARK    3  A    between atoms: C_14  and  C_10 
REMARK    4  A    between atoms: C_15  and  C_11 
REMARK    5  A    between atoms: C_17  and  C_13 
REMARK    6  A    between atoms: N_21  and  C_13 
REMARK    7  A    between atoms: C_19  and  C_15 
REMARK    8  A    between atoms: C_15  and  N_21 
REMARK    9  A    between atoms: C_16  and  C_18 
REMARK       I    between atoms: N_23  and  C_17 
REMARK   10  A    between atoms: O_26  and  C_18 
REMARK   11  A    between atoms: O_29  and  C_19 
ROOT
HETATM    1  N   UNK N   1      34.508  12.340  12.430  0.00  0.00    -0.397 N 
HETATM    2  H   UNK N   1      33.793  13.030  12.203  0.00  0.00     0.154 HD
ENDROOT
BRANCH   1   3
HETATM    3  C   UNK N   1      34.776  11.128  11.627  0.00  0.00     0.166 C 
HETATM    4  C   UNK N   1      34.668   9.834  12.433  0.00  0.00     0.042 C 
BRANCH   3   5
HETATM    5  C   UNK N   1      36.005  11.320  10.723  0.00  0.00     0.250 C 
HETATM    6  N   UNK N   1      36.144  12.279   9.721  0.00  0.00    -0.251 N 
HETATM    7  C   UNK N   1      37.403  12.607   9.029  0.00  0.00     0.213 C 
HETATM    8  C   UNK N   1      35.169  13.018   9.140  0.00  0.00     0.327 C 
HETATM    9  C   UNK N   1      37.088  13.975   8.357  0.00  0.00     0.164 C 
HETATM   10  N   UNK N   1      35.653  13.976   8.352  0.00  0.00    -0.336 N 
HETATM   11  C   UNK N   1      34.844  14.933   7.641  0.00  0.00     0.154 C 
HETATM   12  O   UNK N   1      33.975  12.814   9.247  0.00  0.00    -0.247 OA
HETATM   13  O   UNK N   1      36.962  10.615  10.997  0.00  0.00    -0.271 OA
BRANCH   7  14
HETATM   14  C   UNK N   1      38.718  12.583   9.786  0.00  0.00     0.166 C 
HETATM   15  O   UNK N   1      39.722  12.135   9.256  0.00  0.00    -0.648 OA
BRANCH  14  16
HETATM   16  O   UNK N   1      38.833  13.202  10.977  0.00  0.00    -0.775 OA
HETATM   17  H   UNK N   1      38.657  12.896  11.846  0.00  0.00     0.167 HD
ENDBRANCH  14  16
ENDBRANCH   7  14
ENDBRANCH   3   5
ENDBRANCH   1   3
BRANCH   1  18
HETATM   18  C   UNK N   1      35.403  12.431  13.602  0.00  0.00     0.178 C 
BRANCH  18  19
HETATM   19  C   UNK N   1      34.655  12.298  14.913  0.00  0.00     0.039 C 
BRANCH  19  20
HETATM   20  C   UNK N   1      34.923  11.082  15.779  0.00  0.00     0.041 C 
BRANCH  20  21
HETATM   21  C   UNK N   1      35.190  11.653  17.127  0.00  0.00    -0.058 A 
HETATM   22  C   UNK N   1      35.413  10.801  18.219  0.00  0.00     0.007 A 
HETATM   23  C   UNK N   1      35.500  11.327  19.511  0.00  0.00     0.001 A 
HETATM   24  C   UNK N   1      35.343  12.700  19.717  0.00  0.00     0.000 A 
HETATM   25  C   UNK N   1      35.117  13.550  18.631  0.00  0.00     0.001 A 
HETATM   26  C   UNK N   1      35.034  13.026  17.337  0.00  0.00     0.007 A 
ENDBRANCH  20  21
ENDBRANCH  19  20
ENDBRANCH  18  19
BRANCH  18  27
HETATM   27  C   UNK N   1      36.261  13.660  13.527  0.00  0.00     0.281 C 
HETATM   28  O   UNK N   1      36.462  14.209  12.451  0.00  0.00    -0.263 OA
BRANCH  27  29
HETATM   29  O   UNK N   1      36.881  14.096  14.650  0.00  0.00    -0.320 OA
BRANCH  29  30
HETATM   30  C   UNK N   1      36.878  15.419  15.025  0.00  0.00     0.174 C 
HETATM   31  C   UNK N   1      37.505  15.557  16.392  0.00  0.00     0.034 C 
ENDBRANCH  29  30
ENDBRANCH  27  29
ENDBRANCH  18  27
ENDBRANCH   1  18
TORSDOF 11
ENDMDL
MODEL 8
REMARK VINA RESULT:      -6.3     18.624     23.081
REMARK  11 active torsions:
REMARK  status: ('A' for Active; 'I' for Inactive)
REMARK    1  A    between atoms: O_29  and  C_4 
REMARK    2  A    between atoms: C_11  and  C_10 
REMARK    3  A    between atoms: C_14  and  C_10 
REMARK    4  A    between atoms: C_15  and  C_11 
REMARK    5  A    between atoms: C_17  and  C_13 
REMARK    6  A    between atoms: N_21  and  C_13 
REMARK    7  A    between atoms: C_19  and  C_15 
REMARK    8  A    between atoms: C_15  and  N_21 
REMARK    9  A    between atoms: C_16  and  C_18 
REMARK       I    between atoms: N_23  and  C_17 
REMARK   10  A    between atoms: O_26  and  C_18 
REMARK   11  A    between atoms: O_29  and  C_19 
ROOT
HETATM    1  N   UNK N   1      37.813  13.182  11.963  0.00  0.00    -0.397 N 
HETATM    2  H   UNK N   1      38.595  13.589  12.475  0.00  0.00     0.154 HD
ENDROOT
BRANCH   1   3
HETATM    3  C   UNK N   1      37.743  13.097  10.488  0.00  0.00     0.166 C 
HETATM    4  C   UNK N   1      39.066  12.682   9.844  0.00  0.00     0.042 C 
BRANCH   3   5
HETATM    5  C   UNK N   1      36.994  14.303   9.897  0.00  0.00     0.250 C 
HETATM    6  N   UNK N   1      35.863  14.248   9.086  0.00  0.00    -0.251 N 
HETATM    7  C   UNK N   1      35.020  15.402   8.724  0.00  0.00     0.213 C 
HETATM    8  C   UNK N   1      35.372  13.176   8.419  0.00  0.00     0.327 C 
HETATM    9  C   UNK N   1      33.719  14.734   8.192  0.00  0.00     0.164 C 
HETATM   10  N   UNK N   1      34.174  13.408   7.886  0.00  0.00    -0.336 N 
HETATM   11  C   UNK N   1      33.404  12.432   7.157  0.00  0.00     0.154 C 
HETATM   12  O   UNK N   1      35.963  12.127   8.243  0.00  0.00    -0.247 OA
HETATM   13  O   UNK N   1      37.397  15.393  10.268  0.00  0.00    -0.271 OA
BRANCH   7  14
HETATM   14  C   UNK N   1      34.773  16.511   9.731  0.00  0.00     0.166 C 
HETATM   15  O   UNK N   1      34.700  17.671   9.358  0.00  0.00    -0.648 OA
BRANCH  14  16
HETATM   16  O   UNK N   1      34.468  16.218  11.010  0.00  0.00    -0.775 OA
HETATM   17  H   UNK N   1      33.784  15.689  11.371  0.00  0.00     0.167 HD
ENDBRANCH  14  16
ENDBRANCH   7  14
ENDBRANCH   3   5
ENDBRANCH   1   3
BRANCH   1  18
HETATM   18  C   UNK N   1      36.615  12.604  12.603  0.00  0.00     0.178 C 
BRANCH  18  19
HETATM   19  C   UNK N   1      36.375  13.160  13.993  0.00  0.00     0.039 C 
BRANCH  19  20
HETATM   20  C   UNK N   1      35.008  12.968  14.623  0.00  0.00     0.041 C 
BRANCH  20  21
HETATM   21  C   UNK N   1      35.313  12.540  16.016  0.00  0.00    -0.058 A 
HETATM   22  C   UNK N   1      35.711  11.220  16.273  0.00  0.00     0.007 A 
HETATM   23  C   UNK N   1      35.837  10.771  17.591  0.00  0.00     0.001 A 
HETATM   24  C   UNK N   1      35.546  11.632  18.652  0.00  0.00     0.000 A 
HETATM   25  C   UNK N   1      35.145  12.947  18.398  0.00  0.00     0.001 A 
HETATM   26  C   UNK N   1      35.022  13.399  17.080  0.00  0.00     0.007 A 
ENDBRANCH  20  21
ENDBRANCH  19  20
ENDBRANCH  18  19
BRANCH  18  27
HETATM   27  C   UNK N   1      36.654  11.104  12.561  0.00  0.00     0.281 C 
HETATM   28  O   UNK N   1      37.435  10.486  13.274  0.00  0.00    -0.263 OA
BRANCH  27  29
HETATM   29  O   UNK N   1      35.880  10.453  11.660  0.00  0.00    -0.320 OA
BRANCH  29  30
HETATM   30  C   UNK N   1      34.554  10.761  11.472  0.00  0.00     0.174 C 
HETATM   31  C   UNK N   1      33.726  10.107  12.553  0.00  0.00     0.034 C 
ENDBRANCH  29  30
ENDBRANCH  27  29
ENDBRANCH  18  27
ENDBRANCH   1  18
TORSDOF 11
ENDMDL
MODEL 9
REMARK VINA RESULT:      -6.3     15.635     19.537
REMARK  11 active torsions:
REMARK  status: ('A' for Active; 'I' for Inactive)
REMARK    1  A    between atoms: O_29  and  C_4 
REMARK    2  A    between atoms: C_11  and  C_10 
REMARK    3  A    between atoms: C_14  and  C_10 
REMARK    4  A    between atoms: C_15  and  C_11 
REMARK    5  A    between atoms: C_17  and  C_13 
REMARK    6  A    between atoms: N_21  and  C_13 
REMARK    7  A    between atoms: C_19  and  C_15 
REMARK    8  A    between atoms: C_15  and  N_21 
REMARK    9  A    between atoms: C_16  and  C_18 
REMARK       I    between atoms: N_23  and  C_17 
REMARK   10  A    between atoms: O_26  and  C_18 
REMARK   11  A    between atoms: O_29  and  C_19 
ROOT
HETATM    1  N   UNK N   1      33.690  14.897  10.748  0.00  0.00    -0.397 N 
HETATM    2  H   UNK N   1      33.103  14.418  11.431  0.00  0.00     0.154 HD
ENDROOT
BRANCH   1   3
HETATM    3  C   UNK N   1      34.987  15.529  11.069  0.00  0.00     0.166 C 
HETATM    4  C   UNK N   1      35.183  16.883  10.388  0.00  0.00     0.042 C 
BRANCH   3   5
HETATM    5  C   UNK N   1      36.135  14.509  11.001  0.00  0.00     0.250 C 
HETATM    6  N   UNK N   1      36.193  13.292  11.677  0.00  0.00    -0.251 N 
HETATM    7  C   UNK N   1      37.176  12.224  11.422  0.00  0.00     0.213 C 
HETATM    8  C   UNK N   1      35.437  12.891  12.727  0.00  0.00     0.327 C 
HETATM    9  C   UNK N   1      36.539  10.986  12.118  0.00  0.00     0.164 C 
HETATM   10  N   UNK N   1      35.610  11.604  13.021  0.00  0.00    -0.336 N 
HETATM   11  C   UNK N   1      34.904  10.905  14.065  0.00  0.00     0.154 C 
HETATM   12  O   UNK N   1      34.723  13.615  13.395  0.00  0.00    -0.247 OA
HETATM   13  O   UNK N   1      37.016  14.777  10.199  0.00  0.00    -0.271 OA
BRANCH   7  14
HETATM   14  C   UNK N   1      37.657  11.953  10.008  0.00  0.00     0.166 C 
HETATM   15  O   UNK N   1      38.828  11.672   9.803  0.00  0.00    -0.648 OA
BRANCH  14  16
HETATM   16  O   UNK N   1      36.777  11.855   8.992  0.00  0.00    -0.775 OA
HETATM   17  H   UNK N   1      36.255  11.132   8.702  0.00  0.00     0.167 HD
ENDBRANCH  14  16
ENDBRANCH   7  14
ENDBRANCH   3   5
ENDBRANCH   1   3
BRANCH   1  18
HETATM   18  C   UNK N   1      33.347  15.042   9.319  0.00  0.00     0.178 C 
BRANCH  18  19
HETATM   19  C   UNK N   1      31.976  15.655   9.111  0.00  0.00     0.039 C 
BRANCH  19  20
HETATM   20  C   UNK N   1      31.890  17.075   8.584  0.00  0.00     0.041 C 
BRANCH  20  21
HETATM   21  C   UNK N   1      32.159  16.933   7.127  0.00  0.00    -0.058 A 
HETATM   22  C   UNK N   1      33.278  17.556   6.555  0.00  0.00     0.007 A 
HETATM   23  C   UNK N   1      33.442  17.564   5.167  0.00  0.00     0.001 A 
HETATM   24  C   UNK N   1      32.479  16.968   4.348  0.00  0.00     0.000 A 
HETATM   25  C   UNK N   1      31.361  16.350   4.916  0.00  0.00     0.001 A 
HETATM   26  C   UNK N   1      31.197  16.338   6.304  0.00  0.00     0.007 A 
ENDBRANCH  20  21
ENDBRANCH  19  20
ENDBRANCH  18  19
BRANCH  18  27
HETATM   27  C   UNK N   1      33.537  13.746   8.587  0.00  0.00     0.281 C 
HETATM   28  O   UNK N   1      32.681  12.871   8.648  0.00  0.00    -0.263 OA
BRANCH  27  29
HETATM   29  O   UNK N   1      34.704  13.525   7.936  0.00  0.00    -0.320 OA
BRANCH  29  30
HETATM   30  C   UNK N   1      35.296  14.480   7.144  0.00  0.00     0.174 C 
HETATM   31  C   UNK N   1      34.932  14.232   5.699  0.00  0.00     0.034 C 
ENDBRANCH  29  30
ENDBRANCH  27  29
ENDBRANCH  18  27
ENDBRANCH   1  18
TORSDOF 11
ENDMDL
