MODEL 1
REMARK VINA RESULT:      -8.1      0.000      0.000
REMARK  2 active torsions:
REMARK  status: ('A' for Active; 'I' for Inactive)
REMARK    1  A    between atoms: C_9  and  C_3 
REMARK    2  A    between atoms: C_18  and  C_19 
ROOT
HETATM    1  C   UNK N   1      29.683  16.968   6.221  0.00  0.00     0.134 C 
HETATM    2  C   UNK N   1      31.138  16.541   6.427  0.00  0.00     0.053 A 
HETATM    3  C   UNK N   1      31.944  16.285   5.306  0.00  0.00     0.031 A 
HETATM    4  C   UNK N   1      33.239  15.771   5.480  0.00  0.00     0.051 A 
HETATM    5  C   UNK N   1      34.022  15.474   4.352  0.00  0.00     0.060 A 
HETATM    6  C   UNK N   1      33.514  15.695   3.066  0.00  0.00     0.119 A 
HETATM    7  C   UNK N   1      32.242  16.249   2.900  0.00  0.00     0.072 A 
HETATM    8  C   UNK N   1      31.463  16.554   4.017  0.00  0.00     0.044 A 
HETATM    9  N   UNK N   1      30.223  17.214   3.863  0.00  0.00    -0.379 N 
HETATM   10  C   UNK N   1      29.632  17.909   4.991  0.00  0.00     0.132 C 
HETATM   11  F   UNK N   1      34.268  15.400   1.980  0.00  0.00    -0.206 F 
HETATM   12  C   UNK N   1      33.712  15.577   6.781  0.00  0.00     0.271 A 
HETATM   13  O   UNK N   1      34.836  15.146   6.980  0.00  0.00    -0.266 OA
HETATM   14  N   UNK N   1      32.903  15.887   7.846  0.00  0.00    -0.266 N 
HETATM   15  N   UNK N   1      31.658  16.341   7.670  0.00  0.00    -0.300 N 
ATOM     16  HN  UNK N   1      31.084  16.545   8.488  1.00  0.00     0.186 HD
HETATM   17  H   UNK N   1      29.763  17.203   2.993  0.00  0.00     0.160 HD
HETATM   18  H   UNK N   1      33.247  15.771   8.760  0.00  0.00     0.190 HD
ENDROOT
BRANCH   1  19
HETATM   19  C   UNK N   1      28.993  17.417   7.495  0.00  0.00     0.111 A 
HETATM   20  N   UNK N   1      27.779  17.001   7.902  0.00  0.00    -0.283 N 
HETATM   21  C   UNK N   1      26.888  16.058   7.247  0.00  0.00     0.179 C 
HETATM   22  N   UNK N   1      27.488  17.623   9.027  0.00  0.00    -0.293 N 
HETATM   23  C   UNK N   1      28.533  18.428   9.311  0.00  0.00     0.199 A 
ATOM     24  HN  UNK N   1      26.636  17.517   9.577  1.00  0.00     0.188 HD
HETATM   25  N   UNK N   1      29.495  18.318   8.363  0.00  0.00    -0.339 N 
ATOM     26  HN  UNK N   1      30.390  18.803   8.316  1.00  0.00     0.168 HD
ENDBRANCH   1  19
BRANCH  10  27
HETATM   27  C   UNK N   1      28.338  18.527   4.532  0.00  0.00    -0.034 A 
HETATM   28  C   UNK N   1      27.378  17.675   3.965  0.00  0.00     0.012 A 
HETATM   29  C   UNK N   1      26.152  18.173   3.523  0.00  0.00     0.043 A 
HETATM   30  C   UNK N   1      25.873  19.534   3.640  0.00  0.00     0.116 A 
HETATM   31  C   UNK N   1      26.821  20.396   4.205  0.00  0.00     0.043 A 
HETATM   32  F   UNK N   1      24.684  20.015   3.207  0.00  0.00    -0.206 F 
HETATM   33  C   UNK N   1      28.049  19.895   4.656  0.00  0.00     0.012 A 
ENDBRANCH  10  27
TORSDOF 2
ENDMDL
MODEL 2
REMARK VINA RESULT:      -8.0      6.006      9.339
REMARK  2 active torsions:
REMARK  status: ('A' for Active; 'I' for Inactive)
REMARK    1  A    between atoms: C_9  and  C_3 
REMARK    2  A    between atoms: C_18  and  C_19 
ROOT
HETATM    1  C   UNK N   1      23.650  14.886   6.447  0.00  0.00     0.134 C 
HETATM    2  C   UNK N   1      22.523  14.715   7.468  0.00  0.00     0.053 A 
HETATM    3  C   UNK N   1      22.713  13.858   8.564  0.00  0.00     0.031 A 
HETATM    4  C   UNK N   1      21.646  13.594   9.437  0.00  0.00     0.051 A 
HETATM    5  C   UNK N   1      21.831  12.700  10.505  0.00  0.00     0.060 A 
HETATM    6  C   UNK N   1      23.073  12.083  10.697  0.00  0.00     0.119 A 
HETATM    7  C   UNK N   1      24.145  12.384   9.851  0.00  0.00     0.072 A 
HETATM    8  C   UNK N   1      23.968  13.278   8.794  0.00  0.00     0.044 A 
HETATM    9  N   UNK N   1      25.070  13.672   8.003  0.00  0.00    -0.379 N 
HETATM   10  C   UNK N   1      24.994  14.889   7.217  0.00  0.00     0.132 C 
HETATM   11  F   UNK N   1      23.247  11.214  11.721  0.00  0.00    -0.206 F 
HETATM   12  C   UNK N   1      20.426  14.241   9.217  0.00  0.00     0.271 A 
HETATM   13  O   UNK N   1      19.476  14.053   9.959  0.00  0.00    -0.266 OA
HETATM   14  N   UNK N   1      20.304  15.106   8.159  0.00  0.00    -0.266 N 
HETATM   15  N   UNK N   1      21.314  15.324   7.312  0.00  0.00    -0.300 N 
ATOM     16  HN  UNK N   1      21.177  15.963   6.529  1.00  0.00     0.186 HD
HETATM   17  H   UNK N   1      25.887  13.123   7.985  0.00  0.00     0.160 HD
HETATM   18  H   UNK N   1      19.451  15.578   8.021  0.00  0.00     0.190 HD
ENDROOT
BRANCH   1  19
HETATM   19  C   UNK N   1      23.398  15.992   5.441  0.00  0.00     0.111 A 
HETATM   20  N   UNK N   1      22.917  15.808   4.196  0.00  0.00    -0.283 N 
HETATM   21  C   UNK N   1      22.535  14.559   3.558  0.00  0.00     0.179 C 
HETATM   22  N   UNK N   1      22.862  16.982   3.600  0.00  0.00    -0.293 N 
HETATM   23  C   UNK N   1      23.315  17.894   4.487  0.00  0.00     0.199 A 
ATOM     24  HN  UNK N   1      22.540  17.167   2.650  1.00  0.00     0.188 HD
HETATM   25  N   UNK N   1      23.659  17.297   5.653  0.00  0.00    -0.339 N 
ATOM     26  HN  UNK N   1      24.029  17.734   6.497  1.00  0.00     0.168 HD
ENDBRANCH   1  19
BRANCH  10  27
HETATM   27  C   UNK N   1      26.307  15.064   6.499  0.00  0.00    -0.034 A 
HETATM   28  C   UNK N   1      27.063  16.207   6.800  0.00  0.00     0.012 A 
HETATM   29  C   UNK N   1      28.291  16.435   6.180  0.00  0.00     0.043 A 
HETATM   30  C   UNK N   1      28.778  15.520   5.247  0.00  0.00     0.116 A 
HETATM   31  C   UNK N   1      28.035  14.374   4.938  0.00  0.00     0.043 A 
HETATM   32  F   UNK N   1      29.969  15.745   4.644  0.00  0.00    -0.206 F 
HETATM   33  C   UNK N   1      26.804  14.141   5.565  0.00  0.00     0.012 A 
ENDBRANCH  10  27
TORSDOF 2
ENDMDL
MODEL 3
REMARK VINA RESULT:      -7.7      3.788      8.045
REMARK  2 active torsions:
REMARK  status: ('A' for Active; 'I' for Inactive)
REMARK    1  A    between atoms: C_9  and  C_3 
REMARK    2  A    between atoms: C_18  and  C_19 
ROOT
HETATM    1  C   UNK N   1      32.812  15.397   7.423  0.00  0.00     0.134 C 
HETATM    2  C   UNK N   1      31.805  16.121   6.527  0.00  0.00     0.053 A 
HETATM    3  C   UNK N   1      30.761  16.853   7.117  0.00  0.00     0.031 A 
HETATM    4  C   UNK N   1      29.760  17.416   6.309  0.00  0.00     0.051 A 
HETATM    5  C   UNK N   1      28.694  18.107   6.909  0.00  0.00     0.060 A 
HETATM    6  C   UNK N   1      28.638  18.236   8.303  0.00  0.00     0.119 A 
HETATM    7  C   UNK N   1      29.661  17.713   9.098  0.00  0.00     0.072 A 
HETATM    8  C   UNK N   1      30.725  17.033   8.506  0.00  0.00     0.044 A 
HETATM    9  N   UNK N   1      31.817  16.598   9.290  0.00  0.00    -0.379 N 
HETATM   10  C   UNK N   1      33.087  16.297   8.654  0.00  0.00     0.132 C 
HETATM   11  F   UNK N   1      27.605  18.895   8.881  0.00  0.00    -0.206 F 
HETATM   12  C   UNK N   1      29.861  17.274   4.922  0.00  0.00     0.271 A 
HETATM   13  O   UNK N   1      29.022  17.758   4.181  0.00  0.00    -0.266 OA
HETATM   14  N   UNK N   1      30.925  16.589   4.390  0.00  0.00    -0.266 N 
HETATM   15  N   UNK N   1      31.855  16.027   5.168  0.00  0.00    -0.300 N 
ATOM     16  HN  UNK N   1      32.622  15.514   4.734  1.00  0.00     0.186 HD
HETATM   17  H   UNK N   1      31.718  16.499  10.264  0.00  0.00     0.160 HD
HETATM   18  H   UNK N   1      31.006  16.512   3.413  0.00  0.00     0.190 HD
ENDROOT
BRANCH   1  19
HETATM   19  C   UNK N   1      33.999  14.830   6.672  0.00  0.00     0.111 A 
HETATM   20  N   UNK N   1      34.127  13.545   6.287  0.00  0.00    -0.283 N 
HETATM   21  C   UNK N   1      33.190  12.452   6.487  0.00  0.00     0.179 C 
HETATM   22  N   UNK N   1      35.295  13.409   5.692  0.00  0.00    -0.293 N 
HETATM   23  C   UNK N   1      35.890  14.621   5.714  0.00  0.00     0.199 A 
ATOM     24  HN  UNK N   1      35.677  12.551   5.293  1.00  0.00     0.188 HD
HETATM   25  N   UNK N   1      35.096  15.533   6.324  0.00  0.00    -0.339 N 
ATOM     26  HN  UNK N   1      35.283  16.522   6.484  1.00  0.00     0.168 HD
ENDBRANCH   1  19
BRANCH  10  27
HETATM   27  C   UNK N   1      34.059  15.880   9.726  0.00  0.00    -0.034 A 
HETATM   28  C   UNK N   1      33.812  14.667  10.388  0.00  0.00     0.012 A 
HETATM   29  C   UNK N   1      34.671  14.212  11.388  0.00  0.00     0.043 A 
HETATM   30  C   UNK N   1      35.788  14.967  11.740  0.00  0.00     0.116 A 
HETATM   31  C   UNK N   1      36.048  16.179  11.087  0.00  0.00     0.043 A 
HETATM   32  F   UNK N   1      36.619  14.524  12.714  0.00  0.00    -0.206 F 
HETATM   33  C   UNK N   1      35.189  16.634  10.078  0.00  0.00     0.012 A 
ENDBRANCH  10  27
TORSDOF 2
ENDMDL
MODEL 4
REMARK VINA RESULT:      -7.6      4.889      9.330
REMARK  2 active torsions:
REMARK  status: ('A' for Active; 'I' for Inactive)
REMARK    1  A    between atoms: C_9  and  C_3 
REMARK    2  A    between atoms: C_18  and  C_19 
ROOT
HETATM    1  C   UNK N   1      35.027  14.295   9.977  0.00  0.00     0.134 C 
HETATM    2  C   UNK N   1      33.692  14.933   9.589  0.00  0.00     0.053 A 
HETATM    3  C   UNK N   1      33.596  15.647   8.382  0.00  0.00     0.031 A 
HETATM    4  C   UNK N   1      32.417  16.343   8.074  0.00  0.00     0.051 A 
HETATM    5  C   UNK N   1      32.344  17.092   6.888  0.00  0.00     0.060 A 
HETATM    6  C   UNK N   1      33.442  17.137   6.019  0.00  0.00     0.119 A 
HETATM    7  C   UNK N   1      34.597  16.406   6.308  0.00  0.00     0.072 A 
HETATM    8  C   UNK N   1      34.670  15.654   7.482  0.00  0.00     0.044 A 
HETATM    9  N   UNK N   1      35.788  14.826   7.729  0.00  0.00    -0.379 N 
HETATM   10  C   UNK N   1      35.684  13.741   8.687  0.00  0.00     0.132 C 
HETATM   11  F   UNK N   1      33.374  17.867   4.880  0.00  0.00    -0.206 F 
HETATM   12  C   UNK N   1      31.340  16.261   8.964  0.00  0.00     0.271 A 
HETATM   13  O   UNK N   1      30.291  16.837   8.730  0.00  0.00    -0.266 OA
HETATM   14  N   UNK N   1      31.466  15.512  10.107  0.00  0.00    -0.266 N 
HETATM   15  N   UNK N   1      32.606  14.882  10.409  0.00  0.00    -0.300 N 
ATOM     16  HN  UNK N   1      32.663  14.349  11.277  1.00  0.00     0.186 HD
HETATM   17  H   UNK N   1      36.634  14.983   7.252  0.00  0.00     0.160 HD
HETATM   18  H   UNK N   1      30.699  15.438  10.719  0.00  0.00     0.190 HD
ENDROOT
BRANCH   1  19
HETATM   19  C   UNK N   1      34.938  13.382  11.184  0.00  0.00     0.111 A 
HETATM   20  N   UNK N   1      35.384  13.689  12.418  0.00  0.00    -0.283 N 
HETATM   21  C   UNK N   1      36.019  14.918  12.862  0.00  0.00     0.179 C 
HETATM   22  N   UNK N   1      35.172  12.650  13.200  0.00  0.00    -0.293 N 
HETATM   23  C   UNK N   1      34.592  11.698  12.439  0.00  0.00     0.199 A 
ATOM     24  HN  UNK N   1      35.402  12.579  14.191  1.00  0.00     0.188 HD
HETATM   25  N   UNK N   1      34.433  12.133  11.166  0.00  0.00    -0.339 N 
ATOM     26  HN  UNK N   1      34.026  11.632  10.378  1.00  0.00     0.168 HD
ENDBRANCH   1  19
BRANCH  10  27
HETATM   27  C   UNK N   1      37.009  13.026   8.729  0.00  0.00    -0.034 A 
HETATM   28  C   UNK N   1      38.004  13.555   9.566  0.00  0.00     0.012 A 
HETATM   29  C   UNK N   1      39.254  12.944   9.663  0.00  0.00     0.043 A 
HETATM   30  C   UNK N   1      39.525  11.796   8.919  0.00  0.00     0.116 A 
HETATM   31  C   UNK N   1      38.541  11.257   8.082  0.00  0.00     0.043 A 
HETATM   32  F   UNK N   1      40.741  11.207   9.013  0.00  0.00    -0.206 F 
HETATM   33  C   UNK N   1      37.283  11.866   7.989  0.00  0.00     0.012 A 
ENDBRANCH  10  27
TORSDOF 2
ENDMDL
MODEL 5
REMARK VINA RESULT:      -7.6      3.080      7.126
REMARK  2 active torsions:
REMARK  status: ('A' for Active; 'I' for Inactive)
REMARK    1  A    between atoms: C_9  and  C_3 
REMARK    2  A    between atoms: C_18  and  C_19 
ROOT
HETATM    1  C   UNK N   1      32.556  16.475   7.832  0.00  0.00     0.134 C 
HETATM    2  C   UNK N   1      31.151  16.905   8.260  0.00  0.00     0.053 A 
HETATM    3  C   UNK N   1      30.079  16.735   7.367  0.00  0.00     0.031 A 
HETATM    4  C   UNK N   1      28.811  17.238   7.696  0.00  0.00     0.051 A 
HETATM    5  C   UNK N   1      27.755  17.106   6.779  0.00  0.00     0.060 A 
HETATM    6  C   UNK N   1      27.968  16.469   5.549  0.00  0.00     0.119 A 
HETATM    7  C   UNK N   1      29.221  15.929   5.247  0.00  0.00     0.072 A 
HETATM    8  C   UNK N   1      30.271  16.052   6.159  0.00  0.00     0.044 A 
HETATM    9  N   UNK N   1      31.508  15.416   5.910  0.00  0.00    -0.379 N 
HETATM   10  C   UNK N   1      32.425  15.170   7.008  0.00  0.00     0.132 C 
HETATM   11  F   UNK N   1      26.952  16.350   4.663  0.00  0.00    -0.206 F 
HETATM   12  C   UNK N   1      28.637  17.856   8.939  0.00  0.00     0.271 A 
HETATM   13  O   UNK N   1      27.549  18.295   9.272  0.00  0.00    -0.266 OA
HETATM   14  N   UNK N   1      29.705  17.956   9.796  0.00  0.00    -0.266 N 
HETATM   15  N   UNK N   1      30.917  17.505   9.460  0.00  0.00    -0.300 N 
ATOM     16  HN  UNK N   1      31.687  17.612  10.120  1.00  0.00     0.186 HD
HETATM   17  H   UNK N   1      31.747  15.140   4.996  0.00  0.00     0.160 HD
HETATM   18  H   UNK N   1      29.574  18.369  10.679  0.00  0.00     0.190 HD
ENDROOT
BRANCH   1  19
HETATM   19  C   UNK N   1      33.573  16.513   8.956  0.00  0.00     0.111 A 
HETATM   20  N   UNK N   1      34.517  17.461   9.110  0.00  0.00    -0.283 N 
HETATM   21  C   UNK N   1      34.765  18.625   8.274  0.00  0.00     0.179 C 
HETATM   22  N   UNK N   1      35.238  17.154  10.169  0.00  0.00    -0.293 N 
HETATM   23  C   UNK N   1      34.732  16.007  10.669  0.00  0.00     0.199 A 
ATOM     24  HN  UNK N   1      36.028  17.682  10.540  1.00  0.00     0.188 HD
HETATM   25  N   UNK N   1      33.683  15.582   9.924  0.00  0.00    -0.339 N 
ATOM     26  HN  UNK N   1      33.109  14.751  10.063  1.00  0.00     0.168 HD
ENDBRANCH   1  19
BRANCH  10  27
HETATM   27  C   UNK N   1      33.638  14.469   6.454  0.00  0.00    -0.034 A 
HETATM   28  C   UNK N   1      33.711  13.077   6.613  0.00  0.00     0.012 A 
HETATM   29  C   UNK N   1      34.801  12.358   6.122  0.00  0.00     0.043 A 
HETATM   30  C   UNK N   1      35.834  13.026   5.467  0.00  0.00     0.116 A 
HETATM   31  C   UNK N   1      35.774  14.415   5.299  0.00  0.00     0.043 A 
HETATM   32  F   UNK N   1      36.893  12.326   4.994  0.00  0.00    -0.206 F 
HETATM   33  C   UNK N   1      34.677  15.137   5.787  0.00  0.00     0.012 A 
ENDBRANCH  10  27
TORSDOF 2
ENDMDL
MODEL 6
REMARK VINA RESULT:      -7.6     14.835     17.267
REMARK  2 active torsions:
REMARK  status: ('A' for Active; 'I' for Inactive)
REMARK    1  A    between atoms: C_9  and  C_3 
REMARK    2  A    between atoms: C_18  and  C_19 
ROOT
HETATM    1  C   UNK N   1      34.296   9.724  20.525  0.00  0.00     0.134 C 
HETATM    2  C   UNK N   1      34.608  11.077  19.882  0.00  0.00     0.053 A 
HETATM    3  C   UNK N   1      34.901  11.135  18.510  0.00  0.00     0.031 A 
HETATM    4  C   UNK N   1      35.311  12.347  17.933  0.00  0.00     0.051 A 
HETATM    5  C   UNK N   1      35.647  12.387  16.570  0.00  0.00     0.060 A 
HETATM    6  C   UNK N   1      35.565  11.224  15.793  0.00  0.00     0.119 A 
HETATM    7  C   UNK N   1      35.113  10.031  16.362  0.00  0.00     0.072 A 
HETATM    8  C   UNK N   1      34.771   9.989  17.714  0.00  0.00     0.044 A 
HETATM    9  N   UNK N   1      34.209   8.817  18.271  0.00  0.00    -0.379 N 
HETATM   10  C   UNK N   1      33.465   8.896  19.514  0.00  0.00     0.132 C 
HETATM   11  F   UNK N   1      35.898  11.262  14.481  0.00  0.00    -0.206 F 
HETATM   12  C   UNK N   1      35.367  13.487  18.742  0.00  0.00     0.271 A 
HETATM   13  O   UNK N   1      35.704  14.565  18.281  0.00  0.00    -0.266 OA
HETATM   14  N   UNK N   1      35.026  13.390  20.068  0.00  0.00    -0.266 N 
HETATM   15  N   UNK N   1      34.670  12.224  20.616  0.00  0.00    -0.300 N 
ATOM     16  HN  UNK N   1      34.439  12.191  21.609  1.00  0.00     0.186 HD
HETATM   17  H   UNK N   1      34.321   7.952  17.817  0.00  0.00     0.160 HD
HETATM   18  H   UNK N   1      35.043  14.198  20.628  0.00  0.00     0.190 HD
ENDROOT
BRANCH   1  19
HETATM   19  C   UNK N   1      33.792   9.829  21.951  0.00  0.00     0.111 A 
HETATM   20  N   UNK N   1      34.529   9.580  23.051  0.00  0.00    -0.283 N 
HETATM   21  C   UNK N   1      35.925   9.178  23.123  0.00  0.00     0.179 C 
HETATM   22  N   UNK N   1      33.757   9.737  24.107  0.00  0.00    -0.293 N 
HETATM   23  C   UNK N   1      32.535  10.085  23.651  0.00  0.00     0.199 A 
ATOM     24  HN  UNK N   1      34.030   9.618  25.082  1.00  0.00     0.188 HD
HETATM   25  N   UNK N   1      32.530  10.150  22.298  0.00  0.00    -0.339 N 
ATOM     26  HN  UNK N   1      31.752  10.387  21.683  1.00  0.00     0.168 HD
ENDBRANCH   1  19
BRANCH  10  27
HETATM   27  C   UNK N   1      32.974   7.513  19.852  0.00  0.00    -0.034 A 
HETATM   28  C   UNK N   1      31.608   7.363  20.139  0.00  0.00     0.012 A 
HETATM   29  C   UNK N   1      31.078   6.112  20.454  0.00  0.00     0.043 A 
HETATM   30  C   UNK N   1      31.911   4.994  20.490  0.00  0.00     0.116 A 
HETATM   31  C   UNK N   1      33.275   5.129  20.205  0.00  0.00     0.043 A 
HETATM   32  F   UNK N   1      31.394   3.781  20.800  0.00  0.00    -0.206 F 
HETATM   33  C   UNK N   1      33.807   6.384  19.881  0.00  0.00     0.012 A 
ENDBRANCH  10  27
TORSDOF 2
ENDMDL
MODEL 7
REMARK VINA RESULT:      -7.6      5.647      8.576
REMARK  2 active torsions:
REMARK  status: ('A' for Active; 'I' for Inactive)
REMARK    1  A    between atoms: C_9  and  C_3 
REMARK    2  A    between atoms: C_18  and  C_19 
ROOT
HETATM    1  C   UNK N   1      22.845  16.853   5.563  0.00  0.00     0.134 C 
HETATM    2  C   UNK N   1      23.187  18.022   4.637  0.00  0.00     0.053 A 
HETATM    3  C   UNK N   1      24.520  18.456   4.541  0.00  0.00     0.031 A 
HETATM    4  C   UNK N   1      24.828  19.604   3.795  0.00  0.00     0.051 A 
HETATM    5  C   UNK N   1      26.156  20.059   3.742  0.00  0.00     0.060 A 
HETATM    6  C   UNK N   1      27.164  19.365   4.425  0.00  0.00     0.119 A 
HETATM    7  C   UNK N   1      26.858  18.197   5.128  0.00  0.00     0.072 A 
HETATM    8  C   UNK N   1      25.541  17.738   5.177  0.00  0.00     0.044 A 
HETATM    9  N   UNK N   1      25.240  16.501   5.792  0.00  0.00    -0.379 N 
HETATM   10  C   UNK N   1      23.998  15.822   5.475  0.00  0.00     0.132 C 
HETATM   11  F   UNK N   1      28.442  19.809   4.380  0.00  0.00    -0.206 F 
HETATM   12  C   UNK N   1      23.795  20.260   3.118  0.00  0.00     0.271 A 
HETATM   13  O   UNK N   1      24.019  21.254   2.447  0.00  0.00    -0.266 OA
HETATM   14  N   UNK N   1      22.516  19.770   3.205  0.00  0.00    -0.266 N 
HETATM   15  N   UNK N   1      22.226  18.697   3.947  0.00  0.00    -0.300 N 
ATOM     16  HN  UNK N   1      21.260  18.374   3.996  1.00  0.00     0.186 HD
HETATM   17  H   UNK N   1      25.872  16.102   6.433  0.00  0.00     0.160 HD
HETATM   18  H   UNK N   1      21.795  20.220   2.709  0.00  0.00     0.190 HD
ENDROOT
BRANCH   1  19
HETATM   19  C   UNK N   1      21.423  16.352   5.411  0.00  0.00     0.111 A 
HETATM   20  N   UNK N   1      20.485  16.387   6.378  0.00  0.00    -0.283 N 
HETATM   21  C   UNK N   1      20.611  16.901   7.732  0.00  0.00     0.179 C 
HETATM   22  N   UNK N   1      19.385  15.838   5.903  0.00  0.00    -0.293 N 
HETATM   23  C   UNK N   1      19.652  15.461   4.634  0.00  0.00     0.199 A 
ATOM     24  HN  UNK N   1      18.502  15.719   6.399  1.00  0.00     0.188 HD
HETATM   25  N   UNK N   1      20.927  15.773   4.300  0.00  0.00    -0.339 N 
ATOM     26  HN  UNK N   1      21.401  15.609   3.413  1.00  0.00     0.168 HD
ENDBRANCH   1  19
BRANCH  10  27
HETATM   27  C   UNK N   1      23.957  14.534   6.255  0.00  0.00    -0.034 A 
HETATM   28  C   UNK N   1      24.842  14.405   7.337  0.00  0.00     0.012 A 
HETATM   29  C   UNK N   1      24.858  13.245   8.111  0.00  0.00     0.043 A 
HETATM   30  C   UNK N   1      23.989  12.197   7.809  0.00  0.00     0.116 A 
HETATM   31  C   UNK N   1      23.101  12.313   6.733  0.00  0.00     0.043 A 
HETATM   32  F   UNK N   1      24.010  11.070   8.560  0.00  0.00    -0.206 F 
HETATM   33  C   UNK N   1      23.079  13.481   5.960  0.00  0.00     0.012 A 
ENDBRANCH  10  27
TORSDOF 2
ENDMDL
MODEL 8
REMARK VINA RESULT:      -7.5     11.194     13.531
REMARK  2 active torsions:
REMARK  status: ('A' for Active; 'I' for Inactive)
REMARK    1  A    between atoms: C_9  and  C_3 
REMARK    2  A    between atoms: C_18  and  C_19 
ROOT
HETATM    1  C   UNK N   1      28.505  24.473  -6.008  0.00  0.00     0.134 C 
HETATM    2  C   UNK N   1      29.064  23.051  -6.089  0.00  0.00     0.053 A 
HETATM    3  C   UNK N   1      29.966  22.610  -5.107  0.00  0.00     0.031 A 
HETATM    4  C   UNK N   1      30.583  21.356  -5.237  0.00  0.00     0.051 A 
HETATM    5  C   UNK N   1      31.520  20.942  -4.276  0.00  0.00     0.060 A 
HETATM    6  C   UNK N   1      31.829  21.775  -3.193  0.00  0.00     0.119 A 
HETATM    7  C   UNK N   1      31.178  23.002  -3.043  0.00  0.00     0.072 A 
HETATM    8  C   UNK N   1      30.241  23.414  -3.992  0.00  0.00     0.044 A 
HETATM    9  N   UNK N   1      29.499  24.600  -3.793  0.00  0.00    -0.379 N 
HETATM   10  C   UNK N   1      28.257  24.803  -4.514  0.00  0.00     0.132 C 
HETATM   11  F   UNK N   1      32.739  21.378  -2.271  0.00  0.00    -0.206 F 
HETATM   12  C   UNK N   1      30.237  20.551  -6.327  0.00  0.00     0.271 A 
HETATM   13  O   UNK N   1      30.737  19.448  -6.474  0.00  0.00    -0.266 OA
HETATM   14  N   UNK N   1      29.314  21.006  -7.235  0.00  0.00    -0.266 N 
HETATM   15  N   UNK N   1      28.758  22.217  -7.122  0.00  0.00    -0.300 N 
ATOM     16  HN  UNK N   1      28.088  22.524  -7.826  1.00  0.00     0.186 HD
HETATM   17  H   UNK N   1      29.824  25.286  -3.166  0.00  0.00     0.160 HD
HETATM   18  H   UNK N   1      29.055  20.428  -7.988  0.00  0.00     0.190 HD
ENDROOT
BRANCH   1  19
HETATM   19  C   UNK N   1      27.388  24.746  -6.996  0.00  0.00     0.111 A 
HETATM   20  N   UNK N   1      26.145  24.232  -6.917  0.00  0.00    -0.283 N 
HETATM   21  C   UNK N   1      25.606  23.341  -5.903  0.00  0.00     0.179 C 
HETATM   22  N   UNK N   1      25.458  24.657  -7.958  0.00  0.00    -0.293 N 
HETATM   23  C   UNK N   1      26.288  25.436  -8.683  0.00  0.00     0.199 A 
ATOM     24  HN  UNK N   1      24.486  24.437  -8.176  1.00  0.00     0.188 HD
HETATM   25  N   UNK N   1      27.508  25.510  -8.099  0.00  0.00    -0.339 N 
ATOM     26  HN  UNK N   1      28.328  26.023  -8.420  1.00  0.00     0.168 HD
ENDBRANCH   1  19
BRANCH  10  27
HETATM   27  C   UNK N   1      27.683  26.130  -4.092  0.00  0.00    -0.034 A 
HETATM   28  C   UNK N   1      28.544  27.239  -4.094  0.00  0.00     0.012 A 
HETATM   29  C   UNK N   1      28.084  28.502  -3.722  0.00  0.00     0.043 A 
HETATM   30  C   UNK N   1      26.754  28.670  -3.339  0.00  0.00     0.116 A 
HETATM   31  C   UNK N   1      25.883  27.574  -3.333  0.00  0.00     0.043 A 
HETATM   32  F   UNK N   1      26.311  29.897  -2.974  0.00  0.00    -0.206 F 
HETATM   33  C   UNK N   1      26.344  26.306  -3.713  0.00  0.00     0.012 A 
ENDBRANCH  10  27
TORSDOF 2
ENDMDL
MODEL 9
REMARK VINA RESULT:      -7.5      3.459      5.739
REMARK  2 active torsions:
REMARK  status: ('A' for Active; 'I' for Inactive)
REMARK    1  A    between atoms: C_9  and  C_3 
REMARK    2  A    between atoms: C_18  and  C_19 
ROOT
HETATM    1  C   UNK N   1      28.800  17.096   5.786  0.00  0.00     0.134 C 
HETATM    2  C   UNK N   1      27.731  16.227   5.120  0.00  0.00     0.053 A 
HETATM    3  C   UNK N   1      28.087  15.414   4.031  0.00  0.00     0.031 A 
HETATM    4  C   UNK N   1      27.094  14.709   3.332  0.00  0.00     0.051 A 
HETATM    5  C   UNK N   1      27.451  13.934   2.216  0.00  0.00     0.060 A 
HETATM    6  C   UNK N   1      28.790  13.863   1.811  0.00  0.00     0.119 A 
HETATM    7  C   UNK N   1      29.780  14.529   2.538  0.00  0.00     0.072 A 
HETATM    8  C   UNK N   1      29.430  15.294   3.652  0.00  0.00     0.044 A 
HETATM    9  N   UNK N   1      30.433  15.881   4.456  0.00  0.00    -0.379 N 
HETATM   10  C   UNK N   1      30.122  16.288   5.813  0.00  0.00     0.132 C 
HETATM   11  F   UNK N   1      29.132  13.122   0.729  0.00  0.00    -0.206 F 
HETATM   12  C   UNK N   1      25.771  14.798   3.778  0.00  0.00     0.271 A 
HETATM   13  O   UNK N   1      24.878  14.192   3.209  0.00  0.00    -0.266 OA
HETATM   14  N   UNK N   1      25.481  15.569   4.875  0.00  0.00    -0.266 N 
HETATM   15  N   UNK N   1      26.427  16.265   5.513  0.00  0.00    -0.300 N 
ATOM     16  HN  UNK N   1      26.167  16.838   6.315  1.00  0.00     0.186 HD
HETATM   17  H   UNK N   1      31.340  16.012   4.097  0.00  0.00     0.160 HD
HETATM   18  H   UNK N   1      24.553  15.611   5.200  0.00  0.00     0.190 HD
ENDROOT
BRANCH   1  19
HETATM   19  C   UNK N   1      28.336  17.755   7.070  0.00  0.00     0.111 A 
HETATM   20  N   UNK N   1      27.874  19.016   7.167  0.00  0.00    -0.283 N 
HETATM   21  C   UNK N   1      27.711  19.996   6.105  0.00  0.00     0.179 C 
HETATM   22  N   UNK N   1      27.599  19.256   8.433  0.00  0.00    -0.293 N 
HETATM   23  C   UNK N   1      27.897  18.132   9.119  0.00  0.00     0.199 A 
ATOM     24  HN  UNK N   1      27.233  20.126   8.821  1.00  0.00     0.188 HD
HETATM   25  N   UNK N   1      28.362  17.172   8.285  0.00  0.00    -0.339 N 
ATOM     26  HN  UNK N   1      28.663  16.227   8.521  1.00  0.00     0.168 HD
ENDBRANCH   1  19
BRANCH  10  27
HETATM   27  C   UNK N   1      31.373  16.857   6.429  0.00  0.00    -0.034 A 
HETATM   28  C   UNK N   1      32.456  17.116   5.574  0.00  0.00     0.012 A 
HETATM   29  C   UNK N   1      33.645  17.649   6.070  0.00  0.00     0.043 A 
HETATM   30  C   UNK N   1      33.768  17.926   7.431  0.00  0.00     0.116 A 
HETATM   31  C   UNK N   1      32.695  17.674   8.295  0.00  0.00     0.043 A 
HETATM   32  F   UNK N   1      34.925  18.440   7.910  0.00  0.00    -0.206 F 
HETATM   33  C   UNK N   1      31.497  17.145   7.797  0.00  0.00     0.012 A 
ENDBRANCH  10  27
TORSDOF 2
ENDMDL
