MODEL 1
REMARK VINA RESULT:      -7.4      0.000      0.000
REMARK  3 active torsions:
REMARK  status: ('A' for Active; 'I' for Inactive)
REMARK    1  A    between atoms: C_14  and  C_7 
REMARK    2  A    between atoms: C_13  and  C_8 
REMARK    3  A    between atoms: O_20  and  C_14 
ROOT
HETATM    1  C   UNK N   1      33.558  16.012   8.666  0.00  0.00     0.021 A 
HETATM    2  C   UNK N   1      33.387  14.845   9.444  0.00  0.00     0.033 A 
HETATM    3  C   UNK N   1      35.356  16.770  10.144  0.00  0.00     0.058 A 
HETATM    4  C   UNK N   1      34.542  16.979   9.014  0.00  0.00     0.040 A 
HETATM    5  C   UNK N   1      34.219  14.686  10.548  0.00  0.00     0.068 A 
HETATM    6  C   UNK N   1      35.159  15.611  10.874  0.00  0.00     0.105 A 
HETATM    7  C   UNK N   1      35.265  14.044  12.277  0.00  0.00     0.159 A 
HETATM    8  N   UNK N   1      34.263  13.672  11.433  0.00  0.00    -0.334 N 
ATOM      9  HN  UNK N   1      33.687  12.830  11.465  1.00  0.00     0.168 HD
HETATM   10  O   UNK N   1      35.794  15.206  11.935  0.00  0.00    -0.291 OA
ENDROOT
BRANCH   7  11
HETATM   11  C   UNK N   1      35.733  13.273  13.433  0.00  0.00     0.018 A 
HETATM   12  C   UNK N   1      36.681  12.264  13.228  0.00  0.00     0.039 A 
HETATM   13  C   UNK N   1      37.153  11.508  14.299  0.00  0.00     0.036 A 
HETATM   14  C   UNK N   1      36.685  11.762  15.589  0.00  0.00     0.047 A 
HETATM   15 Cl   UNK N   1      38.333  10.248  14.016  0.00  0.00    -0.084 Cl
HETATM   16  C   UNK N   1      35.739  12.770  15.806  0.00  0.00     0.036 A 
HETATM   17  C   UNK N   1      35.258  13.525  14.727  0.00  0.00     0.039 A 
HETATM   18 Cl   UNK N   1      35.167  13.090  17.428  0.00  0.00    -0.084 Cl
ENDBRANCH   7  11
BRANCH   4  19
HETATM   19  C   UNK N   1      34.733  18.196   8.203  0.00  0.00     0.176 C 
HETATM   20  O   UNK N   1      34.324  18.244   7.055  0.00  0.00    -0.646 OA
BRANCH  19  21
HETATM   21  O   UNK N   1      35.370  19.263   8.727  0.00  0.00    -0.773 OA
HETATM   22  H   UNK N   1      34.946  19.796   9.370  0.00  0.00     0.167 HD
ENDBRANCH  19  21
ENDBRANCH   4  19
TORSDOF 3
ENDMDL
MODEL 2
REMARK VINA RESULT:      -7.4      0.104      2.154
REMARK  3 active torsions:
REMARK  status: ('A' for Active; 'I' for Inactive)
REMARK    1  A    between atoms: C_14  and  C_7 
REMARK    2  A    between atoms: C_13  and  C_8 
REMARK    3  A    between atoms: O_20  and  C_14 
ROOT
HETATM    1  C   UNK N   1      33.476  16.054   8.761  0.00  0.00     0.021 A 
HETATM    2  C   UNK N   1      33.314  14.888   9.542  0.00  0.00     0.033 A 
HETATM    3  C   UNK N   1      35.349  16.772  10.164  0.00  0.00     0.058 A 
HETATM    4  C   UNK N   1      34.493  17.000   9.071  0.00  0.00     0.040 A 
HETATM    5  C   UNK N   1      34.189  14.709  10.610  0.00  0.00     0.068 A 
HETATM    6  C   UNK N   1      35.160  15.614  10.899  0.00  0.00     0.105 A 
HETATM    7  C   UNK N   1      35.294  14.040  12.291  0.00  0.00     0.159 A 
HETATM    8  N   UNK N   1      34.250  13.690  11.490  0.00  0.00    -0.334 N 
ATOM      9  HN  UNK N   1      33.659  12.860  11.543  1.00  0.00     0.168 HD
HETATM   10  O   UNK N   1      35.831  15.192  11.931  0.00  0.00    -0.291 OA
ENDROOT
BRANCH   7  11
HETATM   11  C   UNK N   1      35.794  13.255  13.425  0.00  0.00     0.018 A 
HETATM   12  C   UNK N   1      35.264  13.500  14.697  0.00  0.00     0.039 A 
HETATM   13  C   UNK N   1      35.710  12.776  15.801  0.00  0.00     0.036 A 
HETATM   14  C   UNK N   1      36.688  11.793  15.639  0.00  0.00     0.047 A 
HETATM   15 Cl   UNK N   1      35.037  13.105  17.382  0.00  0.00    -0.084 Cl
HETATM   16  C   UNK N   1      37.222  11.538  14.371  0.00  0.00     0.036 A 
HETATM   17  C   UNK N   1      36.779  12.271  13.262  0.00  0.00     0.039 A 
HETATM   18 Cl   UNK N   1      38.437  10.295  14.175  0.00  0.00    -0.084 Cl
ENDBRANCH   7  11
BRANCH   4  19
HETATM   19  C   UNK N   1      34.674  18.216   8.256  0.00  0.00     0.176 C 
HETATM   20  O   UNK N   1      35.331  19.153   8.679  0.00  0.00    -0.646 OA
BRANCH  19  21
HETATM   21  O   UNK N   1      34.106  18.301   7.036  0.00  0.00    -0.773 OA
HETATM   22  H   UNK N   1      33.551  19.025   6.823  0.00  0.00     0.167 HD
ENDBRANCH  19  21
ENDBRANCH   4  19
TORSDOF 3
ENDMDL
MODEL 3
REMARK VINA RESULT:      -6.8      9.751     12.263
REMARK  3 active torsions:
REMARK  status: ('A' for Active; 'I' for Inactive)
REMARK    1  A    between atoms: C_14  and  C_7 
REMARK    2  A    between atoms: C_13  and  C_8 
REMARK    3  A    between atoms: O_20  and  C_14 
ROOT
HETATM    1  C   UNK N   1      24.524  20.703   2.495  0.00  0.00     0.021 A 
HETATM    2  C   UNK N   1      25.920  20.668   2.711  0.00  0.00     0.033 A 
HETATM    3  C   UNK N   1      24.168  19.134   4.341  0.00  0.00     0.058 A 
HETATM    4  C   UNK N   1      23.644  19.934   3.309  0.00  0.00     0.040 A 
HETATM    5  C   UNK N   1      26.385  19.863   3.746  0.00  0.00     0.068 A 
HETATM    6  C   UNK N   1      25.541  19.134   4.522  0.00  0.00     0.105 A 
HETATM    7  C   UNK N   1      27.506  18.802   5.200  0.00  0.00     0.159 A 
HETATM    8  N   UNK N   1      27.653  19.666   4.158  0.00  0.00    -0.334 N 
ATOM      9  HN  UNK N   1      28.512  20.066   3.781  1.00  0.00     0.168 HD
HETATM   10  O   UNK N   1      26.239  18.489   5.410  0.00  0.00    -0.291 OA
ENDROOT
BRANCH   7  11
HETATM   11  C   UNK N   1      28.598  18.266   6.019  0.00  0.00     0.018 A 
HETATM   12  C   UNK N   1      28.602  18.535   7.393  0.00  0.00     0.039 A 
HETATM   13  C   UNK N   1      29.619  18.044   8.208  0.00  0.00     0.036 A 
HETATM   14  C   UNK N   1      30.641  17.270   7.655  0.00  0.00     0.047 A 
HETATM   15 Cl   UNK N   1      29.605  18.400   9.921  0.00  0.00    -0.084 Cl
HETATM   16  C   UNK N   1      30.645  16.993   6.283  0.00  0.00     0.036 A 
HETATM   17  C   UNK N   1      29.626  17.494   5.462  0.00  0.00     0.039 A 
HETATM   18 Cl   UNK N   1      31.923  16.012   5.601  0.00  0.00    -0.084 Cl
ENDBRANCH   7  11
BRANCH   4  19
HETATM   19  C   UNK N   1      22.185  19.971   3.095  0.00  0.00     0.176 C 
HETATM   20  O   UNK N   1      21.546  18.935   3.013  0.00  0.00    -0.646 OA
BRANCH  19  21
HETATM   21  O   UNK N   1      21.549  21.155   2.984  0.00  0.00    -0.773 OA
HETATM   22  H   UNK N   1      20.639  21.224   3.197  0.00  0.00     0.167 HD
ENDBRANCH  19  21
ENDBRANCH   4  19
TORSDOF 3
ENDMDL
MODEL 4
REMARK VINA RESULT:      -6.8      4.137      7.800
REMARK  3 active torsions:
REMARK  status: ('A' for Active; 'I' for Inactive)
REMARK    1  A    between atoms: C_14  and  C_7 
REMARK    2  A    between atoms: C_13  and  C_8 
REMARK    3  A    between atoms: O_20  and  C_14 
ROOT
HETATM    1  C   UNK N   1      35.667  10.968  17.964  0.00  0.00     0.021 A 
HETATM    2  C   UNK N   1      36.048  10.697  16.630  0.00  0.00     0.033 A 
HETATM    3  C   UNK N   1      35.398  13.344  17.437  0.00  0.00     0.058 A 
HETATM    4  C   UNK N   1      35.342  12.293  18.371  0.00  0.00     0.040 A 
HETATM    5  C   UNK N   1      36.084  11.772  15.746  0.00  0.00     0.068 A 
HETATM    6  C   UNK N   1      35.770  13.034  16.140  0.00  0.00     0.105 A 
HETATM    7  C   UNK N   1      36.253  13.086  14.092  0.00  0.00     0.159 A 
HETATM    8  N   UNK N   1      36.401  11.777  14.437  0.00  0.00    -0.334 N 
ATOM      9  HN  UNK N   1      36.683  10.993  13.848  1.00  0.00     0.168 HD
HETATM   10  O   UNK N   1      35.877  13.830  15.117  0.00  0.00    -0.291 OA
ENDROOT
BRANCH   7  11
HETATM   11  C   UNK N   1      36.472  13.641  12.752  0.00  0.00     0.018 A 
HETATM   12  C   UNK N   1      37.285  12.935  11.857  0.00  0.00     0.039 A 
HETATM   13  C   UNK N   1      37.518  13.425  10.574  0.00  0.00     0.036 A 
HETATM   14  C   UNK N   1      36.931  14.626  10.171  0.00  0.00     0.047 A 
HETATM   15 Cl   UNK N   1      38.544  12.528   9.477  0.00  0.00    -0.084 Cl
HETATM   16  C   UNK N   1      36.113  15.338  11.057  0.00  0.00     0.036 A 
HETATM   17  C   UNK N   1      35.886  14.848  12.350  0.00  0.00     0.039 A 
HETATM   18 Cl   UNK N   1      35.371  16.835  10.539  0.00  0.00    -0.084 Cl
ENDBRANCH   7  11
BRANCH   4  19
HETATM   19  C   UNK N   1      34.936  12.583  19.759  0.00  0.00     0.176 C 
HETATM   20  O   UNK N   1      34.701  13.728  20.108  0.00  0.00    -0.646 OA
BRANCH  19  21
HETATM   21  O   UNK N   1      34.828  11.580  20.654  0.00  0.00    -0.773 OA
HETATM   22  H   UNK N   1      34.036  11.083  20.712  0.00  0.00     0.167 HD
ENDBRANCH  19  21
ENDBRANCH   4  19
TORSDOF 3
ENDMDL
MODEL 5
REMARK VINA RESULT:      -6.7      4.139      8.015
REMARK  3 active torsions:
REMARK  status: ('A' for Active; 'I' for Inactive)
REMARK    1  A    between atoms: C_14  and  C_7 
REMARK    2  A    between atoms: C_13  and  C_8 
REMARK    3  A    between atoms: O_20  and  C_14 
ROOT
HETATM    1  C   UNK N   1      35.650  10.994  17.967  0.00  0.00     0.021 A 
HETATM    2  C   UNK N   1      36.029  10.696  16.639  0.00  0.00     0.033 A 
HETATM    3  C   UNK N   1      35.436  13.367  17.405  0.00  0.00     0.058 A 
HETATM    4  C   UNK N   1      35.353  12.331  18.354  0.00  0.00     0.040 A 
HETATM    5  C   UNK N   1      36.093  11.756  15.740  0.00  0.00     0.068 A 
HETATM    6  C   UNK N   1      35.806  13.030  16.115  0.00  0.00     0.105 A 
HETATM    7  C   UNK N   1      36.298  13.043  14.068  0.00  0.00     0.159 A 
HETATM    8  N   UNK N   1      36.416  11.736  14.432  0.00  0.00    -0.334 N 
ATOM      9  HN  UNK N   1      36.682  10.938  13.856  1.00  0.00     0.168 HD
HETATM   10  O   UNK N   1      35.934  13.809  15.081  0.00  0.00    -0.291 OA
ENDROOT
BRANCH   7  11
HETATM   11  C   UNK N   1      36.535  13.573  12.721  0.00  0.00     0.018 A 
HETATM   12  C   UNK N   1      35.928  14.782  12.359  0.00  0.00     0.039 A 
HETATM   13  C   UNK N   1      36.126  15.322  11.091  0.00  0.00     0.036 A 
HETATM   14  C   UNK N   1      36.943  14.660  10.173  0.00  0.00     0.047 A 
HETATM   15 Cl   UNK N   1      35.352  16.830  10.661  0.00  0.00    -0.084 Cl
HETATM   16  C   UNK N   1      37.557  13.452  10.525  0.00  0.00     0.036 A 
HETATM   17  C   UNK N   1      37.351  12.905  11.799  0.00  0.00     0.039 A 
HETATM   18 Cl   UNK N   1      38.589  12.635   9.372  0.00  0.00    -0.084 Cl
ENDBRANCH   7  11
BRANCH   4  19
HETATM   19  C   UNK N   1      34.948  12.650  19.736  0.00  0.00     0.176 C 
HETATM   20  O   UNK N   1      34.703  13.801  20.059  0.00  0.00    -0.646 OA
BRANCH  19  21
HETATM   21  O   UNK N   1      34.852  11.668  20.655  0.00  0.00    -0.773 OA
HETATM   22  H   UNK N   1      35.579  11.470  21.212  0.00  0.00     0.167 HD
ENDBRANCH  19  21
ENDBRANCH   4  19
TORSDOF 3
ENDMDL
MODEL 6
REMARK VINA RESULT:      -6.7      9.626     12.064
REMARK  3 active torsions:
REMARK  status: ('A' for Active; 'I' for Inactive)
REMARK    1  A    between atoms: C_14  and  C_7 
REMARK    2  A    between atoms: C_13  and  C_8 
REMARK    3  A    between atoms: O_20  and  C_14 
ROOT
HETATM    1  C   UNK N   1      24.496  20.587   2.742  0.00  0.00     0.021 A 
HETATM    2  C   UNK N   1      25.907  20.643   2.813  0.00  0.00     0.033 A 
HETATM    3  C   UNK N   1      24.460  18.732   4.339  0.00  0.00     0.058 A 
HETATM    4  C   UNK N   1      23.769  19.630   3.505  0.00  0.00     0.040 A 
HETATM    5  C   UNK N   1      26.540  19.733   3.655  0.00  0.00     0.068 A 
HETATM    6  C   UNK N   1      25.840  18.824   4.383  0.00  0.00     0.105 A 
HETATM    7  C   UNK N   1      27.887  18.567   4.804  0.00  0.00     0.159 A 
HETATM    8  N   UNK N   1      27.856  19.588   3.903  0.00  0.00    -0.334 N 
ATOM      9  HN  UNK N   1      28.638  20.114   3.513  1.00  0.00     0.168 HD
HETATM   10  O   UNK N   1      26.677  18.116   5.083  0.00  0.00    -0.291 OA
ENDROOT
BRANCH   7  11
HETATM   11  C   UNK N   1      29.098  18.011   5.416  0.00  0.00     0.018 A 
HETATM   12  C   UNK N   1      30.206  17.755   4.599  0.00  0.00     0.039 A 
HETATM   13  C   UNK N   1      31.377  17.228   5.140  0.00  0.00     0.036 A 
HETATM   14  C   UNK N   1      31.452  16.959   6.507  0.00  0.00     0.047 A 
HETATM   15 Cl   UNK N   1      32.746  16.911   4.098  0.00  0.00    -0.084 Cl
HETATM   16  C   UNK N   1      30.351  17.213   7.333  0.00  0.00     0.036 A 
HETATM   17  C   UNK N   1      29.171  17.736   6.788  0.00  0.00     0.039 A 
HETATM   18 Cl   UNK N   1      30.458  16.884   9.048  0.00  0.00    -0.084 Cl
ENDBRANCH   7  11
BRANCH   4  19
HETATM   19  C   UNK N   1      22.296  19.571   3.444  0.00  0.00     0.176 C 
HETATM   20  O   UNK N   1      21.710  18.523   3.661  0.00  0.00    -0.646 OA
BRANCH  19  21
HETATM   21  O   UNK N   1      21.588  20.678   3.141  0.00  0.00    -0.773 OA
HETATM   22  H   UNK N   1      20.910  20.642   2.496  0.00  0.00     0.167 HD
ENDBRANCH  19  21
ENDBRANCH   4  19
TORSDOF 3
ENDMDL
MODEL 7
REMARK VINA RESULT:      -6.6      2.084      3.433
REMARK  3 active torsions:
REMARK  status: ('A' for Active; 'I' for Inactive)
REMARK    1  A    between atoms: C_14  and  C_7 
REMARK    2  A    between atoms: C_13  and  C_8 
REMARK    3  A    between atoms: O_20  and  C_14 
ROOT
HETATM    1  C   UNK N   1      36.777  14.507  10.087  0.00  0.00     0.021 A 
HETATM    2  C   UNK N   1      37.225  13.458  10.922  0.00  0.00     0.033 A 
HETATM    3  C   UNK N   1      35.049  15.105  11.715  0.00  0.00     0.058 A 
HETATM    4  C   UNK N   1      35.687  15.333  10.481  0.00  0.00     0.040 A 
HETATM    5  C   UNK N   1      36.562  13.278  12.132  0.00  0.00     0.068 A 
HETATM    6  C   UNK N   1      35.524  14.072  12.504  0.00  0.00     0.105 A 
HETATM    7  C   UNK N   1      35.862  12.670  14.039  0.00  0.00     0.159 A 
HETATM    8  N   UNK N   1      36.798  12.368  13.097  0.00  0.00    -0.334 N 
ATOM      9  HN  UNK N   1      37.505  11.633  13.118  1.00  0.00     0.168 HD
HETATM   10  O   UNK N   1      35.104  13.690  13.675  0.00  0.00    -0.291 OA
ENDROOT
BRANCH   7  11
HETATM   11  C   UNK N   1      35.688  11.974  15.318  0.00  0.00     0.018 A 
HETATM   12  C   UNK N   1      35.496  12.735  16.476  0.00  0.00     0.039 A 
HETATM   13  C   UNK N   1      35.325  12.114  17.711  0.00  0.00     0.036 A 
HETATM   14  C   UNK N   1      35.339  10.721  17.797  0.00  0.00     0.047 A 
HETATM   15 Cl   UNK N   1      35.093  13.088  19.146  0.00  0.00    -0.084 Cl
HETATM   16  C   UNK N   1      35.528   9.950  16.645  0.00  0.00     0.036 A 
HETATM   17  C   UNK N   1      35.706  10.575  15.403  0.00  0.00     0.039 A 
HETATM   18 Cl   UNK N   1      35.530   8.204  16.760  0.00  0.00    -0.084 Cl
ENDBRANCH   7  11
BRANCH   4  19
HETATM   19  C   UNK N   1      35.219  16.435   9.620  0.00  0.00     0.176 C 
HETATM   20  O   UNK N   1      35.348  17.595   9.975  0.00  0.00    -0.646 OA
BRANCH  19  21
HETATM   21  O   UNK N   1      34.636  16.164   8.434  0.00  0.00    -0.773 OA
HETATM   22  H   UNK N   1      34.807  16.706   7.690  0.00  0.00     0.167 HD
ENDBRANCH  19  21
ENDBRANCH   4  19
TORSDOF 3
ENDMDL
MODEL 8
REMARK VINA RESULT:      -6.6      7.241     10.124
REMARK  3 active torsions:
REMARK  status: ('A' for Active; 'I' for Inactive)
REMARK    1  A    between atoms: C_14  and  C_7 
REMARK    2  A    between atoms: C_13  and  C_8 
REMARK    3  A    between atoms: O_20  and  C_14 
ROOT
HETATM    1  C   UNK N   1      33.888  17.428   6.308  0.00  0.00     0.021 A 
HETATM    2  C   UNK N   1      32.883  17.108   5.368  0.00  0.00     0.033 A 
HETATM    3  C   UNK N   1      32.195  17.807   8.035  0.00  0.00     0.058 A 
HETATM    4  C   UNK N   1      33.547  17.779   7.644  0.00  0.00     0.040 A 
HETATM    5  C   UNK N   1      31.563  17.148   5.807  0.00  0.00     0.068 A 
HETATM    6  C   UNK N   1      31.243  17.482   7.085  0.00  0.00     0.105 A 
HETATM    7  C   UNK N   1      29.458  17.068   6.048  0.00  0.00     0.159 A 
HETATM    8  N   UNK N   1      30.436  16.881   5.119  0.00  0.00    -0.334 N 
ATOM      9  HN  UNK N   1      30.338  16.606   4.141  1.00  0.00     0.168 HD
HETATM   10  O   UNK N   1      29.950  17.428   7.220  0.00  0.00    -0.291 OA
ENDROOT
BRANCH   7  11
HETATM   11  C   UNK N   1      28.020  16.895   5.814  0.00  0.00     0.018 A 
HETATM   12  C   UNK N   1      27.335  15.914   6.541  0.00  0.00     0.039 A 
HETATM   13  C   UNK N   1      25.970  15.717   6.351  0.00  0.00     0.036 A 
HETATM   14  C   UNK N   1      25.273  16.509   5.436  0.00  0.00     0.047 A 
HETATM   15 Cl   UNK N   1      25.137  14.480   7.266  0.00  0.00    -0.084 Cl
HETATM   16  C   UNK N   1      25.948  17.495   4.707  0.00  0.00     0.036 A 
HETATM   17  C   UNK N   1      27.323  17.687   4.892  0.00  0.00     0.039 A 
HETATM   18 Cl   UNK N   1      25.064  18.491   3.572  0.00  0.00    -0.084 Cl
ENDBRANCH   7  11
BRANCH   4  19
HETATM   19  C   UNK N   1      34.590  18.106   8.634  0.00  0.00     0.176 C 
HETATM   20  O   UNK N   1      34.788  17.374   9.590  0.00  0.00    -0.646 OA
BRANCH  19  21
HETATM   21  O   UNK N   1      35.330  19.224   8.490  0.00  0.00    -0.773 OA
HETATM   22  H   UNK N   1      35.462  19.800   9.218  0.00  0.00     0.167 HD
ENDBRANCH  19  21
ENDBRANCH   4  19
TORSDOF 3
ENDMDL
MODEL 9
REMARK VINA RESULT:      -6.6      2.081      2.854
REMARK  3 active torsions:
REMARK  status: ('A' for Active; 'I' for Inactive)
REMARK    1  A    between atoms: C_14  and  C_7 
REMARK    2  A    between atoms: C_13  and  C_8 
REMARK    3  A    between atoms: O_20  and  C_14 
ROOT
HETATM    1  C   UNK N   1      36.651  14.418  10.002  0.00  0.00     0.021 A 
HETATM    2  C   UNK N   1      37.288  13.612  10.973  0.00  0.00     0.033 A 
HETATM    3  C   UNK N   1      34.740  14.757  11.495  0.00  0.00     0.058 A 
HETATM    4  C   UNK N   1      35.374  14.992  10.260  0.00  0.00     0.040 A 
HETATM    5  C   UNK N   1      36.618  13.413  12.177  0.00  0.00     0.068 A 
HETATM    6  C   UNK N   1      35.401  13.966  12.419  0.00  0.00     0.105 A 
HETATM    7  C   UNK N   1      35.976  12.872  14.123  0.00  0.00     0.159 A 
HETATM    8  N   UNK N   1      37.009  12.703  13.253  0.00  0.00    -0.334 N 
ATOM      9  HN  UNK N   1      37.869  12.170  13.384  1.00  0.00     0.168 HD
HETATM   10  O   UNK N   1      35.018  13.628  13.615  0.00  0.00    -0.291 OA
ENDROOT
BRANCH   7  11
HETATM   11  C   UNK N   1      35.900  12.304  15.473  0.00  0.00     0.018 A 
HETATM   12  C   UNK N   1      36.300  10.976  15.666  0.00  0.00     0.039 A 
HETATM   13  C   UNK N   1      36.246  10.397  16.932  0.00  0.00     0.036 A 
HETATM   14  C   UNK N   1      35.797  11.147  18.021  0.00  0.00     0.047 A 
HETATM   15 Cl   UNK N   1      36.744   8.734  17.146  0.00  0.00    -0.084 Cl
HETATM   16  C   UNK N   1      35.398  12.476  17.839  0.00  0.00     0.036 A 
HETATM   17  C   UNK N   1      35.446  13.056  16.564  0.00  0.00     0.039 A 
HETATM   18 Cl   UNK N   1      34.850  13.412  19.212  0.00  0.00    -0.084 Cl
ENDBRANCH   7  11
BRANCH   4  19
HETATM   19  C   UNK N   1      34.706  15.842   9.257  0.00  0.00     0.176 C 
HETATM   20  O   UNK N   1      35.030  15.782   8.082  0.00  0.00    -0.646 OA
BRANCH  19  21
HETATM   21  O   UNK N   1      33.735  16.697   9.636  0.00  0.00    -0.773 OA
HETATM   22  H   UNK N   1      32.863  16.594   9.310  0.00  0.00     0.167 HD
ENDBRANCH  19  21
ENDBRANCH   4  19
TORSDOF 3
ENDMDL
