REMARK  10 active torsions:
REMARK  status: ('A' for Active; 'I' for Inactive)
REMARK    1  A    between atoms: C_5  and  C_8 
REMARK       I    between atoms: C_8  and  N_10 
REMARK    2  A    between atoms: N_10  and  C_11 
REMARK    3  A    between atoms: N_10  and  C_15 
REMARK    4  A    between atoms: C_11  and  C_12 
REMARK    5  A    between atoms: C_12  and  C_13 
REMARK    6  A    between atoms: C_13  and  N_14 
REMARK    7  A    between atoms: C_15  and  C_16 
REMARK    8  A    between atoms: C_15  and  C_36 
REMARK    9  A    between atoms: N_28  and  C_29 
REMARK   10  A    between atoms: C_29  and  C_30 
ROOT
HETATM    1  C   UNK N   1       0.350   0.848  -0.213  0.00  0.00     0.111 A 
HETATM    2  N   UNK N   1      -0.963   0.787   0.143  0.00  0.00    -0.336 N 
ATOM      3  HN  UNK N   1      -1.370  -0.105   0.424  1.00  0.00     0.168 HD
HETATM    4  C   UNK N   1      -1.723   1.889   0.125  0.00  0.00     0.110 A 
HETATM    5  C   UNK N   1      -1.251   3.119  -0.234  0.00  0.00     0.090 A 
HETATM    6  C   UNK N   1      -2.278   4.132  -0.189  0.00  0.00     0.030 A 
HETATM    7  N   UNK N   1      -3.518   3.683   0.187  0.00  0.00    -0.328 N 
ATOM      8  HN  UNK N   1      -4.377   4.226   0.280  1.00  0.00     0.174 HD
HETATM    9  S   UNK N   1      -3.311   2.069   0.454  0.00  0.00     0.005 SA
HETATM   10  C   UNK N   1      -2.047   5.564  -0.524  0.00  0.00     0.070 C 
HETATM   11  C   UNK N   1       0.090   3.221  -0.603  0.00  0.00     0.264 A 
HETATM   12  O   UNK N   1       0.530   4.296  -0.973  0.00  0.00    -0.267 OA
HETATM   13  N   UNK N   1       0.898   2.078  -0.591  0.00  0.00    -0.297 N 
ENDROOT
BRANCH   1  14
HETATM   14  C   UNK N   1       1.158  -0.465  -0.263  0.00  0.00     0.159 C 
BRANCH  14  15
HETATM   15  N   UNK N   1       0.415  -1.736  -0.039  0.00  0.00    -0.336 N 
HETATM   16  C   UNK N   1       0.875  -2.910  -0.613  0.00  0.00     0.254 C 
HETATM   17  O   UNK N   1       1.864  -2.864  -1.331  0.00  0.00    -0.267 OA
BRANCH  16  18
HETATM   18  C   UNK N   1       0.244  -4.270  -0.405  0.00  0.00     0.032 A 
HETATM   19  C   UNK N   1      -0.986  -4.460   0.248  0.00  0.00     0.017 A 
HETATM   20  C   UNK N   1      -1.554  -5.728   0.381  0.00  0.00     0.007 A 
HETATM   21  C   UNK N   1      -0.891  -6.842  -0.127  0.00  0.00    -0.062 A 
HETATM   22  C   UNK N   1      -1.498  -8.193   0.010  0.00  0.00     0.048 C 
HETATM   23  C   UNK N   1       0.341  -6.685  -0.767  0.00  0.00     0.007 A 
HETATM   24  C   UNK N   1       0.899  -5.408  -0.911  0.00  0.00     0.017 A 
ENDBRANCH  16  18
BRANCH  15  25
HETATM   25  C   UNK N   1      -0.689  -1.758   0.909  0.00  0.00     0.129 C 
BRANCH  25  26
HETATM   26  C   UNK N   1      -2.036  -1.790   0.186  0.00  0.00     0.039 C 
BRANCH  26  27
HETATM   27  C   UNK N   1      -3.159  -1.732   1.200  0.00  0.00     0.112 C 
BRANCH  27  28
HETATM   28  N   UNK N   1      -4.434  -1.710   0.508  0.00  0.00    -0.430 N 
HETATM   29  H   UNK N   1      -4.869  -0.926   0.021  0.00  0.00     0.149 HD
HETATM   30  H   UNK N   1      -4.959  -2.585   0.508  0.00  0.00     0.149 HD
ENDBRANCH  27  28
ENDBRANCH  26  27
ENDBRANCH  25  26
ENDBRANCH  15  25
ENDBRANCH  14  15
BRANCH  14  31
HETATM   31  C   UNK N   1       2.501  -0.401   0.490  0.00  0.00     0.008 C 
HETATM   32  C   UNK N   1       3.653  -0.811  -0.408  0.00  0.00     0.012 C 
HETATM   33  C   UNK N   1       2.528  -1.198   1.784  0.00  0.00     0.012 C 
ENDBRANCH  14  31
ENDBRANCH   1  14
BRANCH  13  34
HETATM   34  C   UNK N   1       2.283   2.155  -1.102  0.00  0.00     0.172 C 
BRANCH  34  35
HETATM   35  C   UNK N   1       3.280   2.991  -0.323  0.00  0.00    -0.040 A 
HETATM   36  C   UNK N   1       3.075   4.358  -0.080  0.00  0.00     0.009 A 
HETATM   37  C   UNK N   1       4.070   5.136   0.522  0.00  0.00     0.001 A 
HETATM   38  C   UNK N   1       5.295   4.558   0.864  0.00  0.00     0.000 A 
HETATM   39  C   UNK N   1       5.516   3.201   0.614  0.00  0.00     0.001 A 
HETATM   40  C   UNK N   1       4.515   2.424   0.019  0.00  0.00     0.009 A 
ENDBRANCH  34  35
ENDBRANCH  13  34
TORSDOF 10
