MODEL 1
REMARK VINA RESULT:      -7.6      0.000      0.000
REMARK  9 active torsions:
REMARK  status: ('A' for Active; 'I' for Inactive)
REMARK    1  A    between atoms: C_2  and  O_5 
REMARK    2  A    between atoms: O_5  and  C_6 
REMARK       I    between atoms: C_6  and  N_8 
REMARK    3  A    between atoms: N_8  and  C_9 
REMARK    4  A    between atoms: C_9  and  C_10 
REMARK    5  A    between atoms: C_10  and  N_11 
REMARK    6  A    between atoms: N_15  and  C_20 
REMARK    7  A    between atoms: C_20  and  C_21 
REMARK    8  A    between atoms: C_21  and  O_22 
REMARK    9  A    between atoms: O_22  and  C_23 
ROOT
HETATM    1  C   UNK N   1      27.881  18.589   5.363  0.00  0.00     0.107 A 
HETATM    2  C   UNK N   1      28.160  19.716   4.569  0.00  0.00     0.041 A 
HETATM    3  C   UNK N   1      27.130  20.276   3.796  0.00  0.00     0.025 A 
HETATM    4  C   UNK N   1      25.858  19.684   3.816  0.00  0.00     0.047 A 
HETATM    5  C   UNK N   1      25.629  18.526   4.519  0.00  0.00     0.068 A 
HETATM    6  C   UNK N   1      26.621  17.981   5.287  0.00  0.00     0.151 A 
HETATM    7  F   UNK N   1      26.314  16.885   5.999  0.00  0.00    -0.203 F 
HETATM    8  C   UNK N   1      24.701  20.358   3.345  0.00  0.00     0.099 C 
HETATM    9  N   UNK N   1      23.719  20.848   2.986  0.00  0.00    -0.191 NA
ENDROOT
BRANCH   1  10
HETATM   10  O   UNK N   1      28.772  18.068   6.222  0.00  0.00    -0.346 OA
BRANCH  10  11
HETATM   11  C   UNK N   1      29.411  16.863   6.133  0.00  0.00     0.195 C 
BRANCH  11  12
HETATM   12  C   UNK N   1      30.781  17.045   5.463  0.00  0.00     0.143 C 
BRANCH  12  13
HETATM   13  N   UNK N   1      31.938  16.575   6.238  0.00  0.00    -0.406 N 
HETATM   14  C   UNK N   1      32.985  17.606   6.448  0.00  0.00     0.150 C 
HETATM   15  C   UNK N   1      33.100  18.105   7.921  0.00  0.00     0.167 C 
HETATM   16  C   UNK N   1      34.535  18.002   8.426  0.00  0.00     0.306 C 
HETATM   17  O   UNK N   1      32.274  17.411   8.832  0.00  0.00    -0.374 OA
HETATM   18  N   UNK N   1      34.884  16.614   8.774  0.00  0.00     0.095 N 
HETATM   19  C   UNK N   1      33.896  15.640   8.268  0.00  0.00     0.306 C 
HETATM   20  C   UNK N   1      32.426  16.033   8.592  0.00  0.00     0.167 C 
HETATM   21  C   UNK N   1      31.563  15.726   7.382  0.00  0.00     0.150 C 
BRANCH  18  22
HETATM   22  C   UNK N   1      35.108  16.539  10.224  0.00  0.00     0.292 C 
BRANCH  22  23
HETATM   23  C   UNK N   1      36.128  15.479  10.648  0.00  0.00     0.155 C 
BRANCH  23  24
HETATM   24  N   UNK N   1      36.027  15.177  12.057  0.00  0.00    -0.335 N 
HETATM   25  C   UNK N   1      35.380  14.072  12.504  0.00  0.00     0.361 C 
HETATM   26  O   UNK N   1      34.926  13.253  11.718  0.00  0.00    -0.238 OA
HETATM   27  H   UNK N   1      36.438  15.790  12.710  0.00  0.00     0.164 HD
BRANCH  25  28
HETATM   28  O   UNK N   1      35.157  13.912  13.827  0.00  0.00    -0.294 OA
BRANCH  28  29
HETATM   29  C   UNK N   1      36.067  13.244  14.632  0.00  0.00     0.061 C 
HETATM   30  C   UNK N   1      36.923  14.253  15.361  0.00  0.00     0.046 C 
HETATM   31  C   UNK N   1      35.312  12.412  15.656  0.00  0.00     0.046 C 
HETATM   32  C   UNK N   1      36.992  12.333  13.832  0.00  0.00     0.046 C 
ENDBRANCH  28  29
ENDBRANCH  25  28
ENDBRANCH  23  24
ENDBRANCH  22  23
ENDBRANCH  18  22
ENDBRANCH  12  13
ENDBRANCH  11  12
ENDBRANCH  10  11
ENDBRANCH   1  10
TORSDOF 9
ENDMDL
MODEL 2
REMARK VINA RESULT:      -7.3      1.714      2.114
REMARK  9 active torsions:
REMARK  status: ('A' for Active; 'I' for Inactive)
REMARK    1  A    between atoms: C_2  and  O_5 
REMARK    2  A    between atoms: O_5  and  C_6 
REMARK       I    between atoms: C_6  and  N_8 
REMARK    3  A    between atoms: N_8  and  C_9 
REMARK    4  A    between atoms: C_9  and  C_10 
REMARK    5  A    between atoms: C_10  and  N_11 
REMARK    6  A    between atoms: N_15  and  C_20 
REMARK    7  A    between atoms: C_20  and  C_21 
REMARK    8  A    between atoms: C_21  and  O_22 
REMARK    9  A    between atoms: O_22  and  C_23 
ROOT
HETATM    1  C   UNK N   1      28.958  17.281   5.860  0.00  0.00     0.107 A 
HETATM    2  C   UNK N   1      28.987  17.733   7.192  0.00  0.00     0.041 A 
HETATM    3  C   UNK N   1      28.392  18.966   7.506  0.00  0.00     0.025 A 
HETATM    4  C   UNK N   1      27.806  19.725   6.481  0.00  0.00     0.047 A 
HETATM    5  C   UNK N   1      27.875  19.316   5.171  0.00  0.00     0.068 A 
HETATM    6  C   UNK N   1      28.439  18.110   4.857  0.00  0.00     0.151 A 
HETATM    7  F   UNK N   1      28.418  17.741   3.567  0.00  0.00    -0.203 F 
HETATM    8  C   UNK N   1      26.910  20.793   6.747  0.00  0.00     0.099 C 
HETATM    9  N   UNK N   1      26.170  21.668   6.889  0.00  0.00    -0.191 NA
ENDROOT
BRANCH   1  10
HETATM   10  O   UNK N   1      29.393  16.064   5.498  0.00  0.00    -0.346 OA
BRANCH  10  11
HETATM   11  C   UNK N   1      30.654  15.712   5.103  0.00  0.00     0.195 C 
BRANCH  11  12
HETATM   12  C   UNK N   1      31.185  14.579   5.995  0.00  0.00     0.143 C 
BRANCH  12  13
HETATM   13  N   UNK N   1      32.447  14.857   6.696  0.00  0.00    -0.406 N 
HETATM   14  C   UNK N   1      32.729  16.302   6.884  0.00  0.00     0.150 C 
HETATM   15  C   UNK N   1      32.626  16.782   8.364  0.00  0.00     0.167 C 
HETATM   16  C   UNK N   1      33.891  17.518   8.792  0.00  0.00     0.306 C 
HETATM   17  O   UNK N   1      32.400  15.743   9.294  0.00  0.00    -0.374 OA
HETATM   18  N   UNK N   1      34.989  16.580   9.079  0.00  0.00     0.095 N 
HETATM   19  C   UNK N   1      34.705  15.214   8.593  0.00  0.00     0.306 C 
HETATM   20  C   UNK N   1      33.296  14.699   9.003  0.00  0.00     0.167 C 
HETATM   21  C   UNK N   1      32.692  13.949   7.830  0.00  0.00     0.150 C 
BRANCH  18  22
HETATM   22  C   UNK N   1      35.302  16.651  10.512  0.00  0.00     0.292 C 
BRANCH  22  23
HETATM   23  C   UNK N   1      36.292  15.586  10.992  0.00  0.00     0.155 C 
BRANCH  23  24
HETATM   24  N   UNK N   1      36.070  15.240  12.378  0.00  0.00    -0.335 N 
HETATM   25  C   UNK N   1      35.576  14.030  12.739  0.00  0.00     0.361 C 
HETATM   26  O   UNK N   1      35.372  13.162  11.901  0.00  0.00    -0.238 OA
HETATM   27  H   UNK N   1      36.283  15.900  13.077  0.00  0.00     0.164 HD
BRANCH  25  28
HETATM   28  O   UNK N   1      35.221  13.804  14.023  0.00  0.00    -0.294 OA
BRANCH  28  29
HETATM   29  C   UNK N   1      36.141  13.342  14.951  0.00  0.00     0.061 C 
HETATM   30  C   UNK N   1      37.014  14.489  15.401  0.00  0.00     0.046 C 
HETATM   31  C   UNK N   1      35.401  12.788  16.157  0.00  0.00     0.046 C 
HETATM   32  C   UNK N   1      37.048  12.256  14.380  0.00  0.00     0.046 C 
ENDBRANCH  28  29
ENDBRANCH  25  28
ENDBRANCH  23  24
ENDBRANCH  22  23
ENDBRANCH  18  22
ENDBRANCH  12  13
ENDBRANCH  11  12
ENDBRANCH  10  11
ENDBRANCH   1  10
TORSDOF 9
ENDMDL
MODEL 3
REMARK VINA RESULT:      -7.1      4.034     12.160
REMARK  9 active torsions:
REMARK  status: ('A' for Active; 'I' for Inactive)
REMARK    1  A    between atoms: C_2  and  O_5 
REMARK    2  A    between atoms: O_5  and  C_6 
REMARK       I    between atoms: C_6  and  N_8 
REMARK    3  A    between atoms: N_8  and  C_9 
REMARK    4  A    between atoms: C_9  and  C_10 
REMARK    5  A    between atoms: C_10  and  N_11 
REMARK    6  A    between atoms: N_15  and  C_20 
REMARK    7  A    between atoms: C_20  and  C_21 
REMARK    8  A    between atoms: C_21  and  O_22 
REMARK    9  A    between atoms: O_22  and  C_23 
ROOT
HETATM    1  C   UNK N   1      35.601  12.295  16.673  0.00  0.00     0.107 A 
HETATM    2  C   UNK N   1      35.878  10.922  16.797  0.00  0.00     0.041 A 
HETATM    3  C   UNK N   1      35.751  10.312  18.055  0.00  0.00     0.025 A 
HETATM    4  C   UNK N   1      35.374  11.091  19.160  0.00  0.00     0.047 A 
HETATM    5  C   UNK N   1      35.204  12.450  19.041  0.00  0.00     0.068 A 
HETATM    6  C   UNK N   1      35.311  13.051  17.818  0.00  0.00     0.151 A 
HETATM    7  F   UNK N   1      35.071  14.370  17.759  0.00  0.00    -0.203 F 
HETATM    8  C   UNK N   1      34.905  10.514  20.369  0.00  0.00     0.099 C 
HETATM    9  N   UNK N   1      34.509  10.115  21.377  0.00  0.00    -0.191 NA
ENDROOT
BRANCH   1  10
HETATM   10  O   UNK N   1      35.580  12.927  15.489  0.00  0.00    -0.346 OA
BRANCH  10  11
HETATM   11  C   UNK N   1      36.630  13.508  14.835  0.00  0.00     0.195 C 
BRANCH  11  12
HETATM   12  C   UNK N   1      36.835  12.833  13.470  0.00  0.00     0.143 C 
BRANCH  12  13
HETATM   13  N   UNK N   1      36.633  13.695  12.295  0.00  0.00    -0.406 N 
HETATM   14  C   UNK N   1      36.033  12.998  11.131  0.00  0.00     0.150 C 
HETATM   15  C   UNK N   1      34.570  13.432  10.814  0.00  0.00     0.167 C 
HETATM   16  C   UNK N   1      34.422  13.846   9.354  0.00  0.00     0.306 C 
HETATM   17  O   UNK N   1      34.098  14.499  11.611  0.00  0.00    -0.374 OA
HETATM   18  N   UNK N   1      34.968  15.193   9.119  0.00  0.00     0.095 N 
HETATM   19  C   UNK N   1      35.786  15.676  10.250  0.00  0.00     0.306 C 
HETATM   20  C   UNK N   1      35.090  15.497  11.630  0.00  0.00     0.167 C 
HETATM   21  C   UNK N   1      36.124  15.034  12.639  0.00  0.00     0.150 C 
BRANCH  18  22
HETATM   22  C   UNK N   1      33.862  16.089   8.757  0.00  0.00     0.292 C 
BRANCH  22  23
HETATM   23  C   UNK N   1      33.055  15.631   7.540  0.00  0.00     0.155 C 
BRANCH  23  24
HETATM   24  N   UNK N   1      31.633  15.746   7.770  0.00  0.00    -0.335 N 
HETATM   25  C   UNK N   1      30.881  16.674   7.127  0.00  0.00     0.361 C 
HETATM   26  O   UNK N   1      31.374  17.395   6.271  0.00  0.00    -0.238 OA
HETATM   27  H   UNK N   1      31.200  15.136   8.410  0.00  0.00     0.164 HD
BRANCH  25  28
HETATM   28  O   UNK N   1      29.594  16.867   7.491  0.00  0.00    -0.294 OA
BRANCH  28  29
HETATM   29  C   UNK N   1      29.239  17.895   8.350  0.00  0.00     0.061 C 
HETATM   30  C   UNK N   1      28.492  18.956   7.577  0.00  0.00     0.046 C 
HETATM   31  C   UNK N   1      28.326  17.347   9.436  0.00  0.00     0.046 C 
HETATM   32  C   UNK N   1      30.450  18.553   9.002  0.00  0.00     0.046 C 
ENDBRANCH  28  29
ENDBRANCH  25  28
ENDBRANCH  23  24
ENDBRANCH  22  23
ENDBRANCH  18  22
ENDBRANCH  12  13
ENDBRANCH  11  12
ENDBRANCH  10  11
ENDBRANCH   1  10
TORSDOF 9
ENDMDL
MODEL 4
REMARK VINA RESULT:      -7.1      4.369     11.636
REMARK  9 active torsions:
REMARK  status: ('A' for Active; 'I' for Inactive)
REMARK    1  A    between atoms: C_2  and  O_5 
REMARK    2  A    between atoms: O_5  and  C_6 
REMARK       I    between atoms: C_6  and  N_8 
REMARK    3  A    between atoms: N_8  and  C_9 
REMARK    4  A    between atoms: C_9  and  C_10 
REMARK    5  A    between atoms: C_10  and  N_11 
REMARK    6  A    between atoms: N_15  and  C_20 
REMARK    7  A    between atoms: C_20  and  C_21 
REMARK    8  A    between atoms: C_21  and  O_22 
REMARK    9  A    between atoms: O_22  and  C_23 
ROOT
HETATM    1  C   UNK N   1      34.632  11.781  15.683  0.00  0.00     0.107 A 
HETATM    2  C   UNK N   1      34.553  10.380  15.774  0.00  0.00     0.041 A 
HETATM    3  C   UNK N   1      34.803   9.763  17.010  0.00  0.00     0.025 A 
HETATM    4  C   UNK N   1      35.149  10.555  18.115  0.00  0.00     0.047 A 
HETATM    5  C   UNK N   1      35.319  11.913  17.985  0.00  0.00     0.068 A 
HETATM    6  C   UNK N   1      35.063  12.526  16.790  0.00  0.00     0.151 A 
HETATM    7  F   UNK N   1      35.187  13.861  16.746  0.00  0.00    -0.203 F 
HETATM    8  C   UNK N   1      35.091  10.065  19.446  0.00  0.00     0.099 C 
HETATM    9  N   UNK N   1      35.062   9.737  20.553  0.00  0.00    -0.191 NA
ENDROOT
BRANCH   1  10
HETATM   10  O   UNK N   1      34.289  12.457  14.575  0.00  0.00    -0.346 OA
BRANCH  10  11
HETATM   11  C   UNK N   1      34.934  12.464  13.370  0.00  0.00     0.195 C 
BRANCH  11  12
HETATM   12  C   UNK N   1      35.723  13.772  13.205  0.00  0.00     0.143 C 
BRANCH  12  13
HETATM   13  N   UNK N   1      35.789  14.310  11.838  0.00  0.00    -0.406 N 
HETATM   14  C   UNK N   1      36.751  13.603  10.957  0.00  0.00     0.150 C 
HETATM   15  C   UNK N   1      36.079  12.760   9.831  0.00  0.00     0.167 C 
HETATM   16  C   UNK N   1      36.648  13.118   8.462  0.00  0.00     0.306 C 
HETATM   17  O   UNK N   1      34.676  12.902   9.761  0.00  0.00    -0.374 OA
HETATM   18  N   UNK N   1      36.094  14.388   7.964  0.00  0.00     0.095 N 
HETATM   19  C   UNK N   1      35.385  15.144   9.016  0.00  0.00     0.306 C 
HETATM   20  C   UNK N   1      34.376  14.276   9.820  0.00  0.00     0.167 C 
HETATM   21  C   UNK N   1      34.468  14.656  11.287  0.00  0.00     0.150 C 
BRANCH  18  22
HETATM   22  C   UNK N   1      35.278  14.109   6.776  0.00  0.00     0.292 C 
BRANCH  22  23
HETATM   23  C   UNK N   1      35.282  15.229   5.733  0.00  0.00     0.155 C 
BRANCH  23  24
HETATM   24  N   UNK N   1      33.979  15.841   5.604  0.00  0.00    -0.335 N 
HETATM   25  C   UNK N   1      33.702  17.047   6.159  0.00  0.00     0.361 C 
HETATM   26  O   UNK N   1      34.575  17.692   6.723  0.00  0.00    -0.238 OA
HETATM   27  H   UNK N   1      33.275  15.370   5.103  0.00  0.00     0.164 HD
BRANCH  25  28
HETATM   28  O   UNK N   1      32.432  17.509   6.167  0.00  0.00    -0.294 OA
BRANCH  28  29
HETATM   29  C   UNK N   1      31.532  17.115   7.145  0.00  0.00     0.061 C 
HETATM   30  C   UNK N   1      30.126  17.244   6.611  0.00  0.00     0.046 C 
HETATM   31  C   UNK N   1      31.788  15.660   7.503  0.00  0.00     0.046 C 
HETATM   32  C   UNK N   1      31.637  17.966   8.407  0.00  0.00     0.046 C 
ENDBRANCH  28  29
ENDBRANCH  25  28
ENDBRANCH  23  24
ENDBRANCH  22  23
ENDBRANCH  18  22
ENDBRANCH  12  13
ENDBRANCH  11  12
ENDBRANCH  10  11
ENDBRANCH   1  10
TORSDOF 9
ENDMDL
MODEL 5
REMARK VINA RESULT:      -7.1      4.149     11.657
REMARK  9 active torsions:
REMARK  status: ('A' for Active; 'I' for Inactive)
REMARK    1  A    between atoms: C_2  and  O_5 
REMARK    2  A    between atoms: O_5  and  C_6 
REMARK       I    between atoms: C_6  and  N_8 
REMARK    3  A    between atoms: N_8  and  C_9 
REMARK    4  A    between atoms: C_9  and  C_10 
REMARK    5  A    between atoms: C_10  and  N_11 
REMARK    6  A    between atoms: N_15  and  C_20 
REMARK    7  A    between atoms: C_20  and  C_21 
REMARK    8  A    between atoms: C_21  and  O_22 
REMARK    9  A    between atoms: O_22  and  C_23 
ROOT
HETATM    1  C   UNK N   1      34.683  11.463  15.225  0.00  0.00     0.107 A 
HETATM    2  C   UNK N   1      34.687  10.117  15.633  0.00  0.00     0.041 A 
HETATM    3  C   UNK N   1      34.915   9.816  16.985  0.00  0.00     0.025 A 
HETATM    4  C   UNK N   1      35.156  10.862  17.890  0.00  0.00     0.047 A 
HETATM    5  C   UNK N   1      35.247  12.163  17.456  0.00  0.00     0.068 A 
HETATM    6  C   UNK N   1      35.012  12.468  16.144  0.00  0.00     0.151 A 
HETATM    7  F   UNK N   1      35.055  13.764  15.798  0.00  0.00    -0.203 F 
HETATM    8  C   UNK N   1      35.065  10.685  19.295  0.00  0.00     0.099 C 
HETATM    9  N   UNK N   1      35.002  10.616  20.446  0.00  0.00    -0.191 NA
ENDROOT
BRANCH   1  10
HETATM   10  O   UNK N   1      34.353  11.842  13.980  0.00  0.00    -0.346 OA
BRANCH  10  11
HETATM   11  C   UNK N   1      34.754  11.276  12.802  0.00  0.00     0.195 C 
BRANCH  11  12
HETATM   12  C   UNK N   1      36.175  11.744  12.453  0.00  0.00     0.143 C 
BRANCH  12  13
HETATM   13  N   UNK N   1      36.264  12.984  11.667  0.00  0.00    -0.406 N 
HETATM   14  C   UNK N   1      35.528  12.937  10.379  0.00  0.00     0.150 C 
HETATM   15  C   UNK N   1      34.260  13.842  10.339  0.00  0.00     0.167 C 
HETATM   16  C   UNK N   1      34.283  14.767   9.126  0.00  0.00     0.306 C 
HETATM   17  O   UNK N   1      34.086  14.646  11.487  0.00  0.00    -0.374 OA
HETATM   18  N   UNK N   1      35.197  15.903   9.333  0.00  0.00     0.095 N 
HETATM   19  C   UNK N   1      36.082  15.709  10.500  0.00  0.00     0.306 C 
HETATM   20  C   UNK N   1      35.320  15.257  11.778  0.00  0.00     0.167 C 
HETATM   21  C   UNK N   1      36.147  14.201  12.489  0.00  0.00     0.150 C 
BRANCH  18  22
HETATM   22  C   UNK N   1      34.403  17.138   9.384  0.00  0.00     0.292 C 
BRANCH  22  23
HETATM   23  C   UNK N   1      34.651  18.093   8.214  0.00  0.00     0.155 C 
BRANCH  23  24
HETATM   24  N   UNK N   1      33.562  18.065   7.265  0.00  0.00    -0.335 N 
HETATM   25  C   UNK N   1      33.639  17.353   6.114  0.00  0.00     0.361 C 
HETATM   26  O   UNK N   1      34.609  16.646   5.879  0.00  0.00    -0.238 OA
HETATM   27  H   UNK N   1      32.744  18.578   7.459  0.00  0.00     0.164 HD
BRANCH  25  28
HETATM   28  O   UNK N   1      32.677  17.487   5.174  0.00  0.00    -0.294 OA
BRANCH  28  29
HETATM   29  C   UNK N   1      31.626  16.587   5.090  0.00  0.00     0.061 C 
HETATM   30  C   UNK N   1      31.722  15.600   6.229  0.00  0.00     0.046 C 
HETATM   31  C   UNK N   1      30.312  17.341   5.207  0.00  0.00     0.046 C 
HETATM   32  C   UNK N   1      31.636  15.801   3.783  0.00  0.00     0.046 C 
ENDBRANCH  28  29
ENDBRANCH  25  28
ENDBRANCH  23  24
ENDBRANCH  22  23
ENDBRANCH  18  22
ENDBRANCH  12  13
ENDBRANCH  11  12
ENDBRANCH  10  11
ENDBRANCH   1  10
TORSDOF 9
ENDMDL
MODEL 6
REMARK VINA RESULT:      -7.1      3.001     11.507
REMARK  9 active torsions:
REMARK  status: ('A' for Active; 'I' for Inactive)
REMARK    1  A    between atoms: C_2  and  O_5 
REMARK    2  A    between atoms: O_5  and  C_6 
REMARK       I    between atoms: C_6  and  N_8 
REMARK    3  A    between atoms: N_8  and  C_9 
REMARK    4  A    between atoms: C_9  and  C_10 
REMARK    5  A    between atoms: C_10  and  N_11 
REMARK    6  A    between atoms: N_15  and  C_20 
REMARK    7  A    between atoms: C_20  and  C_21 
REMARK    8  A    between atoms: C_21  and  O_22 
REMARK    9  A    between atoms: O_22  and  C_23 
ROOT
HETATM    1  C   UNK N   1      35.449  13.740  13.160  0.00  0.00     0.107 A 
HETATM    2  C   UNK N   1      34.945  12.429  13.086  0.00  0.00     0.041 A 
HETATM    3  C   UNK N   1      35.232  11.530  14.127  0.00  0.00     0.025 A 
HETATM    4  C   UNK N   1      36.031  11.954  15.199  0.00  0.00     0.047 A 
HETATM    5  C   UNK N   1      36.597  13.207  15.206  0.00  0.00     0.068 A 
HETATM    6  C   UNK N   1      36.312  14.094  14.206  0.00  0.00     0.151 A 
HETATM    7  F   UNK N   1      36.846  15.322  14.304  0.00  0.00    -0.203 F 
HETATM    8  C   UNK N   1      36.093  11.243  16.426  0.00  0.00     0.099 C 
HETATM    9  N   UNK N   1      36.186  10.720  17.451  0.00  0.00    -0.191 NA
ENDROOT
BRANCH   1  10
HETATM   10  O   UNK N   1      35.122  14.693  12.273  0.00  0.00    -0.346 OA
BRANCH  10  11
HETATM   11  C   UNK N   1      35.773  15.013  11.115  0.00  0.00     0.195 C 
BRANCH  11  12
HETATM   12  C   UNK N   1      35.297  16.382  10.607  0.00  0.00     0.143 C 
BRANCH  12  13
HETATM   13  N   UNK N   1      34.825  16.418   9.215  0.00  0.00    -0.406 N 
HETATM   14  C   UNK N   1      33.841  15.358   8.882  0.00  0.00     0.150 C 
HETATM   15  C   UNK N   1      32.395  15.887   8.638  0.00  0.00     0.167 C 
HETATM   16  C   UNK N   1      31.849  15.397   7.301  0.00  0.00     0.306 C 
HETATM   17  O   UNK N   1      32.283  17.295   8.656  0.00  0.00    -0.374 OA
HETATM   18  N   UNK N   1      32.414  16.161   6.176  0.00  0.00     0.095 N 
HETATM   19  C   UNK N   1      33.576  16.979   6.578  0.00  0.00     0.306 C 
HETATM   20  C   UNK N   1      33.319  17.821   7.861  0.00  0.00     0.167 C 
HETATM   21  C   UNK N   1      34.565  17.783   8.726  0.00  0.00     0.150 C 
BRANCH  18  22
HETATM   22  C   UNK N   1      31.334  16.928   5.542  0.00  0.00     0.292 C 
BRANCH  22  23
HETATM   23  C   UNK N   1      29.941  16.632   6.103  0.00  0.00     0.155 C 
BRANCH  23  24
HETATM   24  N   UNK N   1      29.289  17.833   6.571  0.00  0.00    -0.335 N 
HETATM   25  C   UNK N   1      27.963  18.044   6.380  0.00  0.00     0.361 C 
HETATM   26  O   UNK N   1      27.260  17.183   5.870  0.00  0.00    -0.238 OA
HETATM   27  H   UNK N   1      29.822  18.517   7.039  0.00  0.00     0.164 HD
BRANCH  25  28
HETATM   28  O   UNK N   1      27.424  19.248   6.675  0.00  0.00    -0.294 OA
BRANCH  28  29
HETATM   29  C   UNK N   1      27.054  20.132   5.674  0.00  0.00     0.061 C 
HETATM   30  C   UNK N   1      27.079  21.541   6.219  0.00  0.00     0.046 C 
HETATM   31  C   UNK N   1      28.047  20.034   4.528  0.00  0.00     0.046 C 
HETATM   32  C   UNK N   1      25.650  19.857   5.144  0.00  0.00     0.046 C 
ENDBRANCH  28  29
ENDBRANCH  25  28
ENDBRANCH  23  24
ENDBRANCH  22  23
ENDBRANCH  18  22
ENDBRANCH  12  13
ENDBRANCH  11  12
ENDBRANCH  10  11
ENDBRANCH   1  10
TORSDOF 9
ENDMDL
MODEL 7
REMARK VINA RESULT:      -6.8      6.471     11.085
REMARK  9 active torsions:
REMARK  status: ('A' for Active; 'I' for Inactive)
REMARK    1  A    between atoms: C_2  and  O_5 
REMARK    2  A    between atoms: O_5  and  C_6 
REMARK       I    between atoms: C_6  and  N_8 
REMARK    3  A    between atoms: N_8  and  C_9 
REMARK    4  A    between atoms: C_9  and  C_10 
REMARK    5  A    between atoms: C_10  and  N_11 
REMARK    6  A    between atoms: N_15  and  C_20 
REMARK    7  A    between atoms: C_20  and  C_21 
REMARK    8  A    between atoms: C_21  and  O_22 
REMARK    9  A    between atoms: O_22  and  C_23 
ROOT
HETATM    1  C   UNK N   1      22.271  12.502   9.004  0.00  0.00     0.107 A 
HETATM    2  C   UNK N   1      21.225  12.547   9.944  0.00  0.00     0.041 A 
HETATM    3  C   UNK N   1      21.514  12.307  11.296  0.00  0.00     0.025 A 
HETATM    4  C   UNK N   1      22.832  12.004  11.673  0.00  0.00     0.047 A 
HETATM    5  C   UNK N   1      23.822  11.866  10.730  0.00  0.00     0.068 A 
HETATM    6  C   UNK N   1      23.554  12.113   9.412  0.00  0.00     0.151 A 
HETATM    7  F   UNK N   1      24.579  12.023   8.550  0.00  0.00    -0.203 F 
HETATM    8  C   UNK N   1      23.270  12.077  13.021  0.00  0.00     0.099 C 
HETATM    9  N   UNK N   1      23.697  12.121  14.093  0.00  0.00    -0.191 NA
ENDROOT
BRANCH   1  10
HETATM   10  O   UNK N   1      22.103  12.839   7.716  0.00  0.00    -0.346 OA
BRANCH  10  11
HETATM   11  C   UNK N   1      21.066  13.537   7.165  0.00  0.00     0.195 C 
BRANCH  11  12
HETATM   12  C   UNK N   1      21.096  13.400   5.635  0.00  0.00     0.143 C 
BRANCH  12  13
HETATM   13  N   UNK N   1      21.831  14.450   4.914  0.00  0.00    -0.406 N 
HETATM   14  C   UNK N   1      21.056  15.698   4.708  0.00  0.00     0.150 C 
HETATM   15  C   UNK N   1      21.566  16.909   5.547  0.00  0.00     0.167 C 
HETATM   16  C   UNK N   1      21.821  18.124   4.661  0.00  0.00     0.306 C 
HETATM   17  O   UNK N   1      22.750  16.652   6.273  0.00  0.00    -0.374 OA
HETATM   18  N   UNK N   1      23.086  17.992   3.918  0.00  0.00     0.095 N 
HETATM   19  C   UNK N   1      23.628  16.619   3.967  0.00  0.00     0.306 C 
HETATM   20  C   UNK N   1      23.662  16.024   5.404  0.00  0.00     0.167 C 
HETATM   21  C   UNK N   1      23.237  14.569   5.339  0.00  0.00     0.150 C 
BRANCH  18  22
HETATM   22  C   UNK N   1      24.019  19.019   4.398  0.00  0.00     0.292 C 
BRANCH  22  23
HETATM   23  C   UNK N   1      25.492  18.605   4.342  0.00  0.00     0.155 C 
BRANCH  23  24
HETATM   24  N   UNK N   1      26.162  18.854   5.598  0.00  0.00    -0.335 N 
HETATM   25  C   UNK N   1      27.514  18.928   5.680  0.00  0.00     0.361 C 
HETATM   26  O   UNK N   1      28.206  18.862   4.674  0.00  0.00    -0.238 OA
HETATM   27  H   UNK N   1      25.624  18.971   6.414  0.00  0.00     0.164 HD
BRANCH  25  28
HETATM   28  O   UNK N   1      28.112  18.989   6.891  0.00  0.00    -0.294 OA
BRANCH  28  29
HETATM   29  C   UNK N   1      28.459  17.836   7.578  0.00  0.00     0.061 C 
HETATM   30  C   UNK N   1      28.105  17.999   9.037  0.00  0.00     0.046 C 
HETATM   31  C   UNK N   1      27.676  16.662   7.013  0.00  0.00     0.046 C 
HETATM   32  C   UNK N   1      29.951  17.531   7.486  0.00  0.00     0.046 C 
ENDBRANCH  28  29
ENDBRANCH  25  28
ENDBRANCH  23  24
ENDBRANCH  22  23
ENDBRANCH  18  22
ENDBRANCH  12  13
ENDBRANCH  11  12
ENDBRANCH  10  11
ENDBRANCH   1  10
TORSDOF 9
ENDMDL
MODEL 8
REMARK VINA RESULT:      -6.7      3.760     11.744
REMARK  9 active torsions:
REMARK  status: ('A' for Active; 'I' for Inactive)
REMARK    1  A    between atoms: C_2  and  O_5 
REMARK    2  A    between atoms: O_5  and  C_6 
REMARK       I    between atoms: C_6  and  N_8 
REMARK    3  A    between atoms: N_8  and  C_9 
REMARK    4  A    between atoms: C_9  and  C_10 
REMARK    5  A    between atoms: C_10  and  N_11 
REMARK    6  A    between atoms: N_15  and  C_20 
REMARK    7  A    between atoms: C_20  and  C_21 
REMARK    8  A    between atoms: C_21  and  O_22 
REMARK    9  A    between atoms: O_22  and  C_23 
ROOT
HETATM    1  C   UNK N   1      35.882  11.092  15.090  0.00  0.00     0.107 A 
HETATM    2  C   UNK N   1      36.451  10.042  15.833  0.00  0.00     0.041 A 
HETATM    3  C   UNK N   1      36.350  10.065  17.234  0.00  0.00     0.025 A 
HETATM    4  C   UNK N   1      35.706  11.146  17.857  0.00  0.00     0.047 A 
HETATM    5  C   UNK N   1      35.243  12.211  17.122  0.00  0.00     0.068 A 
HETATM    6  C   UNK N   1      35.324  12.191  15.757  0.00  0.00     0.151 A 
HETATM    7  F   UNK N   1      34.797  13.233  15.096  0.00  0.00    -0.203 F 
HETATM    8  C   UNK N   1      35.270  11.092  19.206  0.00  0.00     0.099 C 
HETATM    9  N   UNK N   1      34.884  11.116  20.294  0.00  0.00    -0.191 NA
ENDROOT
BRANCH   1  10
HETATM   10  O   UNK N   1      35.827  11.084  13.749  0.00  0.00    -0.346 OA
BRANCH  10  11
HETATM   11  C   UNK N   1      36.860  11.260  12.871  0.00  0.00     0.195 C 
BRANCH  11  12
HETATM   12  C   UNK N   1      37.083  12.758  12.618  0.00  0.00     0.143 C 
BRANCH  12  13
HETATM   13  N   UNK N   1      36.052  13.431  11.813  0.00  0.00    -0.406 N 
HETATM   14  C   UNK N   1      35.889  14.873  12.123  0.00  0.00     0.150 C 
HETATM   15  C   UNK N   1      36.383  15.825  10.992  0.00  0.00     0.167 C 
HETATM   16  C   UNK N   1      35.300  16.826  10.604  0.00  0.00     0.306 C 
HETATM   17  O   UNK N   1      36.793  15.161   9.814  0.00  0.00    -0.374 OA
HETATM   18  N   UNK N   1      34.271  16.204   9.754  0.00  0.00     0.095 N 
HETATM   19  C   UNK N   1      34.364  14.730   9.743  0.00  0.00     0.306 C 
HETATM   20  C   UNK N   1      35.808  14.210   9.489  0.00  0.00     0.167 C 
HETATM   21  C   UNK N   1      36.064  13.022  10.398  0.00  0.00     0.150 C 
BRANCH  18  22
HETATM   22  C   UNK N   1      34.334  16.817   8.421  0.00  0.00     0.292 C 
BRANCH  22  23
HETATM   23  C   UNK N   1      33.117  16.525   7.538  0.00  0.00     0.155 C 
BRANCH  23  24
HETATM   24  N   UNK N   1      32.101  17.542   7.681  0.00  0.00    -0.335 N 
HETATM   25  C   UNK N   1      31.044  17.380   8.515  0.00  0.00     0.361 C 
HETATM   26  O   UNK N   1      30.960  16.393   9.233  0.00  0.00    -0.238 OA
HETATM   27  H   UNK N   1      32.177  18.374   7.159  0.00  0.00     0.164 HD
BRANCH  25  28
HETATM   28  O   UNK N   1      30.027  18.270   8.495  0.00  0.00    -0.294 OA
BRANCH  28  29
HETATM   29  C   UNK N   1      28.818  17.964   7.892  0.00  0.00     0.061 C 
HETATM   30  C   UNK N   1      27.908  17.305   8.902  0.00  0.00     0.046 C 
HETATM   31  C   UNK N   1      28.162  19.247   7.407  0.00  0.00     0.046 C 
HETATM   32  C   UNK N   1      28.981  17.010   6.713  0.00  0.00     0.046 C 
ENDBRANCH  28  29
ENDBRANCH  25  28
ENDBRANCH  23  24
ENDBRANCH  22  23
ENDBRANCH  18  22
ENDBRANCH  12  13
ENDBRANCH  11  12
ENDBRANCH  10  11
ENDBRANCH   1  10
TORSDOF 9
ENDMDL
MODEL 9
REMARK VINA RESULT:      -6.6      5.733      9.171
REMARK  9 active torsions:
REMARK  status: ('A' for Active; 'I' for Inactive)
REMARK    1  A    between atoms: C_2  and  O_5 
REMARK    2  A    between atoms: O_5  and  C_6 
REMARK       I    between atoms: C_6  and  N_8 
REMARK    3  A    between atoms: N_8  and  C_9 
REMARK    4  A    between atoms: C_9  and  C_10 
REMARK    5  A    between atoms: C_10  and  N_11 
REMARK    6  A    between atoms: N_15  and  C_20 
REMARK    7  A    between atoms: C_20  and  C_21 
REMARK    8  A    between atoms: C_21  and  O_22 
REMARK    9  A    between atoms: O_22  and  C_23 
ROOT
HETATM    1  C   UNK N   1      22.539  13.006   8.830  0.00  0.00     0.107 A 
HETATM    2  C   UNK N   1      21.434  12.728   9.655  0.00  0.00     0.041 A 
HETATM    3  C   UNK N   1      21.658  12.316  10.979  0.00  0.00     0.025 A 
HETATM    4  C   UNK N   1      22.977  12.170  11.437  0.00  0.00     0.047 A 
HETATM    5  C   UNK N   1      24.043  12.350  10.589  0.00  0.00     0.068 A 
HETATM    6  C   UNK N   1      23.836  12.765   9.303  0.00  0.00     0.151 A 
HETATM    7  F   UNK N   1      24.922  12.984   8.546  0.00  0.00    -0.203 F 
HETATM    8  C   UNK N   1      23.294  12.087  12.818  0.00  0.00     0.099 C 
HETATM    9  N   UNK N   1      23.625  12.021  13.922  0.00  0.00    -0.191 NA
ENDROOT
BRANCH   1  10
HETATM   10  O   UNK N   1      22.412  13.521   7.597  0.00  0.00    -0.346 OA
BRANCH  10  11
HETATM   11  C   UNK N   1      22.331  12.841   6.414  0.00  0.00     0.195 C 
BRANCH  11  12
HETATM   12  C   UNK N   1      22.818  13.733   5.262  0.00  0.00     0.143 C 
BRANCH  12  13
HETATM   13  N   UNK N   1      24.050  14.493   5.521  0.00  0.00    -0.406 N 
HETATM   14  C   UNK N   1      25.254  13.936   4.858  0.00  0.00     0.150 C 
HETATM   15  C   UNK N   1      25.802  14.814   3.692  0.00  0.00     0.167 C 
HETATM   16  C   UNK N   1      27.287  15.110   3.877  0.00  0.00     0.306 C 
HETATM   17  O   UNK N   1      25.135  16.050   3.536  0.00  0.00    -0.374 OA
HETATM   18  N   UNK N   1      27.505  16.158   4.888  0.00  0.00     0.095 N 
HETATM   19  C   UNK N   1      26.291  16.437   5.682  0.00  0.00     0.306 C 
HETATM   20  C   UNK N   1      25.021  16.643   4.807  0.00  0.00     0.167 C 
HETATM   21  C   UNK N   1      23.849  15.952   5.482  0.00  0.00     0.150 C 
BRANCH  18  22
HETATM   22  C   UNK N   1      28.067  17.340   4.222  0.00  0.00     0.292 C 
BRANCH  22  23
HETATM   23  C   UNK N   1      28.949  18.208   5.123  0.00  0.00     0.155 C 
BRANCH  23  24
HETATM   24  N   UNK N   1      29.679  17.410   6.081  0.00  0.00    -0.335 N 
HETATM   25  C   UNK N   1      30.983  17.087   5.892  0.00  0.00     0.361 C 
HETATM   26  O   UNK N   1      31.604  17.529   4.936  0.00  0.00    -0.238 OA
HETATM   27  H   UNK N   1      29.218  17.091   6.890  0.00  0.00     0.164 HD
BRANCH  25  28
HETATM   28  O   UNK N   1      31.583  16.200   6.716  0.00  0.00    -0.294 OA
BRANCH  28  29
HETATM   29  C   UNK N   1      32.425  16.622   7.733  0.00  0.00     0.061 C 
HETATM   30  C   UNK N   1      33.780  16.953   7.155  0.00  0.00     0.046 C 
HETATM   31  C   UNK N   1      31.847  17.875   8.373  0.00  0.00     0.046 C 
HETATM   32  C   UNK N   1      32.618  15.557   8.808  0.00  0.00     0.046 C 
ENDBRANCH  28  29
ENDBRANCH  25  28
ENDBRANCH  23  24
ENDBRANCH  22  23
ENDBRANCH  18  22
ENDBRANCH  12  13
ENDBRANCH  11  12
ENDBRANCH  10  11
ENDBRANCH   1  10
TORSDOF 9
ENDMDL
