REMARK  13 active torsions:
REMARK  status: ('A' for Active; 'I' for Inactive)
REMARK    1  A    between atoms: C_3  and  C_1 
REMARK    2  A    between atoms: C_4  and  C_2 
REMARK    3  A    between atoms: O_15  and  C_2 
REMARK    4  A    between atoms: C_5  and  C_3 
REMARK    5  A    between atoms: C_3  and  O_8 
REMARK    6  A    between atoms: C_6  and  C_4 
REMARK    7  A    between atoms: C_4  and  O_9 
REMARK    8  A    between atoms: C_6  and  C_5 
REMARK    9  A    between atoms: C_5  and  O_10 
REMARK   10  A    between atoms: C_6  and  O_11 
REMARK   11  A    between atoms: P_16  and  O_12 
REMARK   12  A    between atoms: P_16  and  O_13 
REMARK   13  A    between atoms: P_16  and  O_15 
ROOT
HETATM    1  C   UNK N   1       5.401  -0.639  -0.193  0.00  0.00     0.173 C 
ENDROOT
BRANCH   1   2
HETATM    2  C   UNK N   1       6.457   0.202   0.528  0.00  0.00     0.214 C 
BRANCH   2   3
HETATM    3  O   UNK N   1       7.628  -0.528   0.784  0.00  0.00    -0.294 OA
BRANCH   3   4
HETATM    4  P   UNK N   1       8.909   0.240  -0.111  0.00  0.00     0.390 P 
HETATM    5  O   UNK N   1       8.990   1.047   1.215  0.00  0.00    -0.632 OA
BRANCH   4   6
HETATM    6  O   UNK N   1      10.572   0.042   0.347  0.00  0.00    -0.307 OA
HETATM    7  H   UNK N   1      10.941  -0.818   0.603  0.00  0.00     0.222 HD
ENDBRANCH   4   6
BRANCH   4   8
HETATM    8  O   UNK N   1       9.293  -1.418   0.236  0.00  0.00    -0.307 OA
HETATM    9  H   UNK N   1       8.599  -2.067   0.429  0.00  0.00     0.222 HD
ENDBRANCH   4   8
ENDBRANCH   3   4
ENDBRANCH   2   3
ENDBRANCH   1   2
BRANCH   1  10
HETATM   10  C   UNK N   1       4.020   0.020   0.007  0.00  0.00     0.180 C 
BRANCH  10  11
HETATM   11  C   UNK N   1       2.853  -0.760  -0.658  0.00  0.00     0.184 C 
BRANCH  11  12
HETATM   12  C   UNK N   1       1.470  -0.121  -0.405  0.00  0.00     0.210 C 
BRANCH  12  13
HETATM   13  C   UNK N   1       1.144  -0.058   1.061  0.00  0.00     0.265 C 
HETATM   14  O   UNK N   1       0.081   0.391   1.443  0.00  0.00    -0.304 OA
ENDBRANCH  12  13
BRANCH  12  15
HETATM   15  O   UNK N   1       1.411   1.164  -0.950  0.00  0.00    -0.386 OA
HETATM   16  H   UNK N   1       2.163   1.646  -1.329  0.00  0.00     0.210 HD
ENDBRANCH  12  15
ENDBRANCH  11  12
BRANCH  11  17
HETATM   17  O   UNK N   1       2.820  -2.076  -0.183  0.00  0.00    -0.390 OA
HETATM   18  H   UNK N   1       2.019  -2.512   0.146  0.00  0.00     0.210 HD
ENDBRANCH  11  17
ENDBRANCH  10  11
BRANCH  10  19
HETATM   19  O   UNK N   1       4.062   1.322  -0.506  0.00  0.00    -0.390 OA
HETATM   20  H   UNK N   1       4.857   1.748  -0.862  0.00  0.00     0.210 HD
ENDBRANCH  10  19
ENDBRANCH   1  10
BRANCH   1  21
HETATM   21  O   UNK N   1       5.401  -1.928   0.348  0.00  0.00    -0.391 OA
HETATM   22  H   UNK N   1       4.626  -2.375   0.724  0.00  0.00     0.210 HD
ENDBRANCH   1  21
TORSDOF 13
