MODEL 1
REMARK VINA RESULT:      -9.4      0.000      0.000
REMARK  14 active torsions:
REMARK  status: ('A' for Active; 'I' for Inactive)
REMARK    1  A    between atoms: C_2  and  C_4 
REMARK    2  A    between atoms: C_4  and  C_5 
REMARK    3  A    between atoms: C_4  and  N_67 
REMARK       I    between atoms: C_5  and  N_7 
REMARK    4  A    between atoms: C_11  and  C_12 
REMARK    5  A    between atoms: C_14  and  C_18 
REMARK    6  A    between atoms: C_27  and  C_58 
REMARK    7  A    between atoms: C_33  and  C_35 
REMARK    8  A    between atoms: C_41  and  C_39 
REMARK       I    between atoms: N_45  and  C_46 
REMARK    9  A    between atoms: C_46  and  C_48 
REMARK   10  A    between atoms: C_48  and  C_49 
REMARK   11  A    between atoms: C_48  and  N_52 
REMARK       I    between atoms: N_52  and  C_53 
REMARK   12  A    between atoms: C_53  and  O_55 
REMARK   13  A    between atoms: C_62  and  C_64 
REMARK       I    between atoms: N_67  and  C_68 
REMARK   14  A    between atoms: C_68  and  O_70 
ROOT
HETATM    1  C   UNK N   1      35.588  14.031  11.988  0.00  0.00    -0.007 C 
HETATM    2  C   UNK N   1      35.377  12.701  11.575  0.00  0.00     0.016 C 
HETATM    3  C   UNK N   1      35.391  11.686  12.527  0.00  0.00     0.031 C 
HETATM    4  C   UNK N   1      35.517  12.053  13.869  0.00  0.00     0.048 A 
HETATM    5  C   UNK N   1      35.776  13.333  14.232  0.00  0.00    -0.006 A 
HETATM    6  C   UNK N   1      35.876  14.325  13.331  0.00  0.00     0.027 C 
HETATM    7  C   UNK N   1      35.749  13.426  15.592  0.00  0.00     0.044 A 
HETATM    8  C   UNK N   1      35.479  12.136  16.000  0.00  0.00     0.054 A 
HETATM    9  N   UNK N   1      35.382  11.303  14.951  0.00  0.00    -0.313 N 
HETATM   10  C   UNK N   1      35.147   9.860  15.062  0.00  0.00     0.278 C 
HETATM   11  O   UNK N   1      35.236   9.431  16.387  0.00  0.00    -0.320 OA
HETATM   12  C   UNK N   1      35.211  10.277  17.474  0.00  0.00     0.088 A 
HETATM   13  C   UNK N   1      35.299  11.666  17.326  0.00  0.00     0.063 A 
HETATM   14  C   UNK N   1      35.238  12.532  18.439  0.00  0.00     0.132 A 
HETATM   15  C   UNK N   1      35.208  11.997  19.719  0.00  0.00     0.057 A 
HETATM   16  C   UNK N   1      35.189  10.613  19.873  0.00  0.00    -0.002 A 
HETATM   17  C   UNK N   1      35.157   9.766  18.746  0.00  0.00     0.051 A 
HETATM   18  F   UNK N   1      35.278  13.880  18.288  0.00  0.00    -0.205 F 
ENDROOT
BRANCH   1  19
HETATM   19  C   UNK N   1      34.772  15.066  11.416  0.00  0.00     0.059 A 
HETATM   20  N   UNK N   1      33.811  14.696  10.575  0.00  0.00    -0.342 N 
HETATM   21  C   UNK N   1      33.750  15.653   9.664  0.00  0.00     0.105 A 
HETATM   22  H   UNK N   1      33.261  13.880  10.622  0.00  0.00     0.167 HD
HETATM   23  N   UNK N   1      34.598  16.671   9.913  0.00  0.00    -0.352 N 
HETATM   24  C   UNK N   1      35.279  16.291  11.014  0.00  0.00     0.119 A 
ATOM     25  HN  UNK N   1      34.702  17.537   9.384  1.00  0.00     0.166 HD
BRANCH  21  26
HETATM   26  C   UNK N   1      32.754  15.565   8.574  0.00  0.00     0.155 C 
HETATM   27  C   UNK N   1      31.623  16.554   8.839  0.00  0.00     0.035 C 
HETATM   28  C   UNK N   1      31.642  17.568   7.696  0.00  0.00     0.022 C 
HETATM   29  C   UNK N   1      32.898  17.296   6.879  0.00  0.00     0.127 C 
HETATM   30  N   UNK N   1      33.439  16.083   7.420  0.00  0.00    -0.339 N 
HETATM   31  C   UNK N   1      34.577  15.488   6.953  0.00  0.00     0.243 C 
HETATM   32  O   UNK N   1      35.204  15.981   6.029  0.00  0.00    -0.271 OA
BRANCH  31  33
HETATM   33  C   UNK N   1      34.991  14.151   7.535  0.00  0.00     0.182 C 
BRANCH  33  34
HETATM   34  C   UNK N   1      34.106  12.936   7.782  0.00  0.00     0.009 C 
HETATM   35  C   UNK N   1      33.364  12.558   6.523  0.00  0.00     0.012 C 
HETATM   36  C   UNK N   1      34.906  11.752   8.294  0.00  0.00     0.012 C 
ENDBRANCH  33  34
BRANCH  33  37
HETATM   37  N   UNK N   1      36.253  14.235   8.230  0.00  0.00    -0.323 N 
HETATM   38  C   UNK N   1      37.386  13.791   7.636  0.00  0.00     0.360 C 
HETATM   39  O   UNK N   1      37.397  13.547   6.437  0.00  0.00    -0.239 OA
HETATM   40  H   UNK N   1      36.290  14.614   9.138  0.00  0.00     0.165 HD
BRANCH  38  41
HETATM   41  O   UNK N   1      38.459  13.494   8.400  0.00  0.00    -0.309 OA
HETATM   42  C   UNK N   1      38.495  13.832   9.735  0.00  0.00     0.215 C 
ENDBRANCH  38  41
ENDBRANCH  33  37
ENDBRANCH  31  33
ENDBRANCH  21  26
ENDBRANCH   1  19
BRANCH  10  43
HETATM   43  C   UNK N   1      36.053   9.180  14.069  0.00  0.00     0.049 A 
HETATM   44  C   UNK N   1      35.721   8.013  13.350  0.00  0.00     0.107 A 
HETATM   45  N   UNK N   1      36.799   7.199  13.049  0.00  0.00    -0.362 N 
HETATM   46  C   UNK N   1      37.971   7.672  13.553  0.00  0.00     0.055 A 
ATOM     47  HN  UNK N   1      36.723   6.339  12.508  1.00  0.00     0.165 HD
HETATM   48  S   UNK N   1      37.692   9.124  14.302  0.00  0.00    -0.075 SA
BRANCH  46  49
HETATM   49  C   UNK N   1      39.235   6.858  13.587  0.00  0.00     0.043 A 
HETATM   50  C   UNK N   1      39.459   6.076  12.299  0.00  0.00     0.012 A 
HETATM   51  C   UNK N   1      40.192   7.378  12.520  0.00  0.00     0.012 A 
ENDBRANCH  46  49
ENDBRANCH  10  43
BRANCH  16  52
HETATM   52  C   UNK N   1      35.731  10.012  21.071  0.00  0.00     0.059 A 
HETATM   53  C   UNK N   1      36.495   8.861  21.164  0.00  0.00     0.119 A 
HETATM   54  N   UNK N   1      36.231   8.298  22.368  0.00  0.00    -0.352 N 
HETATM   55  C   UNK N   1      35.312   9.111  22.933  0.00  0.00     0.105 A 
ATOM     56  HN  UNK N   1      36.636   7.448  22.760  1.00  0.00     0.166 HD
HETATM   57  N   UNK N   1      35.031  10.162  22.182  0.00  0.00    -0.342 N 
HETATM   58  H   UNK N   1      34.424  10.905  22.405  0.00  0.00     0.167 HD
BRANCH  55  59
HETATM   59  C   UNK N   1      34.447   8.800  24.110  0.00  0.00     0.155 C 
HETATM   60  C   UNK N   1      34.011  10.089  24.768  0.00  0.00     0.035 C 
HETATM   61  C   UNK N   1      32.650  10.409  24.165  0.00  0.00     0.022 C 
HETATM   62  C   UNK N   1      32.099   9.093  23.643  0.00  0.00     0.127 C 
HETATM   63  N   UNK N   1      33.214   8.196  23.625  0.00  0.00    -0.339 N 
HETATM   64  C   UNK N   1      33.134   6.905  23.132  0.00  0.00     0.243 C 
HETATM   65  O   UNK N   1      34.132   6.198  23.132  0.00  0.00    -0.271 OA
BRANCH  64  66
HETATM   66  C   UNK N   1      31.818   6.322  22.570  0.00  0.00     0.182 C 
BRANCH  66  67
HETATM   67  C   UNK N   1      31.217   5.186  23.413  0.00  0.00     0.009 C 
HETATM   68  C   UNK N   1      30.896   5.539  24.855  0.00  0.00     0.012 C 
HETATM   69  C   UNK N   1      30.096   4.451  22.704  0.00  0.00     0.012 C 
ENDBRANCH  66  67
BRANCH  66  70
HETATM   70  N   UNK N   1      31.976   5.833  21.203  0.00  0.00    -0.323 N 
HETATM   71  C   UNK N   1      31.440   6.486  20.129  0.00  0.00     0.360 C 
HETATM   72  O   UNK N   1      30.861   7.554  20.280  0.00  0.00    -0.239 OA
HETATM   73  H   UNK N   1      32.486   5.006  21.050  0.00  0.00     0.165 HD
BRANCH  71  74
HETATM   74  O   UNK N   1      31.510   5.921  18.899  0.00  0.00    -0.309 OA
HETATM   75  C   UNK N   1      31.547   4.555  18.722  0.00  0.00     0.215 C 
ENDBRANCH  71  74
ENDBRANCH  66  70
ENDBRANCH  64  66
ENDBRANCH  55  59
ENDBRANCH  16  52
TORSDOF 14
ENDMDL
MODEL 2
REMARK VINA RESULT:      -9.1      1.466      2.399
REMARK  14 active torsions:
REMARK  status: ('A' for Active; 'I' for Inactive)
REMARK    1  A    between atoms: C_2  and  C_4 
REMARK    2  A    between atoms: C_4  and  C_5 
REMARK    3  A    between atoms: C_4  and  N_67 
REMARK       I    between atoms: C_5  and  N_7 
REMARK    4  A    between atoms: C_11  and  C_12 
REMARK    5  A    between atoms: C_14  and  C_18 
REMARK    6  A    between atoms: C_27  and  C_58 
REMARK    7  A    between atoms: C_33  and  C_35 
REMARK    8  A    between atoms: C_41  and  C_39 
REMARK       I    between atoms: N_45  and  C_46 
REMARK    9  A    between atoms: C_46  and  C_48 
REMARK   10  A    between atoms: C_48  and  C_49 
REMARK   11  A    between atoms: C_48  and  N_52 
REMARK       I    between atoms: N_52  and  C_53 
REMARK   12  A    between atoms: C_53  and  O_55 
REMARK   13  A    between atoms: C_62  and  C_64 
REMARK       I    between atoms: N_67  and  C_68 
REMARK   14  A    between atoms: C_68  and  O_70 
ROOT
HETATM    1  C   UNK N   1      35.892  14.580  11.787  0.00  0.00    -0.007 C 
HETATM    2  C   UNK N   1      35.849  13.243  11.348  0.00  0.00     0.016 C 
HETATM    3  C   UNK N   1      35.901  12.220  12.291  0.00  0.00     0.031 C 
HETATM    4  C   UNK N   1      35.894  12.577  13.641  0.00  0.00     0.048 A 
HETATM    5  C   UNK N   1      35.993  13.870  14.032  0.00  0.00    -0.006 A 
HETATM    6  C   UNK N   1      36.053  14.882  13.149  0.00  0.00     0.027 C 
HETATM    7  C   UNK N   1      35.862  13.939  15.388  0.00  0.00     0.044 A 
HETATM    8  C   UNK N   1      35.698  12.623  15.765  0.00  0.00     0.054 A 
HETATM    9  N   UNK N   1      35.762  11.800  14.704  0.00  0.00    -0.313 N 
HETATM   10  C   UNK N   1      35.670  10.340  14.786  0.00  0.00     0.278 C 
HETATM   11  O   UNK N   1      35.709   9.901  16.111  0.00  0.00    -0.320 OA
HETATM   12  C   UNK N   1      35.522  10.723  17.200  0.00  0.00     0.088 A 
HETATM   13  C   UNK N   1      35.476  12.116  17.071  0.00  0.00     0.063 A 
HETATM   14  C   UNK N   1      35.248  12.954  18.184  0.00  0.00     0.132 A 
HETATM   15  C   UNK N   1      35.183  12.398  19.454  0.00  0.00     0.057 A 
HETATM   16  C   UNK N   1      35.297  11.017  19.595  0.00  0.00    -0.002 A 
HETATM   17  C   UNK N   1      35.432  10.190  18.461  0.00  0.00     0.051 A 
HETATM   18  F   UNK N   1      35.159  14.301  18.047  0.00  0.00    -0.205 F 
ENDROOT
BRANCH   1  19
HETATM   19  C   UNK N   1      35.015  15.535  11.166  0.00  0.00     0.059 A 
HETATM   20  N   UNK N   1      33.975  15.063  10.487  0.00  0.00    -0.342 N 
HETATM   21  C   UNK N   1      33.815  15.888   9.466  0.00  0.00     0.105 A 
HETATM   22  H   UNK N   1      33.437  14.266  10.700  0.00  0.00     0.167 HD
HETATM   23  N   UNK N   1      34.678  16.923   9.485  0.00  0.00    -0.352 N 
HETATM   24  C   UNK N   1      35.471  16.690  10.552  0.00  0.00     0.119 A 
ATOM     25  HN  UNK N   1      34.722  17.709   8.835  1.00  0.00     0.166 HD
BRANCH  21  26
HETATM   26  C   UNK N   1      32.712  15.661   8.506  0.00  0.00     0.155 C 
HETATM   27  C   UNK N   1      31.552  16.595   8.837  0.00  0.00     0.035 C 
HETATM   28  C   UNK N   1      31.374  17.525   7.636  0.00  0.00     0.022 C 
HETATM   29  C   UNK N   1      32.546  17.272   6.698  0.00  0.00     0.127 C 
HETATM   30  N   UNK N   1      33.227  16.136   7.250  0.00  0.00    -0.339 N 
HETATM   31  C   UNK N   1      34.344  15.581   6.693  0.00  0.00     0.243 C 
HETATM   32  O   UNK N   1      34.829  16.044   5.672  0.00  0.00    -0.271 OA
BRANCH  31  33
HETATM   33  C   UNK N   1      34.912  14.317   7.307  0.00  0.00     0.182 C 
BRANCH  33  34
HETATM   34  C   UNK N   1      36.378  13.993   7.565  0.00  0.00     0.009 C 
HETATM   35  C   UNK N   1      36.525  12.581   8.080  0.00  0.00     0.012 C 
HETATM   36  C   UNK N   1      37.225  14.187   6.321  0.00  0.00     0.012 C 
ENDBRANCH  33  34
BRANCH  33  37
HETATM   37  N   UNK N   1      33.963  13.230   7.277  0.00  0.00    -0.323 N 
HETATM   38  C   UNK N   1      33.608  12.672   6.096  0.00  0.00     0.360 C 
HETATM   39  O   UNK N   1      34.256  12.907   5.085  0.00  0.00    -0.239 OA
HETATM   40  H   UNK N   1      33.574  12.895   8.117  0.00  0.00     0.165 HD
BRANCH  38  41
HETATM   41  O   UNK N   1      32.461  11.963   6.020  0.00  0.00    -0.309 OA
HETATM   42  C   UNK N   1      32.467  10.641   5.637  0.00  0.00     0.215 C 
ENDBRANCH  38  41
ENDBRANCH  33  37
ENDBRANCH  31  33
ENDBRANCH  21  26
ENDBRANCH   1  19
BRANCH  10  43
HETATM   43  C   UNK N   1      36.709   9.771  13.855  0.00  0.00     0.049 A 
HETATM   44  C   UNK N   1      36.586   8.543  13.173  0.00  0.00     0.107 A 
HETATM   45  N   UNK N   1      37.786   7.893  12.944  0.00  0.00    -0.362 N 
HETATM   46  C   UNK N   1      38.851   8.556  13.469  0.00  0.00     0.055 A 
ATOM     47  HN  UNK N   1      37.863   7.012  12.436  1.00  0.00     0.165 HD
HETATM   48  S   UNK N   1      38.326   9.974  14.149  0.00  0.00    -0.075 SA
BRANCH  46  49
HETATM   49  C   UNK N   1      40.222   7.946  13.582  0.00  0.00     0.043 A 
HETATM   50  C   UNK N   1      40.988   8.456  14.795  0.00  0.00     0.012 A 
HETATM   51  C   UNK N   1      40.295   7.116  14.859  0.00  0.00     0.012 A 
ENDBRANCH  46  49
ENDBRANCH  10  43
BRANCH  16  52
HETATM   52  C   UNK N   1      35.813  10.457  20.823  0.00  0.00     0.059 A 
HETATM   53  C   UNK N   1      36.853   9.553  20.965  0.00  0.00     0.119 A 
HETATM   54  N   UNK N   1      36.593   8.809  22.067  0.00  0.00    -0.352 N 
HETATM   55  C   UNK N   1      35.409   9.274  22.524  0.00  0.00     0.105 A 
ATOM     56  HN  UNK N   1      37.164   8.064  22.463  1.00  0.00     0.166 HD
HETATM   57  N   UNK N   1      34.949  10.287  21.809  0.00  0.00    -0.342 N 
HETATM   58  H   UNK N   1      34.130  10.807  21.976  0.00  0.00     0.167 HD
BRANCH  55  59
HETATM   59  C   UNK N   1      34.512   8.611  23.517  0.00  0.00     0.155 C 
HETATM   60  C   UNK N   1      33.841   9.663  24.369  0.00  0.00     0.035 C 
HETATM   61  C   UNK N   1      32.498   9.926  23.702  0.00  0.00     0.022 C 
HETATM   62  C   UNK N   1      32.190   8.692  22.871  0.00  0.00     0.127 C 
HETATM   63  N   UNK N   1      33.422   7.971  22.792  0.00  0.00    -0.339 N 
HETATM   64  C   UNK N   1      33.572   6.815  22.045  0.00  0.00     0.243 C 
HETATM   65  O   UNK N   1      34.661   6.258  22.009  0.00  0.00    -0.271 OA
BRANCH  64  66
HETATM   66  C   UNK N   1      32.405   6.202  21.241  0.00  0.00     0.182 C 
BRANCH  66  67
HETATM   67  C   UNK N   1      31.980   7.023  20.012  0.00  0.00     0.009 C 
HETATM   68  C   UNK N   1      30.610   7.674  20.101  0.00  0.00     0.012 C 
HETATM   69  C   UNK N   1      33.066   7.960  19.522  0.00  0.00     0.012 C 
ENDBRANCH  66  67
BRANCH  66  70
HETATM   70  N   UNK N   1      31.221   5.988  22.069  0.00  0.00    -0.323 N 
HETATM   71  C   UNK N   1      30.911   4.765  22.595  0.00  0.00     0.360 C 
HETATM   72  O   UNK N   1      31.666   3.815  22.439  0.00  0.00    -0.239 OA
HETATM   73  H   UNK N   1      30.628   6.750  22.255  0.00  0.00     0.165 HD
BRANCH  71  74
HETATM   74  O   UNK N   1      29.736   4.597  23.250  0.00  0.00    -0.309 OA
HETATM   75  C   UNK N   1      29.675   4.472  24.622  0.00  0.00     0.215 C 
ENDBRANCH  71  74
ENDBRANCH  66  70
ENDBRANCH  64  66
ENDBRANCH  55  59
ENDBRANCH  16  52
TORSDOF 14
ENDMDL
MODEL 3
REMARK VINA RESULT:      -8.9     10.977     17.150
REMARK  14 active torsions:
REMARK  status: ('A' for Active; 'I' for Inactive)
REMARK    1  A    between atoms: C_2  and  C_4 
REMARK    2  A    between atoms: C_4  and  C_5 
REMARK    3  A    between atoms: C_4  and  N_67 
REMARK       I    between atoms: C_5  and  N_7 
REMARK    4  A    between atoms: C_11  and  C_12 
REMARK    5  A    between atoms: C_14  and  C_18 
REMARK    6  A    between atoms: C_27  and  C_58 
REMARK    7  A    between atoms: C_33  and  C_35 
REMARK    8  A    between atoms: C_41  and  C_39 
REMARK       I    between atoms: N_45  and  C_46 
REMARK    9  A    between atoms: C_46  and  C_48 
REMARK   10  A    between atoms: C_48  and  C_49 
REMARK   11  A    between atoms: C_48  and  N_52 
REMARK       I    between atoms: N_52  and  C_53 
REMARK   12  A    between atoms: C_53  and  O_55 
REMARK   13  A    between atoms: C_62  and  C_64 
REMARK       I    between atoms: N_67  and  C_68 
REMARK   14  A    between atoms: C_68  and  O_70 
ROOT
HETATM    1  C   UNK N   1      21.597  15.160   5.517  0.00  0.00    -0.007 C 
HETATM    2  C   UNK N   1      21.899  16.322   4.780  0.00  0.00     0.016 C 
HETATM    3  C   UNK N   1      23.207  16.532   4.354  0.00  0.00     0.031 C 
HETATM    4  C   UNK N   1      24.141  15.523   4.596  0.00  0.00     0.048 A 
HETATM    5  C   UNK N   1      23.837  14.443   5.356  0.00  0.00    -0.006 A 
HETATM    6  C   UNK N   1      22.611  14.258   5.877  0.00  0.00     0.027 C 
HETATM    7  C   UNK N   1      24.890  13.577   5.346  0.00  0.00     0.044 A 
HETATM    8  C   UNK N   1      25.825  14.213   4.557  0.00  0.00     0.054 A 
HETATM    9  N   UNK N   1      25.379  15.411   4.142  0.00  0.00    -0.313 N 
HETATM   10  C   UNK N   1      26.161  16.345   3.327  0.00  0.00     0.278 C 
HETATM   11  O   UNK N   1      27.487  15.926   3.204  0.00  0.00    -0.320 OA
HETATM   12  C   UNK N   1      27.926  14.658   3.514  0.00  0.00     0.088 A 
HETATM   13  C   UNK N   1      27.105  13.737   4.174  0.00  0.00     0.063 A 
HETATM   14  C   UNK N   1      27.545  12.426   4.458  0.00  0.00     0.132 A 
HETATM   15  C   UNK N   1      28.860  12.074   4.184  0.00  0.00     0.057 A 
HETATM   16  C   UNK N   1      29.701  13.010   3.590  0.00  0.00    -0.002 A 
HETATM   17  C   UNK N   1      29.215  14.284   3.229  0.00  0.00     0.051 A 
HETATM   18  F   UNK N   1      26.730  11.521   5.057  0.00  0.00    -0.205 F 
ENDROOT
BRANCH   1  19
HETATM   19  C   UNK N   1      20.384  14.451   5.215  0.00  0.00     0.059 A 
HETATM   20  N   UNK N   1      20.486  13.162   4.908  0.00  0.00    -0.342 N 
HETATM   21  C   UNK N   1      19.555  12.941   3.995  0.00  0.00     0.105 A 
HETATM   22  H   UNK N   1      21.122  12.509   5.282  0.00  0.00     0.167 HD
HETATM   23  N   UNK N   1      18.803  14.029   3.736  0.00  0.00    -0.352 N 
HETATM   24  C   UNK N   1      19.344  15.010   4.489  0.00  0.00     0.119 A 
ATOM     25  HN  UNK N   1      18.001  14.096   3.108  1.00  0.00     0.166 HD
BRANCH  21  26
HETATM   26  C   UNK N   1      19.378  11.580   3.443  0.00  0.00     0.155 C 
HETATM   27  C   UNK N   1      18.155  10.929   4.081  0.00  0.00     0.035 C 
HETATM   28  C   UNK N   1      17.148  10.679   2.957  0.00  0.00     0.022 C 
HETATM   29  C   UNK N   1      17.693  11.360   1.710  0.00  0.00     0.127 C 
HETATM   30  N   UNK N   1      19.012  11.795   2.069  0.00  0.00    -0.339 N 
HETATM   31  C   UNK N   1      19.850  12.454   1.214  0.00  0.00     0.243 C 
HETATM   32  O   UNK N   1      19.500  12.712   0.072  0.00  0.00    -0.271 OA
BRANCH  31  33
HETATM   33  C   UNK N   1      21.260  12.767   1.673  0.00  0.00     0.182 C 
BRANCH  33  34
HETATM   34  C   UNK N   1      21.884  14.143   1.870  0.00  0.00     0.009 C 
HETATM   35  C   UNK N   1      23.267  14.188   1.268  0.00  0.00     0.012 C 
HETATM   36  C   UNK N   1      21.020  15.243   1.279  0.00  0.00     0.012 C 
ENDBRANCH  33  34
BRANCH  33  37
HETATM   37  N   UNK N   1      22.136  11.629   1.535  0.00  0.00    -0.323 N 
HETATM   38  C   UNK N   1      22.842  11.183   2.602  0.00  0.00     0.360 C 
HETATM   39  O   UNK N   1      22.568  11.574   3.728  0.00  0.00    -0.239 OA
HETATM   40  H   UNK N   1      22.221  11.176   0.665  0.00  0.00     0.165 HD
BRANCH  38  41
HETATM   41  O   UNK N   1      23.932  10.412   2.395  0.00  0.00    -0.309 OA
HETATM   42  C   UNK N   1      25.102  10.951   1.909  0.00  0.00     0.215 C 
ENDBRANCH  38  41
ENDBRANCH  33  37
ENDBRANCH  31  33
ENDBRANCH  21  26
ENDBRANCH   1  19
BRANCH  10  43
HETATM   43  C   UNK N   1      25.937  17.725   3.886  0.00  0.00     0.049 A 
HETATM   44  C   UNK N   1      25.772  18.888   3.106  0.00  0.00     0.107 A 
HETATM   45  N   UNK N   1      26.237  20.048   3.701  0.00  0.00    -0.362 N 
HETATM   46  C   UNK N   1      26.808  19.823   4.915  0.00  0.00     0.055 A 
ATOM     47  HN  UNK N   1      26.160  20.971   3.275  1.00  0.00     0.165 HD
HETATM   48  S   UNK N   1      26.674  18.213   5.286  0.00  0.00    -0.075 SA
BRANCH  46  49
HETATM   49  C   UNK N   1      27.611  20.863   5.648  0.00  0.00     0.043 A 
HETATM   50  C   UNK N   1      26.731  21.868   6.379  0.00  0.00     0.012 A 
HETATM   51  C   UNK N   1      27.356  20.726   7.145  0.00  0.00     0.012 A 
ENDBRANCH  46  49
ENDBRANCH  10  43
BRANCH  16  52
HETATM   52  C   UNK N   1      31.127  12.943   3.811  0.00  0.00     0.059 A 
HETATM   53  C   UNK N   1      31.785  12.435   4.918  0.00  0.00     0.119 A 
HETATM   54  N   UNK N   1      32.945  13.124   5.050  0.00  0.00    -0.352 N 
HETATM   55  C   UNK N   1      32.926  14.024   4.041  0.00  0.00     0.105 A 
ATOM     56  HN  UNK N   1      33.671  12.992   5.754  1.00  0.00     0.166 HD
HETATM   57  N   UNK N   1      31.860  13.901   3.269  0.00  0.00    -0.342 N 
HETATM   58  H   UNK N   1      31.654  14.418   2.456  0.00  0.00     0.167 HD
BRANCH  55  59
HETATM   59  C   UNK N   1      33.795  15.230   3.904  0.00  0.00     0.155 C 
HETATM   60  C   UNK N   1      33.421  15.979   2.646  0.00  0.00     0.035 C 
HETATM   61  C   UNK N   1      32.431  17.047   3.092  0.00  0.00     0.022 C 
HETATM   62  C   UNK N   1      32.679  17.260   4.575  0.00  0.00     0.127 C 
HETATM   63  N   UNK N   1      33.478  16.148   4.990  0.00  0.00    -0.339 N 
HETATM   64  C   UNK N   1      33.851  15.938   6.306  0.00  0.00     0.243 C 
HETATM   65  O   UNK N   1      34.521  14.955   6.592  0.00  0.00    -0.271 OA
BRANCH  64  66
HETATM   66  C   UNK N   1      33.441  16.905   7.439  0.00  0.00     0.182 C 
BRANCH  66  67
HETATM   67  C   UNK N   1      34.585  17.281   8.395  0.00  0.00     0.009 C 
HETATM   68  C   UNK N   1      34.887  18.766   8.503  0.00  0.00     0.012 C 
HETATM   69  C   UNK N   1      34.488  16.584   9.737  0.00  0.00     0.012 C 
ENDBRANCH  66  67
BRANCH  66  70
HETATM   70  N   UNK N   1      32.341  16.376   8.239  0.00  0.00    -0.323 N 
HETATM   71  C   UNK N   1      31.244  17.128   8.557  0.00  0.00     0.360 C 
HETATM   72  O   UNK N   1      31.122  18.262   8.114  0.00  0.00    -0.239 OA
HETATM   73  H   UNK N   1      32.390  15.448   8.561  0.00  0.00     0.165 HD
BRANCH  71  74
HETATM   74  O   UNK N   1      30.313  16.628   9.406  0.00  0.00    -0.309 OA
HETATM   75  C   UNK N   1      29.154  17.310   9.706  0.00  0.00     0.215 C 
ENDBRANCH  71  74
ENDBRANCH  66  70
ENDBRANCH  64  66
ENDBRANCH  55  59
ENDBRANCH  16  52
TORSDOF 14
ENDMDL
MODEL 4
REMARK VINA RESULT:      -8.9      9.022     16.037
REMARK  14 active torsions:
REMARK  status: ('A' for Active; 'I' for Inactive)
REMARK    1  A    between atoms: C_2  and  C_4 
REMARK    2  A    between atoms: C_4  and  C_5 
REMARK    3  A    between atoms: C_4  and  N_67 
REMARK       I    between atoms: C_5  and  N_7 
REMARK    4  A    between atoms: C_11  and  C_12 
REMARK    5  A    between atoms: C_14  and  C_18 
REMARK    6  A    between atoms: C_27  and  C_58 
REMARK    7  A    between atoms: C_33  and  C_35 
REMARK    8  A    between atoms: C_41  and  C_39 
REMARK       I    between atoms: N_45  and  C_46 
REMARK    9  A    between atoms: C_46  and  C_48 
REMARK   10  A    between atoms: C_48  and  C_49 
REMARK   11  A    between atoms: C_48  and  N_52 
REMARK       I    between atoms: N_52  and  C_53 
REMARK   12  A    between atoms: C_53  and  O_55 
REMARK   13  A    between atoms: C_62  and  C_64 
REMARK       I    between atoms: N_67  and  C_68 
REMARK   14  A    between atoms: C_68  and  O_70 
ROOT
HETATM    1  C   UNK N   1      23.998  14.031   3.992  0.00  0.00    -0.007 C 
HETATM    2  C   UNK N   1      24.007  15.382   3.593  0.00  0.00     0.016 C 
HETATM    3  C   UNK N   1      25.211  16.080   3.600  0.00  0.00     0.031 C 
HETATM    4  C   UNK N   1      26.374  15.372   3.910  0.00  0.00     0.048 A 
HETATM    5  C   UNK N   1      26.328  14.089   4.345  0.00  0.00    -0.006 A 
HETATM    6  C   UNK N   1      25.171  13.413   4.454  0.00  0.00     0.027 C 
HETATM    7  C   UNK N   1      27.599  13.615   4.477  0.00  0.00     0.044 A 
HETATM    8  C   UNK N   1      28.385  14.689   4.113  0.00  0.00     0.054 A 
HETATM    9  N   UNK N   1      27.635  15.763   3.813  0.00  0.00    -0.313 N 
HETATM   10  C   UNK N   1      28.179  17.070   3.435  0.00  0.00     0.278 C 
HETATM   11  O   UNK N   1      29.562  17.118   3.620  0.00  0.00    -0.320 OA
HETATM   12  C   UNK N   1      30.353  16.005   3.806  0.00  0.00     0.088 A 
HETATM   13  C   UNK N   1      29.800  14.739   4.029  0.00  0.00     0.063 A 
HETATM   14  C   UNK N   1      30.612  13.596   4.184  0.00  0.00     0.132 A 
HETATM   15  C   UNK N   1      31.992  13.741   4.235  0.00  0.00     0.057 A 
HETATM   16  C   UNK N   1      32.544  15.010   4.082  0.00  0.00    -0.002 A 
HETATM   17  C   UNK N   1      31.719  16.126   3.836  0.00  0.00     0.051 A 
HETATM   18  F   UNK N   1      30.072  12.363   4.354  0.00  0.00    -0.205 F 
ENDROOT
BRANCH   1  19
HETATM   19  C   UNK N   1      23.209  13.097   3.236  0.00  0.00     0.059 A 
HETATM   20  N   UNK N   1      22.264  13.592   2.443  0.00  0.00    -0.342 N 
HETATM   21  C   UNK N   1      21.270  12.721   2.490  0.00  0.00     0.105 A 
HETATM   22  H   UNK N   1      22.297  14.431   1.929  0.00  0.00     0.167 HD
HETATM   23  N   UNK N   1      21.554  11.637   3.241  0.00  0.00    -0.352 N 
HETATM   24  C   UNK N   1      22.781  11.883   3.748  0.00  0.00     0.119 A 
ATOM     25  HN  UNK N   1      20.971  10.814   3.393  1.00  0.00     0.166 HD
BRANCH  21  26
HETATM   26  C   UNK N   1      20.047  12.958   1.692  0.00  0.00     0.155 C 
HETATM   27  C   UNK N   1      19.944  11.901   0.597  0.00  0.00     0.035 C 
HETATM   28  C   UNK N   1      18.674  11.096   0.875  0.00  0.00     0.022 C 
HETATM   29  C   UNK N   1      18.149  11.545   2.232  0.00  0.00     0.127 C 
HETATM   30  N   UNK N   1      18.967  12.667   2.595  0.00  0.00    -0.339 N 
HETATM   31  C   UNK N   1      18.813  13.370   3.757  0.00  0.00     0.243 C 
HETATM   32  O   UNK N   1      17.948  13.062   4.562  0.00  0.00    -0.271 OA
BRANCH  31  33
HETATM   33  C   UNK N   1      19.666  14.602   3.980  0.00  0.00     0.182 C 
BRANCH  33  34
HETATM   34  C   UNK N   1      20.645  14.854   5.120  0.00  0.00     0.009 C 
HETATM   35  C   UNK N   1      20.254  16.093   5.889  0.00  0.00     0.012 C 
HETATM   36  C   UNK N   1      20.735  13.664   6.058  0.00  0.00     0.012 C 
ENDBRANCH  33  34
BRANCH  33  37
HETATM   37  N   UNK N   1      19.187  15.733   3.223  0.00  0.00    -0.323 N 
HETATM   38  C   UNK N   1      20.065  16.544   2.586  0.00  0.00     0.360 C 
HETATM   39  O   UNK N   1      21.230  16.198   2.441  0.00  0.00    -0.239 OA
HETATM   40  H   UNK N   1      18.222  15.915   3.170  0.00  0.00     0.165 HD
BRANCH  38  41
HETATM   41  O   UNK N   1      19.677  17.789   2.234  0.00  0.00    -0.309 OA
HETATM   42  C   UNK N   1      20.602  18.778   1.986  0.00  0.00     0.215 C 
ENDBRANCH  38  41
ENDBRANCH  33  37
ENDBRANCH  31  33
ENDBRANCH  21  26
ENDBRANCH   1  19
BRANCH  10  43
HETATM   43  C   UNK N   1      27.366  18.119   4.148  0.00  0.00     0.049 A 
HETATM   44  C   UNK N   1      26.794  19.248   3.527  0.00  0.00     0.107 A 
HETATM   45  N   UNK N   1      26.695  20.362   4.343  0.00  0.00    -0.362 N 
HETATM   46  C   UNK N   1      27.217  20.153   5.581  0.00  0.00     0.055 A 
ATOM     47  HN  UNK N   1      26.276  21.242   4.047  1.00  0.00     0.165 HD
HETATM   48  S   UNK N   1      27.731  18.581   5.695  0.00  0.00    -0.075 SA
BRANCH  46  49
HETATM   49  C   UNK N   1      27.464  21.265   6.564  0.00  0.00     0.043 A 
HETATM   50  C   UNK N   1      26.409  22.361   6.479  0.00  0.00     0.012 A 
HETATM   51  C   UNK N   1      26.313  21.313   7.562  0.00  0.00     0.012 A 
ENDBRANCH  46  49
ENDBRANCH  10  43
BRANCH  16  52
HETATM   52  C   UNK N   1      33.822  15.318   4.682  0.00  0.00     0.059 A 
HETATM   53  C   UNK N   1      34.860  14.441   4.952  0.00  0.00     0.119 A 
HETATM   54  N   UNK N   1      35.516  14.916   6.039  0.00  0.00    -0.352 N 
HETATM   55  C   UNK N   1      34.840  16.034   6.387  0.00  0.00     0.105 A 
ATOM     56  HN  UNK N   1      36.338  14.518   6.492  1.00  0.00     0.166 HD
HETATM   57  N   UNK N   1      33.846  16.306   5.560  0.00  0.00    -0.342 N 
HETATM   58  H   UNK N   1      33.245  17.086   5.592  0.00  0.00     0.167 HD
BRANCH  55  59
HETATM   59  C   UNK N   1      34.938  16.768   7.684  0.00  0.00     0.155 C 
HETATM   60  C   UNK N   1      34.005  17.957   7.658  0.00  0.00     0.035 C 
HETATM   61  C   UNK N   1      32.718  17.474   8.313  0.00  0.00     0.022 C 
HETATM   62  C   UNK N   1      33.101  16.279   9.169  0.00  0.00     0.127 C 
HETATM   63  N   UNK N   1      34.413  15.909   8.737  0.00  0.00    -0.339 N 
HETATM   64  C   UNK N   1      35.084  14.802   9.229  0.00  0.00     0.243 C 
HETATM   65  O   UNK N   1      36.199  14.534   8.802  0.00  0.00    -0.271 OA
BRANCH  64  66
HETATM   66  C   UNK N   1      34.467  13.881  10.304  0.00  0.00     0.182 C 
BRANCH  66  67
HETATM   67  C   UNK N   1      34.932  14.180  11.739  0.00  0.00     0.009 C 
HETATM   68  C   UNK N   1      35.541  13.007  12.488  0.00  0.00     0.012 C 
HETATM   69  C   UNK N   1      35.745  15.455  11.844  0.00  0.00     0.012 C 
ENDBRANCH  66  67
BRANCH  66  70
HETATM   70  N   UNK N   1      34.728  12.470  10.032  0.00  0.00    -0.323 N 
HETATM   71  C   UNK N   1      33.804  11.661   9.432  0.00  0.00     0.360 C 
HETATM   72  O   UNK N   1      32.741  12.121   9.038  0.00  0.00    -0.239 OA
HETATM   73  H   UNK N   1      35.598  12.090  10.289  0.00  0.00     0.165 HD
BRANCH  71  74
HETATM   74  O   UNK N   1      34.052  10.333   9.318  0.00  0.00    -0.309 OA
HETATM   75  C   UNK N   1      35.181   9.750   9.853  0.00  0.00     0.215 C 
ENDBRANCH  71  74
ENDBRANCH  66  70
ENDBRANCH  64  66
ENDBRANCH  55  59
ENDBRANCH  16  52
TORSDOF 14
ENDMDL
MODEL 5
REMARK VINA RESULT:      -8.8      2.284     13.585
REMARK  14 active torsions:
REMARK  status: ('A' for Active; 'I' for Inactive)
REMARK    1  A    between atoms: C_2  and  C_4 
REMARK    2  A    between atoms: C_4  and  C_5 
REMARK    3  A    between atoms: C_4  and  N_67 
REMARK       I    between atoms: C_5  and  N_7 
REMARK    4  A    between atoms: C_11  and  C_12 
REMARK    5  A    between atoms: C_14  and  C_18 
REMARK    6  A    between atoms: C_27  and  C_58 
REMARK    7  A    between atoms: C_33  and  C_35 
REMARK    8  A    between atoms: C_41  and  C_39 
REMARK       I    between atoms: N_45  and  C_46 
REMARK    9  A    between atoms: C_46  and  C_48 
REMARK   10  A    between atoms: C_48  and  C_49 
REMARK   11  A    between atoms: C_48  and  N_52 
REMARK       I    between atoms: N_52  and  C_53 
REMARK   12  A    between atoms: C_53  and  O_55 
REMARK   13  A    between atoms: C_62  and  C_64 
REMARK       I    between atoms: N_67  and  C_68 
REMARK   14  A    between atoms: C_68  and  O_70 
ROOT
HETATM    1  C   UNK N   1      35.098   8.413  18.127  0.00  0.00    -0.007 C 
HETATM    2  C   UNK N   1      35.609   7.520  17.165  0.00  0.00     0.016 C 
HETATM    3  C   UNK N   1      35.888   7.991  15.885  0.00  0.00     0.031 C 
HETATM    4  C   UNK N   1      35.739   9.358  15.647  0.00  0.00     0.048 A 
HETATM    5  C   UNK N   1      35.192  10.184  16.573  0.00  0.00    -0.006 A 
HETATM    6  C   UNK N   1      34.810   9.744  17.785  0.00  0.00     0.027 C 
HETATM    7  C   UNK N   1      35.258  11.469  16.122  0.00  0.00     0.044 A 
HETATM    8  C   UNK N   1      35.855  11.348  14.885  0.00  0.00     0.054 A 
HETATM    9  N   UNK N   1      36.103  10.062  14.587  0.00  0.00    -0.313 N 
HETATM   10  C   UNK N   1      36.690   9.606  13.323  0.00  0.00     0.278 C 
HETATM   11  O   UNK N   1      36.771  10.646  12.395  0.00  0.00    -0.320 OA
HETATM   12  C   UNK N   1      36.637  11.979  12.720  0.00  0.00     0.088 A 
HETATM   13  C   UNK N   1      36.205  12.387  13.986  0.00  0.00     0.063 A 
HETATM   14  C   UNK N   1      36.104  13.754  14.326  0.00  0.00     0.132 A 
HETATM   15  C   UNK N   1      36.324  14.717  13.352  0.00  0.00     0.057 A 
HETATM   16  C   UNK N   1      36.688  14.312  12.070  0.00  0.00    -0.002 A 
HETATM   17  C   UNK N   1      36.874  12.946  11.775  0.00  0.00     0.051 A 
HETATM   18  F   UNK N   1      35.728  14.146  15.570  0.00  0.00    -0.205 F 
ENDROOT
BRANCH   1  19
HETATM   19  C   UNK N   1      35.609   8.343  19.468  0.00  0.00     0.059 A 
HETATM   20  N   UNK N   1      35.424   7.210  20.137  0.00  0.00    -0.342 N 
HETATM   21  C   UNK N   1      35.228   7.569  21.395  0.00  0.00     0.105 A 
HETATM   22  H   UNK N   1      35.432   6.295  19.773  0.00  0.00     0.167 HD
HETATM   23  N   UNK N   1      35.338   8.899  21.586  0.00  0.00    -0.352 N 
HETATM   24  C   UNK N   1      35.551   9.407  20.354  0.00  0.00     0.119 A 
ATOM     25  HN  UNK N   1      35.273   9.409  22.468  1.00  0.00     0.166 HD
BRANCH  21  26
HETATM   26  C   UNK N   1      35.008   6.533  22.428  0.00  0.00     0.155 C 
HETATM   27  C   UNK N   1      36.255   6.414  23.299  0.00  0.00     0.035 C 
HETATM   28  C   UNK N   1      35.846   6.815  24.717  0.00  0.00     0.022 C 
HETATM   29  C   UNK N   1      34.426   7.358  24.635  0.00  0.00     0.127 C 
HETATM   30  N   UNK N   1      34.003   7.094  23.290  0.00  0.00    -0.339 N 
HETATM   31  C   UNK N   1      32.769   7.426  22.807  0.00  0.00     0.243 C 
HETATM   32  O   UNK N   1      31.949   7.982  23.521  0.00  0.00    -0.271 OA
BRANCH  31  33
HETATM   33  C   UNK N   1      32.399   6.999  21.401  0.00  0.00     0.182 C 
BRANCH  33  34
HETATM   34  C   UNK N   1      31.887   7.884  20.271  0.00  0.00     0.009 C 
HETATM   35  C   UNK N   1      30.442   7.573  19.968  0.00  0.00     0.012 C 
HETATM   36  C   UNK N   1      32.048   9.359  20.593  0.00  0.00     0.012 C 
ENDBRANCH  33  34
BRANCH  33  37
HETATM   37  N   UNK N   1      32.183   5.575  21.310  0.00  0.00    -0.323 N 
HETATM   38  C   UNK N   1      32.609   4.893  20.220  0.00  0.00     0.360 C 
HETATM   39  O   UNK N   1      33.382   5.417  19.429  0.00  0.00    -0.239 OA
HETATM   40  H   UNK N   1      31.726   5.100  22.040  0.00  0.00     0.165 HD
BRANCH  38  41
HETATM   41  O   UNK N   1      32.070   3.685  19.946  0.00  0.00    -0.309 OA
HETATM   42  C   UNK N   1      32.492   2.553  20.607  0.00  0.00     0.215 C 
ENDBRANCH  38  41
ENDBRANCH  33  37
ENDBRANCH  31  33
ENDBRANCH  21  26
ENDBRANCH   1  19
BRANCH  10  43
HETATM   43  C   UNK N   1      35.933   8.376  12.894  0.00  0.00     0.049 A 
HETATM   44  C   UNK N   1      36.533   7.166  12.491  0.00  0.00     0.107 A 
HETATM   45  N   UNK N   1      35.809   6.452  11.553  0.00  0.00    -0.362 N 
HETATM   46  C   UNK N   1      34.670   7.090  11.171  0.00  0.00     0.055 A 
ATOM     47  HN  UNK N   1      36.097   5.544  11.188  1.00  0.00     0.165 HD
HETATM   48  S   UNK N   1      34.519   8.495  12.039  0.00  0.00    -0.075 SA
BRANCH  46  49
HETATM   49  C   UNK N   1      33.843   6.656   9.991  0.00  0.00     0.043 A 
HETATM   50  C   UNK N   1      33.727   5.141   9.889  0.00  0.00     0.012 A 
HETATM   51  C   UNK N   1      32.596   5.938  10.494  0.00  0.00     0.012 A 
ENDBRANCH  46  49
ENDBRANCH  10  43
BRANCH  16  52
HETATM   52  C   UNK N   1      36.366  15.142  10.932  0.00  0.00     0.059 A 
HETATM   53  C   UNK N   1      35.384  16.115  10.849  0.00  0.00     0.119 A 
HETATM   54  N   UNK N   1      34.967  16.157   9.560  0.00  0.00    -0.352 N 
HETATM   55  C   UNK N   1      35.691  15.204   8.932  0.00  0.00     0.105 A 
ATOM     56  HN  UNK N   1      34.262  16.773   9.154  1.00  0.00     0.166 HD
HETATM   57  N   UNK N   1      36.560  14.614   9.735  0.00  0.00    -0.342 N 
HETATM   58  H   UNK N   1      37.217  13.922   9.492  0.00  0.00     0.167 HD
BRANCH  55  59
HETATM   59  C   UNK N   1      35.416  14.614   7.589  0.00  0.00     0.155 C 
HETATM   60  C   UNK N   1      35.333  13.110   7.709  0.00  0.00     0.035 C 
HETATM   61  C   UNK N   1      33.851  12.800   7.874  0.00  0.00     0.022 C 
HETATM   62  C   UNK N   1      33.104  13.992   7.302  0.00  0.00     0.127 C 
HETATM   63  N   UNK N   1      34.083  15.026   7.171  0.00  0.00    -0.339 N 
HETATM   64  C   UNK N   1      33.773  16.309   6.753  0.00  0.00     0.243 C 
HETATM   65  O   UNK N   1      34.659  17.149   6.681  0.00  0.00    -0.271 OA
BRANCH  64  66
HETATM   66  C   UNK N   1      32.333  16.723   6.377  0.00  0.00     0.182 C 
BRANCH  66  67
HETATM   67  C   UNK N   1      32.157  17.142   4.908  0.00  0.00     0.009 C 
HETATM   68  C   UNK N   1      32.805  16.226   3.883  0.00  0.00     0.012 C 
HETATM   69  C   UNK N   1      30.730  17.521   4.567  0.00  0.00     0.012 C 
ENDBRANCH  66  67
BRANCH  66  70
HETATM   70  N   UNK N   1      31.838  17.809   7.217  0.00  0.00    -0.323 N 
HETATM   71  C   UNK N   1      31.202  17.580   8.404  0.00  0.00     0.360 C 
HETATM   72  O   UNK N   1      31.088  16.440   8.836  0.00  0.00    -0.239 OA
HETATM   73  H   UNK N   1      31.967  18.738   6.918  0.00  0.00     0.165 HD
BRANCH  71  74
HETATM   74  O   UNK N   1      30.653  18.619   9.081  0.00  0.00    -0.309 OA
HETATM   75  C   UNK N   1      29.444  18.511   9.734  0.00  0.00     0.215 C 
ENDBRANCH  71  74
ENDBRANCH  66  70
ENDBRANCH  64  66
ENDBRANCH  55  59
ENDBRANCH  16  52
TORSDOF 14
ENDMDL
MODEL 6
REMARK VINA RESULT:      -8.6      1.671      2.397
REMARK  14 active torsions:
REMARK  status: ('A' for Active; 'I' for Inactive)
REMARK    1  A    between atoms: C_2  and  C_4 
REMARK    2  A    between atoms: C_4  and  C_5 
REMARK    3  A    between atoms: C_4  and  N_67 
REMARK       I    between atoms: C_5  and  N_7 
REMARK    4  A    between atoms: C_11  and  C_12 
REMARK    5  A    between atoms: C_14  and  C_18 
REMARK    6  A    between atoms: C_27  and  C_58 
REMARK    7  A    between atoms: C_33  and  C_35 
REMARK    8  A    between atoms: C_41  and  C_39 
REMARK       I    between atoms: N_45  and  C_46 
REMARK    9  A    between atoms: C_46  and  C_48 
REMARK   10  A    between atoms: C_48  and  C_49 
REMARK   11  A    between atoms: C_48  and  N_52 
REMARK       I    between atoms: N_52  and  C_53 
REMARK   12  A    between atoms: C_53  and  O_55 
REMARK   13  A    between atoms: C_62  and  C_64 
REMARK       I    between atoms: N_67  and  C_68 
REMARK   14  A    between atoms: C_68  and  O_70 
ROOT
HETATM    1  C   UNK N   1      35.861  14.257  12.148  0.00  0.00    -0.007 C 
HETATM    2  C   UNK N   1      35.865  12.919  11.709  0.00  0.00     0.016 C 
HETATM    3  C   UNK N   1      35.961  11.898  12.650  0.00  0.00     0.031 C 
HETATM    4  C   UNK N   1      35.951  12.254  14.000  0.00  0.00     0.048 A 
HETATM    5  C   UNK N   1      36.005  13.550  14.393  0.00  0.00    -0.006 A 
HETATM    6  C   UNK N   1      36.021  14.564  13.509  0.00  0.00     0.027 C 
HETATM    7  C   UNK N   1      35.881  13.613  15.749  0.00  0.00     0.044 A 
HETATM    8  C   UNK N   1      35.769  12.291  16.126  0.00  0.00     0.054 A 
HETATM    9  N   UNK N   1      35.856  11.472  15.064  0.00  0.00    -0.313 N 
HETATM   10  C   UNK N   1      35.818  10.009  15.146  0.00  0.00     0.278 C 
HETATM   11  O   UNK N   1      35.883   9.572  16.470  0.00  0.00    -0.320 OA
HETATM   12  C   UNK N   1      35.673  10.386  17.561  0.00  0.00     0.088 A 
HETATM   13  C   UNK N   1      35.575  11.776  17.433  0.00  0.00     0.063 A 
HETATM   14  C   UNK N   1      35.325  12.604  18.548  0.00  0.00     0.132 A 
HETATM   15  C   UNK N   1      35.290  12.046  19.819  0.00  0.00     0.057 A 
HETATM   16  C   UNK N   1      35.456  10.670  19.957  0.00  0.00    -0.002 A 
HETATM   17  C   UNK N   1      35.613   9.849  18.822  0.00  0.00     0.051 A 
HETATM   18  F   UNK N   1      35.185  13.947  18.414  0.00  0.00    -0.205 F 
ENDROOT
BRANCH   1  19
HETATM   19  C   UNK N   1      34.945  15.179  11.535  0.00  0.00     0.059 A 
HETATM   20  N   UNK N   1      34.024  14.679  10.718  0.00  0.00    -0.342 N 
HETATM   21  C   UNK N   1      33.867  15.583   9.765  0.00  0.00     0.105 A 
HETATM   22  H   UNK N   1      33.558  13.815  10.804  0.00  0.00     0.167 HD
HETATM   23  N   UNK N   1      34.610  16.690   9.962  0.00  0.00    -0.352 N 
HETATM   24  C   UNK N   1      35.327  16.429  11.076  0.00  0.00     0.119 A 
ATOM     25  HN  UNK N   1      34.627  17.538   9.394  1.00  0.00     0.166 HD
BRANCH  21  26
HETATM   26  C   UNK N   1      32.883  15.347   8.686  0.00  0.00     0.155 C 
HETATM   27  C   UNK N   1      31.693  16.283   8.872  0.00  0.00     0.035 C 
HETATM   28  C   UNK N   1      31.655  17.202   7.651  0.00  0.00     0.022 C 
HETATM   29  C   UNK N   1      32.928  16.942   6.857  0.00  0.00     0.127 C 
HETATM   30  N   UNK N   1      33.540  15.811   7.494  0.00  0.00    -0.339 N 
HETATM   31  C   UNK N   1      34.714  15.252   7.076  0.00  0.00     0.243 C 
HETATM   32  O   UNK N   1      35.314  15.706   6.114  0.00  0.00    -0.271 OA
BRANCH  31  33
HETATM   33  C   UNK N   1      35.206  13.994   7.762  0.00  0.00     0.182 C 
BRANCH  33  34
HETATM   34  C   UNK N   1      34.405  12.735   8.071  0.00  0.00     0.009 C 
HETATM   35  C   UNK N   1      33.654  12.273   6.846  0.00  0.00     0.012 C 
HETATM   36  C   UNK N   1      35.291  11.618   8.593  0.00  0.00     0.012 C 
ENDBRANCH  33  34
BRANCH  33  37
HETATM   37  N   UNK N   1      36.435  14.220   8.485  0.00  0.00    -0.323 N 
HETATM   38  C   UNK N   1      37.616  13.817   7.958  0.00  0.00     0.360 C 
HETATM   39  O   UNK N   1      37.684  13.485   6.782  0.00  0.00    -0.239 OA
HETATM   40  H   UNK N   1      36.414  14.668   9.360  0.00  0.00     0.165 HD
BRANCH  38  41
HETATM   41  O   UNK N   1      38.681  13.657   8.773  0.00  0.00    -0.309 OA
HETATM   42  C   UNK N   1      38.828  12.519   9.535  0.00  0.00     0.215 C 
ENDBRANCH  38  41
ENDBRANCH  33  37
ENDBRANCH  31  33
ENDBRANCH  21  26
ENDBRANCH   1  19
BRANCH  10  43
HETATM   43  C   UNK N   1      36.870   9.480  14.207  0.00  0.00     0.049 A 
HETATM   44  C   UNK N   1      36.792   8.245  13.531  0.00  0.00     0.107 A 
HETATM   45  N   UNK N   1      38.016   7.644  13.293  0.00  0.00    -0.362 N 
HETATM   46  C   UNK N   1      39.058   8.354  13.804  0.00  0.00     0.055 A 
ATOM     47  HN  UNK N   1      38.125   6.765  12.788  1.00  0.00     0.165 HD
HETATM   48  S   UNK N   1      38.480   9.751  14.483  0.00  0.00    -0.075 SA
BRANCH  46  49
HETATM   49  C   UNK N   1      40.454   7.802  13.905  0.00  0.00     0.043 A 
HETATM   50  C   UNK N   1      41.308   8.561  14.911  0.00  0.00     0.012 A 
HETATM   51  C   UNK N   1      40.671   7.251  15.310  0.00  0.00     0.012 A 
ENDBRANCH  46  49
ENDBRANCH  10  43
BRANCH  16  52
HETATM   52  C   UNK N   1      36.001  10.128  21.181  0.00  0.00     0.059 A 
HETATM   53  C   UNK N   1      37.215  10.437  21.772  0.00  0.00     0.119 A 
HETATM   54  N   UNK N   1      37.634   9.331  22.432  0.00  0.00    -0.352 N 
HETATM   55  C   UNK N   1      36.679   8.405  22.195  0.00  0.00     0.105 A 
ATOM     56  HN  UNK N   1      38.484   9.221  22.986  1.00  0.00     0.166 HD
HETATM   57  N   UNK N   1      35.676   8.881  21.477  0.00  0.00    -0.342 N 
HETATM   58  H   UNK N   1      34.855   8.405  21.216  0.00  0.00     0.167 HD
BRANCH  55  59
HETATM   59  C   UNK N   1      36.787   6.932  22.416  0.00  0.00     0.155 C 
HETATM   60  C   UNK N   1      36.457   6.615  23.856  0.00  0.00     0.035 C 
HETATM   61  C   UNK N   1      34.977   6.258  23.863  0.00  0.00     0.022 C 
HETATM   62  C   UNK N   1      34.638   5.836  22.443  0.00  0.00     0.127 C 
HETATM   63  N   UNK N   1      35.741   6.275  21.644  0.00  0.00    -0.339 N 
HETATM   64  C   UNK N   1      35.771   6.145  20.266  0.00  0.00     0.243 C 
HETATM   65  O   UNK N   1      36.739   6.559  19.644  0.00  0.00    -0.271 OA
BRANCH  64  66
HETATM   66  C   UNK N   1      34.612   5.496  19.479  0.00  0.00     0.182 C 
BRANCH  66  67
HETATM   67  C   UNK N   1      35.001   4.990  18.080  0.00  0.00     0.009 C 
HETATM   68  C   UNK N   1      34.355   3.683  17.653  0.00  0.00     0.012 C 
HETATM   69  C   UNK N   1      34.938   6.072  17.020  0.00  0.00     0.012 C 
ENDBRANCH  66  67
BRANCH  66  70
HETATM   70  N   UNK N   1      33.476   6.401  19.330  0.00  0.00    -0.323 N 
HETATM   71  C   UNK N   1      32.207   6.044  19.691  0.00  0.00     0.360 C 
HETATM   72  O   UNK N   1      31.997   4.962  20.223  0.00  0.00    -0.239 OA
HETATM   73  H   UNK N   1      33.630   7.298  18.956  0.00  0.00     0.165 HD
BRANCH  71  74
HETATM   74  O   UNK N   1      31.173   6.877  19.415  0.00  0.00    -0.309 OA
HETATM   75  C   UNK N   1      30.795   7.885  20.275  0.00  0.00     0.215 C 
ENDBRANCH  71  74
ENDBRANCH  66  70
ENDBRANCH  64  66
ENDBRANCH  55  59
ENDBRANCH  16  52
TORSDOF 14
ENDMDL
MODEL 7
REMARK VINA RESULT:      -8.5      8.551     13.523
REMARK  14 active torsions:
REMARK  status: ('A' for Active; 'I' for Inactive)
REMARK    1  A    between atoms: C_2  and  C_4 
REMARK    2  A    between atoms: C_4  and  C_5 
REMARK    3  A    between atoms: C_4  and  N_67 
REMARK       I    between atoms: C_5  and  N_7 
REMARK    4  A    between atoms: C_11  and  C_12 
REMARK    5  A    between atoms: C_14  and  C_18 
REMARK    6  A    between atoms: C_27  and  C_58 
REMARK    7  A    between atoms: C_33  and  C_35 
REMARK    8  A    between atoms: C_41  and  C_39 
REMARK       I    between atoms: N_45  and  C_46 
REMARK    9  A    between atoms: C_46  and  C_48 
REMARK   10  A    between atoms: C_48  and  C_49 
REMARK   11  A    between atoms: C_48  and  N_52 
REMARK       I    between atoms: N_52  and  C_53 
REMARK   12  A    between atoms: C_53  and  O_55 
REMARK   13  A    between atoms: C_62  and  C_64 
REMARK       I    between atoms: N_67  and  C_68 
REMARK   14  A    between atoms: C_68  and  O_70 
ROOT
HETATM    1  C   UNK N   1      28.237  16.725   6.378  0.00  0.00    -0.007 C 
HETATM    2  C   UNK N   1      29.181  17.686   6.791  0.00  0.00     0.016 C 
HETATM    3  C   UNK N   1      30.537  17.410   6.640  0.00  0.00     0.031 C 
HETATM    4  C   UNK N   1      30.893  16.225   5.993  0.00  0.00     0.048 A 
HETATM    5  C   UNK N   1      29.966  15.294   5.658  0.00  0.00    -0.006 A 
HETATM    6  C   UNK N   1      28.654  15.479   5.885  0.00  0.00     0.027 C 
HETATM    7  C   UNK N   1      30.570  14.294   4.955  0.00  0.00     0.044 A 
HETATM    8  C   UNK N   1      31.893  14.682   4.912  0.00  0.00     0.054 A 
HETATM    9  N   UNK N   1      32.087  15.831   5.580  0.00  0.00    -0.313 N 
HETATM   10  C   UNK N   1      33.392  16.475   5.753  0.00  0.00     0.278 C 
HETATM   11  O   UNK N   1      34.429  15.649   5.314  0.00  0.00    -0.320 OA
HETATM   12  C   UNK N   1      34.244  14.535   4.525  0.00  0.00     0.088 A 
HETATM   13  C   UNK N   1      32.969  14.023   4.263  0.00  0.00     0.063 A 
HETATM   14  C   UNK N   1      32.781  12.903   3.425  0.00  0.00     0.132 A 
HETATM   15  C   UNK N   1      33.888  12.219   2.941  0.00  0.00     0.057 A 
HETATM   16  C   UNK N   1      35.161  12.686   3.255  0.00  0.00    -0.002 A 
HETATM   17  C   UNK N   1      35.327  13.861   4.018  0.00  0.00     0.051 A 
HETATM   18  F   UNK N   1      31.539  12.436   3.137  0.00  0.00    -0.205 F 
ENDROOT
BRANCH   1  19
HETATM   19  C   UNK N   1      27.065  17.171   5.676  0.00  0.00     0.059 A 
HETATM   20  N   UNK N   1      25.883  16.799   6.156  0.00  0.00    -0.342 N 
HETATM   21  C   UNK N   1      25.113  16.612   5.097  0.00  0.00     0.105 A 
HETATM   22  H   UNK N   1      25.633  16.687   7.102  0.00  0.00     0.167 HD
HETATM   23  N   UNK N   1      25.733  16.908   3.937  0.00  0.00    -0.352 N 
HETATM   24  C   UNK N   1      26.993  17.237   4.294  0.00  0.00     0.119 A 
ATOM     25  HN  UNK N   1      25.338  16.886   2.996  1.00  0.00     0.166 HD
BRANCH  21  26
HETATM   26  C   UNK N   1      23.703  16.206   5.278  0.00  0.00     0.155 C 
HETATM   27  C   UNK N   1      22.807  17.440   5.207  0.00  0.00     0.035 C 
HETATM   28  C   UNK N   1      21.897  17.258   3.992  0.00  0.00     0.022 C 
HETATM   29  C   UNK N   1      22.391  16.029   3.243  0.00  0.00     0.127 C 
HETATM   30  N   UNK N   1      23.391  15.451   4.094  0.00  0.00    -0.339 N 
HETATM   31  C   UNK N   1      24.084  14.315   3.784  0.00  0.00     0.243 C 
HETATM   32  O   UNK N   1      23.877  13.725   2.734  0.00  0.00    -0.271 OA
BRANCH  31  33
HETATM   33  C   UNK N   1      25.039  13.741   4.811  0.00  0.00     0.182 C 
BRANCH  33  34
HETATM   34  C   UNK N   1      26.501  13.366   4.605  0.00  0.00     0.009 C 
HETATM   35  C   UNK N   1      26.711  11.893   4.858  0.00  0.00     0.012 C 
HETATM   36  C   UNK N   1      26.987  13.732   3.214  0.00  0.00     0.012 C 
ENDBRANCH  33  34
BRANCH  33  37
HETATM   37  N   UNK N   1      24.340  13.185   5.945  0.00  0.00    -0.323 N 
HETATM   38  C   UNK N   1      24.814  13.384   7.197  0.00  0.00     0.360 C 
HETATM   39  O   UNK N   1      25.680  14.223   7.402  0.00  0.00    -0.239 OA
HETATM   40  H   UNK N   1      23.519  12.661   5.806  0.00  0.00     0.165 HD
BRANCH  38  41
HETATM   41  O   UNK N   1      24.418  12.558   8.190  0.00  0.00    -0.309 OA
HETATM   42  C   UNK N   1      24.292  13.013   9.484  0.00  0.00     0.215 C 
ENDBRANCH  38  41
ENDBRANCH  33  37
ENDBRANCH  31  33
ENDBRANCH  21  26
ENDBRANCH   1  19
BRANCH  10  43
HETATM   43  C   UNK N   1      33.470  16.957   7.178  0.00  0.00     0.049 A 
HETATM   44  C   UNK N   1      34.166  18.110   7.596  0.00  0.00     0.107 A 
HETATM   45  N   UNK N   1      34.683  18.033   8.878  0.00  0.00    -0.362 N 
HETATM   46  C   UNK N   1      34.450  16.829   9.467  0.00  0.00     0.055 A 
ATOM     47  HN  UNK N   1      35.183  18.797   9.332  1.00  0.00     0.165 HD
HETATM   48  S   UNK N   1      33.548  15.890   8.441  0.00  0.00    -0.075 SA
BRANCH  46  49
HETATM   49  C   UNK N   1      35.117  16.400  10.745  0.00  0.00     0.043 A 
HETATM   50  C   UNK N   1      34.948  14.911  11.018  0.00  0.00     0.012 A 
HETATM   51  C   UNK N   1      36.237  15.419  10.418  0.00  0.00     0.012 A 
ENDBRANCH  46  49
ENDBRANCH  10  43
BRANCH  16  52
HETATM   52  C   UNK N   1      36.276  11.768   3.303  0.00  0.00     0.059 A 
HETATM   53  C   UNK N   1      36.228  10.392   3.450  0.00  0.00     0.119 A 
HETATM   54  N   UNK N   1      37.359  10.016   4.095  0.00  0.00    -0.352 N 
HETATM   55  C   UNK N   1      38.023  11.170   4.328  0.00  0.00     0.105 A 
ATOM     56  HN  UNK N   1      37.646   9.070   4.349  1.00  0.00     0.166 HD
HETATM   57  N   UNK N   1      37.402  12.224   3.825  0.00  0.00    -0.342 N 
HETATM   58  H   UNK N   1      37.715  13.158   3.837  0.00  0.00     0.167 HD
BRANCH  55  59
HETATM   59  C   UNK N   1      39.160  11.372   5.273  0.00  0.00     0.155 C 
HETATM   60  C   UNK N   1      40.118  12.389   4.697  0.00  0.00     0.035 C 
HETATM   61  C   UNK N   1      39.702  13.723   5.302  0.00  0.00     0.022 C 
HETATM   62  C   UNK N   1      38.941  13.391   6.574  0.00  0.00     0.127 C 
HETATM   63  N   UNK N   1      38.644  11.994   6.485  0.00  0.00    -0.339 N 
HETATM   64  C   UNK N   1      37.883  11.324   7.427  0.00  0.00     0.243 C 
HETATM   65  O   UNK N   1      37.653  10.132   7.278  0.00  0.00    -0.271 OA
BRANCH  64  66
HETATM   66  C   UNK N   1      37.301  12.036   8.668  0.00  0.00     0.182 C 
BRANCH  66  67
HETATM   67  C   UNK N   1      38.168  11.916   9.932  0.00  0.00     0.009 C 
HETATM   68  C   UNK N   1      39.022  13.129  10.259  0.00  0.00     0.012 C 
HETATM   69  C   UNK N   1      37.405  11.373  11.124  0.00  0.00     0.012 C 
ENDBRANCH  66  67
BRANCH  66  70
HETATM   70  N   UNK N   1      35.960  11.560   8.996  0.00  0.00    -0.323 N 
HETATM   71  C   UNK N   1      34.841  12.069   8.399  0.00  0.00     0.360 C 
HETATM   72  O   UNK N   1      34.938  12.903   7.510  0.00  0.00    -0.239 OA
HETATM   73  H   UNK N   1      35.860  10.849   9.668  0.00  0.00     0.165 HD
BRANCH  71  74
HETATM   74  O   UNK N   1      33.616  11.678   8.832  0.00  0.00    -0.309 OA
HETATM   75  C   UNK N   1      33.457  10.778   9.863  0.00  0.00     0.215 C 
ENDBRANCH  71  74
ENDBRANCH  66  70
ENDBRANCH  64  66
ENDBRANCH  55  59
ENDBRANCH  16  52
TORSDOF 14
ENDMDL
MODEL 8
REMARK VINA RESULT:      -8.5      9.123     16.439
REMARK  14 active torsions:
REMARK  status: ('A' for Active; 'I' for Inactive)
REMARK    1  A    between atoms: C_2  and  C_4 
REMARK    2  A    between atoms: C_4  and  C_5 
REMARK    3  A    between atoms: C_4  and  N_67 
REMARK       I    between atoms: C_5  and  N_7 
REMARK    4  A    between atoms: C_11  and  C_12 
REMARK    5  A    between atoms: C_14  and  C_18 
REMARK    6  A    between atoms: C_27  and  C_58 
REMARK    7  A    between atoms: C_33  and  C_35 
REMARK    8  A    between atoms: C_41  and  C_39 
REMARK       I    between atoms: N_45  and  C_46 
REMARK    9  A    between atoms: C_46  and  C_48 
REMARK   10  A    between atoms: C_48  and  C_49 
REMARK   11  A    between atoms: C_48  and  N_52 
REMARK       I    between atoms: N_52  and  C_53 
REMARK   12  A    between atoms: C_53  and  O_55 
REMARK   13  A    between atoms: C_62  and  C_64 
REMARK       I    between atoms: N_67  and  C_68 
REMARK   14  A    between atoms: C_68  and  O_70 
ROOT
HETATM    1  C   UNK N   1      22.131  14.721   5.697  0.00  0.00    -0.007 C 
HETATM    2  C   UNK N   1      22.270  15.945   5.014  0.00  0.00     0.016 C 
HETATM    3  C   UNK N   1      23.529  16.324   4.555  0.00  0.00     0.031 C 
HETATM    4  C   UNK N   1      24.580  15.418   4.712  0.00  0.00     0.048 A 
HETATM    5  C   UNK N   1      24.430  14.274   5.423  0.00  0.00    -0.006 A 
HETATM    6  C   UNK N   1      23.254  13.924   5.974  0.00  0.00     0.027 C 
HETATM    7  C   UNK N   1      25.572  13.536   5.331  0.00  0.00     0.044 A 
HETATM    8  C   UNK N   1      26.398  14.314   4.546  0.00  0.00     0.054 A 
HETATM    9  N   UNK N   1      25.804  15.471   4.211  0.00  0.00    -0.313 N 
HETATM   10  C   UNK N   1      26.442  16.528   3.420  0.00  0.00     0.278 C 
HETATM   11  O   UNK N   1      27.801  16.271   3.231  0.00  0.00    -0.320 OA
HETATM   12  C   UNK N   1      28.392  15.047   3.458  0.00  0.00     0.088 A 
HETATM   13  C   UNK N   1      27.707  14.007   4.095  0.00  0.00     0.063 A 
HETATM   14  C   UNK N   1      28.303  12.743   4.293  0.00  0.00     0.132 A 
HETATM   15  C   UNK N   1      29.637  12.558   3.957  0.00  0.00     0.057 A 
HETATM   16  C   UNK N   1      30.343  13.613   3.385  0.00  0.00    -0.002 A 
HETATM   17  C   UNK N   1      29.703  14.838   3.110  0.00  0.00     0.051 A 
HETATM   18  F   UNK N   1      27.620  11.722   4.871  0.00  0.00    -0.205 F 
ENDROOT
BRANCH   1  19
HETATM   19  C   UNK N   1      20.995  13.893   5.400  0.00  0.00     0.059 A 
HETATM   20  N   UNK N   1      21.231  12.661   4.960  0.00  0.00    -0.342 N 
HETATM   21  C   UNK N   1      20.271  12.407   4.087  0.00  0.00     0.105 A 
HETATM   22  H   UNK N   1      21.966  12.064   5.229  0.00  0.00     0.167 HD
HETATM   23  N   UNK N   1      19.375  13.409   3.982  0.00  0.00    -0.352 N 
HETATM   24  C   UNK N   1      19.846  14.378   4.795  0.00  0.00     0.119 A 
ATOM     25  HN  UNK N   1      18.528  13.430   3.413  1.00  0.00     0.166 HD
BRANCH  21  26
HETATM   26  C   UNK N   1      20.222  11.091   3.414  0.00  0.00     0.155 C 
HETATM   27  C   UNK N   1      19.138  10.231   4.059  0.00  0.00     0.035 C 
HETATM   28  C   UNK N   1      18.089   9.957   2.981  0.00  0.00     0.022 C 
HETATM   29  C   UNK N   1      18.452  10.813   1.776  0.00  0.00     0.127 C 
HETATM   30  N   UNK N   1      19.731  11.380   2.094  0.00  0.00    -0.339 N 
HETATM   31  C   UNK N   1      20.416  12.217   1.258  0.00  0.00     0.243 C 
HETATM   32  O   UNK N   1      19.953  12.531   0.172  0.00  0.00    -0.271 OA
BRANCH  31  33
HETATM   33  C   UNK N   1      21.806  12.667   1.657  0.00  0.00     0.182 C 
BRANCH  33  34
HETATM   34  C   UNK N   1      22.271  14.089   1.945  0.00  0.00     0.009 C 
HETATM   35  C   UNK N   1      23.592  14.361   1.268  0.00  0.00     0.012 C 
HETATM   36  C   UNK N   1      21.240  15.116   1.514  0.00  0.00     0.012 C 
ENDBRANCH  33  34
BRANCH  33  37
HETATM   37  N   UNK N   1      22.803  11.666   1.359  0.00  0.00    -0.323 N 
HETATM   38  C   UNK N   1      23.648  11.240   2.328  0.00  0.00     0.360 C 
HETATM   39  O   UNK N   1      23.426  11.509   3.500  0.00  0.00    -0.239 OA
HETATM   40  H   UNK N   1      22.867  11.293   0.451  0.00  0.00     0.165 HD
BRANCH  38  41
HETATM   41  O   UNK N   1      24.803  10.635   1.975  0.00  0.00    -0.309 OA
HETATM   42  C   UNK N   1      25.845  11.354   1.435  0.00  0.00     0.215 C 
ENDBRANCH  38  41
ENDBRANCH  33  37
ENDBRANCH  31  33
ENDBRANCH  21  26
ENDBRANCH   1  19
BRANCH  10  43
HETATM   43  C   UNK N   1      26.086  17.845   4.059  0.00  0.00     0.049 A 
HETATM   44  C   UNK N   1      25.917  19.056   3.358  0.00  0.00     0.107 A 
HETATM   45  N   UNK N   1      26.258  20.187   4.079  0.00  0.00    -0.362 N 
HETATM   46  C   UNK N   1      26.734  19.896   5.319  0.00  0.00     0.055 A 
ATOM     47  HN  UNK N   1      26.161  21.136   3.719  1.00  0.00     0.165 HD
HETATM   48  S   UNK N   1      26.668  18.256   5.554  0.00  0.00    -0.075 SA
BRANCH  46  49
HETATM   49  C   UNK N   1      27.405  20.916   6.199  0.00  0.00     0.043 A 
HETATM   50  C   UNK N   1      26.686  22.258   6.187  0.00  0.00     0.012 A 
HETATM   51  C   UNK N   1      26.458  21.298   7.331  0.00  0.00     0.012 A 
ENDBRANCH  46  49
ENDBRANCH  10  43
BRANCH  16  52
HETATM   52  C   UNK N   1      31.776  13.699   3.553  0.00  0.00     0.059 A 
HETATM   53  C   UNK N   1      32.611  12.771   4.154  0.00  0.00     0.119 A 
HETATM   54  N   UNK N   1      33.648  13.455   4.696  0.00  0.00    -0.352 N 
HETATM   55  C   UNK N   1      33.387  14.752   4.422  0.00  0.00     0.105 A 
ATOM     56  HN  UNK N   1      34.450  13.073   5.198  1.00  0.00     0.166 HD
HETATM   57  N   UNK N   1      32.287  14.909   3.705  0.00  0.00    -0.342 N 
HETATM   58  H   UNK N   1      31.922  15.755   3.356  0.00  0.00     0.167 HD
BRANCH  55  59
HETATM   59  C   UNK N   1      34.028  15.945   5.050  0.00  0.00     0.155 C 
HETATM   60  C   UNK N   1      33.188  17.170   4.775  0.00  0.00     0.035 C 
HETATM   61  C   UNK N   1      32.287  17.323   5.993  0.00  0.00     0.022 C 
HETATM   62  C   UNK N   1      32.977  16.581   7.125  0.00  0.00     0.127 C 
HETATM   63  N   UNK N   1      33.982  15.781   6.496  0.00  0.00    -0.339 N 
HETATM   64  C   UNK N   1      34.782  14.891   7.194  0.00  0.00     0.243 C 
HETATM   65  O   UNK N   1      35.610  14.225   6.589  0.00  0.00    -0.271 OA
BRANCH  64  66
HETATM   66  C   UNK N   1      34.659  14.703   8.722  0.00  0.00     0.182 C 
BRANCH  66  67
HETATM   67  C   UNK N   1      35.771  15.384   9.536  0.00  0.00     0.009 C 
HETATM   68  C   UNK N   1      35.319  16.517  10.442  0.00  0.00     0.012 C 
HETATM   69  C   UNK N   1      36.696  14.396  10.217  0.00  0.00     0.012 C 
ENDBRANCH  66  67
BRANCH  66  70
HETATM   70  N   UNK N   1      34.625  13.293   9.099  0.00  0.00    -0.323 N 
HETATM   71  C   UNK N   1      33.468  12.565   9.094  0.00  0.00     0.360 C 
HETATM   72  O   UNK N   1      32.423  13.066   8.700  0.00  0.00    -0.239 OA
HETATM   73  H   UNK N   1      35.463  12.852   9.366  0.00  0.00     0.165 HD
BRANCH  71  74
HETATM   74  O   UNK N   1      33.473  11.296   9.573  0.00  0.00    -0.309 OA
HETATM   75  C   UNK N   1      34.409  10.863  10.487  0.00  0.00     0.215 C 
ENDBRANCH  71  74
ENDBRANCH  66  70
ENDBRANCH  64  66
ENDBRANCH  55  59
ENDBRANCH  16  52
TORSDOF 14
ENDMDL
MODEL 9
REMARK VINA RESULT:      -8.3      9.748     16.229
REMARK  14 active torsions:
REMARK  status: ('A' for Active; 'I' for Inactive)
REMARK    1  A    between atoms: C_2  and  C_4 
REMARK    2  A    between atoms: C_4  and  C_5 
REMARK    3  A    between atoms: C_4  and  N_67 
REMARK       I    between atoms: C_5  and  N_7 
REMARK    4  A    between atoms: C_11  and  C_12 
REMARK    5  A    between atoms: C_14  and  C_18 
REMARK    6  A    between atoms: C_27  and  C_58 
REMARK    7  A    between atoms: C_33  and  C_35 
REMARK    8  A    between atoms: C_41  and  C_39 
REMARK       I    between atoms: N_45  and  C_46 
REMARK    9  A    between atoms: C_46  and  C_48 
REMARK   10  A    between atoms: C_48  and  C_49 
REMARK   11  A    between atoms: C_48  and  N_52 
REMARK       I    between atoms: N_52  and  C_53 
REMARK   12  A    between atoms: C_53  and  O_55 
REMARK   13  A    between atoms: C_62  and  C_64 
REMARK       I    between atoms: N_67  and  C_68 
REMARK   14  A    between atoms: C_68  and  O_70 
ROOT
HETATM    1  C   UNK N   1      23.851  15.171   3.227  0.00  0.00    -0.007 C 
HETATM    2  C   UNK N   1      24.141  16.489   3.633  0.00  0.00     0.016 C 
HETATM    3  C   UNK N   1      25.461  16.838   3.904  0.00  0.00     0.031 C 
HETATM    4  C   UNK N   1      26.450  15.883   3.663  0.00  0.00     0.048 A 
HETATM    5  C   UNK N   1      26.138  14.607   3.329  0.00  0.00    -0.006 A 
HETATM    6  C   UNK N   1      24.866  14.203   3.162  0.00  0.00     0.027 C 
HETATM    7  C   UNK N   1      27.285  13.921   3.057  0.00  0.00     0.044 A 
HETATM    8  C   UNK N   1      28.278  14.856   3.265  0.00  0.00     0.054 A 
HETATM    9  N   UNK N   1      27.766  16.029   3.674  0.00  0.00    -0.313 N 
HETATM   10  C   UNK N   1      28.570  17.204   4.021  0.00  0.00     0.278 C 
HETATM   11  O   UNK N   1      29.931  16.894   4.068  0.00  0.00    -0.320 OA
HETATM   12  C   UNK N   1      30.476  15.744   3.539  0.00  0.00     0.088 A 
HETATM   13  C   UNK N   1      29.675  14.691   3.086  0.00  0.00     0.063 A 
HETATM   14  C   UNK N   1      30.237  13.530   2.513  0.00  0.00     0.132 A 
HETATM   15  C   UNK N   1      31.616  13.373   2.501  0.00  0.00     0.057 A 
HETATM   16  C   UNK N   1      32.416  14.391   3.014  0.00  0.00    -0.002 A 
HETATM   17  C   UNK N   1      31.839  15.583   3.498  0.00  0.00     0.051 A 
HETATM   18  F   UNK N   1      29.455  12.530   2.033  0.00  0.00    -0.205 F 
ENDROOT
BRANCH   1  19
HETATM   19  C   UNK N   1      22.905  14.972   2.164  0.00  0.00     0.059 A 
HETATM   20  N   UNK N   1      21.645  15.332   2.388  0.00  0.00    -0.342 N 
HETATM   21  C   UNK N   1      20.904  14.445   1.745  0.00  0.00     0.105 A 
HETATM   22  H   UNK N   1      21.331  16.098   2.921  0.00  0.00     0.167 HD
HETATM   23  N   UNK N   1      21.636  13.548   1.055  0.00  0.00    -0.352 N 
HETATM   24  C   UNK N   1      22.918  13.858   1.341  0.00  0.00     0.119 A 
ATOM     25  HN  UNK N   1      21.295  12.800   0.450  1.00  0.00     0.166 HD
BRANCH  21  26
HETATM   26  C   UNK N   1      19.430  14.567   1.769  0.00  0.00     0.155 C 
HETATM   27  C   UNK N   1      18.936  15.015   0.397  0.00  0.00     0.035 C 
HETATM   28  C   UNK N   1      18.061  13.887  -0.151  0.00  0.00     0.022 C 
HETATM   29  C   UNK N   1      18.207  12.707   0.800  0.00  0.00     0.127 C 
HETATM   30  N   UNK N   1      18.960  13.215   1.910  0.00  0.00    -0.339 N 
HETATM   31  C   UNK N   1      19.304  12.462   2.998  0.00  0.00     0.243 C 
HETATM   32  O   UNK N   1      18.978  11.288   3.073  0.00  0.00    -0.271 OA
BRANCH  31  33
HETATM   33  C   UNK N   1      20.009  13.137   4.157  0.00  0.00     0.182 C 
BRANCH  33  34
HETATM   34  C   UNK N   1      21.340  12.745   4.785  0.00  0.00     0.009 C 
HETATM   35  C   UNK N   1      21.138  12.274   6.205  0.00  0.00     0.012 C 
HETATM   36  C   UNK N   1      22.051  11.675   3.976  0.00  0.00     0.012 C 
ENDBRANCH  33  34
BRANCH  33  37
HETATM   37  N   UNK N   1      19.114  13.979   4.915  0.00  0.00    -0.323 N 
HETATM   38  C   UNK N   1      19.539  15.179   5.375  0.00  0.00     0.360 C 
HETATM   39  O   UNK N   1      20.581  15.665   4.957  0.00  0.00    -0.239 OA
HETATM   40  H   UNK N   1      18.194  13.680   5.096  0.00  0.00     0.165 HD
BRANCH  38  41
HETATM   41  O   UNK N   1      18.874  15.768   6.393  0.00  0.00    -0.309 OA
HETATM   42  C   UNK N   1      19.549  16.431   7.393  0.00  0.00     0.215 C 
ENDBRANCH  38  41
ENDBRANCH  33  37
ENDBRANCH  31  33
ENDBRANCH  21  26
ENDBRANCH   1  19
BRANCH  10  43
HETATM   43  C   UNK N   1      27.972  17.807   5.265  0.00  0.00     0.049 A 
HETATM   44  C   UNK N   1      27.821  19.190   5.492  0.00  0.00     0.107 A 
HETATM   45  N   UNK N   1      27.905  19.565   6.822  0.00  0.00    -0.362 N 
HETATM   46  C   UNK N   1      28.165  18.516   7.648  0.00  0.00     0.055 A 
ATOM     47  HN  UNK N   1      27.786  20.524   7.147  1.00  0.00     0.165 HD
HETATM   48  S   UNK N   1      28.217  17.121   6.753  0.00  0.00    -0.075 SA
BRANCH  46  49
HETATM   49  C   UNK N   1      28.554  18.686   9.091  0.00  0.00     0.043 A 
HETATM   50  C   UNK N   1      29.295  17.474   9.641  0.00  0.00     0.012 A 
HETATM   51  C   UNK N   1      30.074  18.691   9.201  0.00  0.00     0.012 A 
ENDBRANCH  46  49
ENDBRANCH  10  43
BRANCH  16  52
HETATM   52  C   UNK N   1      33.718  14.081   3.558  0.00  0.00     0.059 A 
HETATM   53  C   UNK N   1      34.184  12.846   3.977  0.00  0.00     0.119 A 
HETATM   54  N   UNK N   1      35.079  13.068   4.970  0.00  0.00    -0.352 N 
HETATM   55  C   UNK N   1      35.097  14.411   5.123  0.00  0.00     0.105 A 
ATOM     56  HN  UNK N   1      35.619  12.375   5.488  1.00  0.00     0.166 HD
HETATM   57  N   UNK N   1      34.314  15.032   4.258  0.00  0.00    -0.342 N 
HETATM   58  H   UNK N   1      34.197  16.005   4.155  0.00  0.00     0.167 HD
BRANCH  55  59
HETATM   59  C   UNK N   1      35.661  15.171   6.277  0.00  0.00     0.155 C 
HETATM   60  C   UNK N   1      34.561  15.965   6.942  0.00  0.00     0.035 C 
HETATM   61  C   UNK N   1      34.063  15.087   8.083  0.00  0.00     0.022 C 
HETATM   62  C   UNK N   1      35.193  14.123   8.399  0.00  0.00     0.127 C 
HETATM   63  N   UNK N   1      36.091  14.215   7.289  0.00  0.00    -0.339 N 
HETATM   64  C   UNK N   1      37.219  13.421   7.165  0.00  0.00     0.243 C 
HETATM   65  O   UNK N   1      37.934  13.541   6.179  0.00  0.00    -0.271 OA
BRANCH  64  66
HETATM   66  C   UNK N   1      37.606  12.375   8.233  0.00  0.00     0.182 C 
BRANCH  66  67
HETATM   67  C   UNK N   1      38.800  12.780   9.113  0.00  0.00     0.009 C 
HETATM   68  C   UNK N   1      38.471  13.069  10.568  0.00  0.00     0.012 C 
HETATM   69  C   UNK N   1      40.004  11.878   8.931  0.00  0.00     0.012 C 
ENDBRANCH  66  67
BRANCH  66  70
HETATM   70  N   UNK N   1      37.906  11.074   7.641  0.00  0.00    -0.323 N 
HETATM   71  C   UNK N   1      36.934  10.277   7.104  0.00  0.00     0.360 C 
HETATM   72  O   UNK N   1      35.777  10.669   7.041  0.00  0.00    -0.239 OA
HETATM   73  H   UNK N   1      38.838  10.760   7.629  0.00  0.00     0.165 HD
BRANCH  71  74
HETATM   74  O   UNK N   1      37.250   9.027   6.683  0.00  0.00    -0.309 OA
HETATM   75  C   UNK N   1      38.452   8.431   6.998  0.00  0.00     0.215 C 
ENDBRANCH  71  74
ENDBRANCH  66  70
ENDBRANCH  64  66
ENDBRANCH  55  59
ENDBRANCH  16  52
TORSDOF 14
ENDMDL
