REMARK  1 active torsions:
REMARK  status: ('A' for Active; 'I' for Inactive)
REMARK    1  A    between atoms: C_19  and  C_15 
REMARK       I    between atoms: N_20  and  C_19 
ROOT
HETATM    1  C   UNK N   1       6.297   0.402  -0.066  0.00  0.00     0.001 A 
HETATM    2  C   UNK N   1       5.678  -0.837   0.112  0.00  0.00     0.001 A 
HETATM    3  C   UNK N   1       5.525   1.562  -0.182  0.00  0.00     0.008 A 
HETATM    4  C   UNK N   1       4.287  -0.917   0.179  0.00  0.00     0.010 A 
HETATM    5  C   UNK N   1       3.320   2.744  -0.243  0.00  0.00     0.059 C 
HETATM    6  C   UNK N   1       2.020   2.612   0.536  0.00  0.00     0.131 C 
HETATM    7  C   UNK N   1       1.449  -0.813  -0.889  0.00  0.00     0.156 C 
HETATM    8  C   UNK N   1      -0.763   0.272  -0.738  0.00  0.00     0.228 C 
HETATM    9  C   UNK N   1       4.130   1.489  -0.118  0.00  0.00    -0.048 A 
HETATM   10  C   UNK N   1       3.502   0.240   0.064  0.00  0.00    -0.027 A 
HETATM   11  C   UNK N   1       2.002   0.127   0.173  0.00  0.00     0.139 C 
HETATM   12  C   UNK N   1      -0.000   1.503  -0.281  0.00  0.00     0.238 C 
HETATM   13  C   UNK N   1      -0.439  -2.075  -0.048  0.00  0.00     0.224 C 
HETATM   14  N   UNK N   1       0.044  -0.922  -0.601  0.00  0.00    -0.341 N 
HETATM   15  N   UNK N   1       1.315   1.418   0.109  0.00  0.00    -0.340 N 
HETATM   16  O   UNK N   1      -0.572   2.582  -0.291  0.00  0.00    -0.272 OA
HETATM   17  O   UNK N   1       0.304  -3.033   0.105  0.00  0.00    -0.273 OA
ENDROOT
BRANCH  13  18
HETATM   18  C   UNK N   1      -1.860  -2.205   0.419  0.00  0.00     0.078 C 
HETATM   19  C   UNK N   1      -2.794  -3.170  -0.293  0.00  0.00     0.014 C 
HETATM   20  C   UNK N   1      -3.889  -2.381  -0.999  0.00  0.00     0.001 C 
HETATM   21  C   UNK N   1      -4.599  -1.449  -0.015  0.00  0.00     0.000 C 
HETATM   22  C   UNK N   1      -3.611  -0.444   0.581  0.00  0.00     0.001 C 
HETATM   23  C   UNK N   1      -2.495  -1.165   1.335  0.00  0.00     0.014 C 
ENDBRANCH  13  18
TORSDOF 1
