MODEL 1
REMARK VINA RESULT:      -8.9      0.000      0.000
REMARK  4 active torsions:
REMARK  status: ('A' for Active; 'I' for Inactive)
REMARK    1  A    between atoms: C_4  and  C_22 
REMARK    2  A    between atoms: C_7  and  C_8 
REMARK    3  A    between atoms: C_8  and  N_9 
REMARK       I    between atoms: N_9  and  C_10 
REMARK       I    between atoms: C_10  and  N_12 
REMARK    4  A    between atoms: C_16  and  C_17 
REMARK       I    between atoms: C_17  and  N_19 
REMARK       I    between atoms: C_22  and  N_24 
ROOT
HETATM    1  C   UNK N   1      28.369  16.202   3.129  0.00  0.00     0.049 C 
HETATM    2  C   UNK N   1      27.841  17.413   3.823  0.00  0.00    -0.053 A 
HETATM    3  C   UNK N   1      26.554  17.829   3.542  0.00  0.00     0.024 A 
HETATM    4  C   UNK N   1      25.974  18.932   4.172  0.00  0.00     0.033 A 
HETATM    5  C   UNK N   1      26.753  19.660   5.088  0.00  0.00     0.017 A 
HETATM    6  C   UNK N   1      28.054  19.240   5.399  0.00  0.00     0.010 A 
HETATM    7  C   UNK N   1      28.600  18.112   4.766  0.00  0.00    -0.034 A 
ENDROOT
BRANCH   7   8
HETATM    8  C   UNK N   1      29.913  17.559   5.214  0.00  0.00     0.163 C 
BRANCH   8   9
HETATM    9  N   UNK N   1      29.647  16.974   6.507  0.00  0.00    -0.339 N 
HETATM   10  C   UNK N   1      30.501  17.121   7.560  0.00  0.00     0.319 C 
HETATM   11  O   UNK N   1      30.042  17.067   8.689  0.00  0.00    -0.247 OA
HETATM   12  N   UNK N   1      31.840  17.363   7.383  0.00  0.00    -0.321 N 
HETATM   13  C   UNK N   1      32.684  17.753   8.477  0.00  0.00     0.129 C 
HETATM   14  C   UNK N   1      32.544  17.162   6.138  0.00  0.00     0.181 C 
HETATM   15  C   UNK N   1      34.028  18.074   7.841  0.00  0.00     0.022 C 
HETATM   16  C   UNK N   1      33.997  17.489   6.432  0.00  0.00     0.037 C 
HETATM   17  H   UNK N   1      28.822  16.452   6.633  0.00  0.00     0.164 HD
BRANCH  14  18
HETATM   18  C   UNK N   1      32.398  15.720   5.661  0.00  0.00     0.242 C 
HETATM   19  O   UNK N   1      32.175  14.860   6.502  0.00  0.00    -0.271 OA
HETATM   20  N   UNK N   1      32.536  15.357   4.346  0.00  0.00    -0.359 N 
HETATM   21  C   UNK N   1      32.441  13.971   3.961  0.00  0.00     0.152 C 
HETATM   22  C   UNK N   1      32.805  16.320   3.308  0.00  0.00     0.152 C 
ENDBRANCH  14  18
ENDBRANCH   8   9
ENDBRANCH   7   8
BRANCH   4  23
HETATM   23  C   UNK N   1      24.616  19.422   3.767  0.00  0.00     0.258 C 
HETATM   24  O   UNK N   1      24.579  20.346   2.966  0.00  0.00    -0.267 OA
HETATM   25  N   UNK N   1      23.438  18.811   4.184  0.00  0.00    -0.313 N 
HETATM   26  C   UNK N   1      23.467  17.875   5.302  0.00  0.00     0.132 C 
HETATM   27  C   UNK N   1      22.158  19.099   3.556  0.00  0.00     0.043 A 
HETATM   28  C   UNK N   1      23.484  16.411   4.863  0.00  0.00     0.021 C 
HETATM   29  C   UNK N   1      22.385  16.085   3.874  0.00  0.00     0.006 C 
HETATM   30  C   UNK N   1      21.128  16.834   4.270  0.00  0.00     0.041 C 
HETATM   31  C   UNK N   1      21.071  18.163   3.582  0.00  0.00    -0.031 A 
HETATM   32  C   UNK N   1      19.893  18.443   2.885  0.00  0.00     0.009 A 
HETATM   33  C   UNK N   1      19.747  19.631   2.176  0.00  0.00     0.001 A 
HETATM   34  C   UNK N   1      20.783  20.557   2.150  0.00  0.00     0.002 A 
HETATM   35  C   UNK N   1      21.975  20.287   2.821  0.00  0.00     0.030 A 
ENDBRANCH   4  23
TORSDOF 4
ENDMDL
MODEL 2
REMARK VINA RESULT:      -8.8      2.575      4.806
REMARK  4 active torsions:
REMARK  status: ('A' for Active; 'I' for Inactive)
REMARK    1  A    between atoms: C_4  and  C_22 
REMARK    2  A    between atoms: C_7  and  C_8 
REMARK    3  A    between atoms: C_8  and  N_9 
REMARK       I    between atoms: N_9  and  C_10 
REMARK       I    between atoms: C_10  and  N_12 
REMARK    4  A    between atoms: C_16  and  C_17 
REMARK       I    between atoms: C_17  and  N_19 
REMARK       I    between atoms: C_22  and  N_24 
ROOT
HETATM    1  C   UNK N   1      29.840  18.575   9.506  0.00  0.00     0.049 C 
HETATM    2  C   UNK N   1      29.654  17.691   8.319  0.00  0.00    -0.053 A 
HETATM    3  C   UNK N   1      28.469  17.772   7.613  0.00  0.00     0.024 A 
HETATM    4  C   UNK N   1      28.229  17.003   6.472  0.00  0.00     0.033 A 
HETATM    5  C   UNK N   1      29.216  16.088   6.067  0.00  0.00     0.017 A 
HETATM    6  C   UNK N   1      30.432  16.008   6.761  0.00  0.00     0.010 A 
HETATM    7  C   UNK N   1      30.653  16.813   7.890  0.00  0.00    -0.034 A 
ENDROOT
BRANCH   7   8
HETATM    8  C   UNK N   1      32.001  16.858   8.530  0.00  0.00     0.163 C 
BRANCH   8   9
HETATM    9  N   UNK N   1      32.777  17.745   7.696  0.00  0.00    -0.339 N 
HETATM   10  C   UNK N   1      33.648  17.280   6.755  0.00  0.00     0.319 C 
HETATM   11  O   UNK N   1      33.883  17.983   5.786  0.00  0.00    -0.247 OA
HETATM   12  N   UNK N   1      34.231  16.042   6.853  0.00  0.00    -0.321 N 
HETATM   13  C   UNK N   1      34.951  15.462   5.754  0.00  0.00     0.129 C 
HETATM   14  C   UNK N   1      34.267  15.253   8.061  0.00  0.00     0.181 C 
HETATM   15  C   UNK N   1      35.289  14.050   6.207  0.00  0.00     0.022 C 
HETATM   16  C   UNK N   1      35.063  14.008   7.715  0.00  0.00     0.037 C 
HETATM   17  H   UNK N   1      32.675  18.717   7.809  0.00  0.00     0.164 HD
BRANCH  14  18
HETATM   18  C   UNK N   1      34.939  16.029   9.192  0.00  0.00     0.242 C 
HETATM   19  O   UNK N   1      35.571  17.034   8.898  0.00  0.00    -0.271 OA
HETATM   20  N   UNK N   1      34.883  15.626  10.501  0.00  0.00    -0.359 N 
HETATM   21  C   UNK N   1      35.582  16.368  11.520  0.00  0.00     0.152 C 
HETATM   22  C   UNK N   1      34.162  14.448  10.913  0.00  0.00     0.152 C 
ENDBRANCH  14  18
ENDBRANCH   8   9
ENDBRANCH   7   8
BRANCH   4  23
HETATM   23  C   UNK N   1      26.893  17.034   5.791  0.00  0.00     0.258 C 
HETATM   24  O   UNK N   1      26.037  16.274   6.221  0.00  0.00    -0.267 OA
HETATM   25  N   UNK N   1      26.580  17.944   4.786  0.00  0.00    -0.313 N 
HETATM   26  C   UNK N   1      27.648  18.681   4.122  0.00  0.00     0.132 C 
HETATM   27  C   UNK N   1      25.211  18.165   4.349  0.00  0.00     0.043 A 
HETATM   28  C   UNK N   1      27.828  20.100   4.661  0.00  0.00     0.021 C 
HETATM   29  C   UNK N   1      26.531  20.881   4.695  0.00  0.00     0.006 C 
HETATM   30  C   UNK N   1      25.720  20.543   3.461  0.00  0.00     0.041 C 
HETATM   31  C   UNK N   1      24.798  19.396   3.737  0.00  0.00    -0.031 A 
HETATM   32  C   UNK N   1      23.453  19.600   3.419  0.00  0.00     0.009 A 
HETATM   33  C   UNK N   1      22.501  18.616   3.671  0.00  0.00     0.001 A 
HETATM   34  C   UNK N   1      22.883  17.412   4.251  0.00  0.00     0.002 A 
HETATM   35  C   UNK N   1      24.217  17.197   4.595  0.00  0.00     0.030 A 
ENDBRANCH   4  23
TORSDOF 4
ENDMDL
MODEL 3
REMARK VINA RESULT:      -8.6      1.268      2.757
REMARK  4 active torsions:
REMARK  status: ('A' for Active; 'I' for Inactive)
REMARK    1  A    between atoms: C_4  and  C_22 
REMARK    2  A    between atoms: C_7  and  C_8 
REMARK    3  A    between atoms: C_8  and  N_9 
REMARK       I    between atoms: N_9  and  C_10 
REMARK       I    between atoms: C_10  and  N_12 
REMARK    4  A    between atoms: C_16  and  C_17 
REMARK       I    between atoms: C_17  and  N_19 
REMARK       I    between atoms: C_22  and  N_24 
ROOT
HETATM    1  C   UNK N   1      28.264  15.925   3.420  0.00  0.00     0.049 C 
HETATM    2  C   UNK N   1      27.892  17.306   3.843  0.00  0.00    -0.053 A 
HETATM    3  C   UNK N   1      26.613  17.758   3.577  0.00  0.00     0.024 A 
HETATM    4  C   UNK N   1      26.176  19.025   3.969  0.00  0.00     0.033 A 
HETATM    5  C   UNK N   1      27.091  19.875   4.613  0.00  0.00     0.017 A 
HETATM    6  C   UNK N   1      28.387  19.425   4.908  0.00  0.00     0.010 A 
HETATM    7  C   UNK N   1      28.788  18.136   4.522  0.00  0.00    -0.034 A 
ENDROOT
BRANCH   7   8
HETATM    8  C   UNK N   1      30.101  17.589   4.979  0.00  0.00     0.163 C 
BRANCH   8   9
HETATM    9  N   UNK N   1      31.028  17.925   3.925  0.00  0.00    -0.339 N 
HETATM   10  C   UNK N   1      31.899  17.013   3.405  0.00  0.00     0.319 C 
HETATM   11  O   UNK N   1      32.277  17.163   2.255  0.00  0.00    -0.247 OA
HETATM   12  N   UNK N   1      32.325  15.923   4.122  0.00  0.00    -0.321 N 
HETATM   13  C   UNK N   1      33.043  14.847   3.498  0.00  0.00     0.129 C 
HETATM   14  C   UNK N   1      32.189  15.788   5.553  0.00  0.00     0.181 C 
HETATM   15  C   UNK N   1      33.182  13.788   4.580  0.00  0.00     0.022 C 
HETATM   16  C   UNK N   1      32.854  14.470   5.905  0.00  0.00     0.037 C 
HETATM   17  H   UNK N   1      31.033  18.842   3.569  0.00  0.00     0.164 HD
BRANCH  14  18
HETATM   18  C   UNK N   1      32.871  16.950   6.272  0.00  0.00     0.242 C 
HETATM   19  O   UNK N   1      33.761  17.545   5.679  0.00  0.00    -0.271 OA
HETATM   20  N   UNK N   1      32.546  17.323   7.550  0.00  0.00    -0.359 N 
HETATM   21  C   UNK N   1      33.261  18.393   8.199  0.00  0.00     0.152 C 
HETATM   22  C   UNK N   1      31.513  16.659   8.305  0.00  0.00     0.152 C 
ENDBRANCH  14  18
ENDBRANCH   8   9
ENDBRANCH   7   8
BRANCH   4  23
HETATM   23  C   UNK N   1      24.819  19.525   3.572  0.00  0.00     0.258 C 
HETATM   24  O   UNK N   1      24.778  20.355   2.675  0.00  0.00    -0.267 OA
HETATM   25  N   UNK N   1      23.640  19.015   4.108  0.00  0.00    -0.313 N 
HETATM   26  C   UNK N   1      23.689  18.209   5.321  0.00  0.00     0.132 C 
HETATM   27  C   UNK N   1      22.344  19.288   3.509  0.00  0.00     0.043 A 
HETATM   28  C   UNK N   1      23.629  16.706   5.050  0.00  0.00     0.021 C 
HETATM   29  C   UNK N   1      22.470  16.320   4.154  0.00  0.00     0.006 C 
HETATM   30  C   UNK N   1      21.264  17.162   4.519  0.00  0.00     0.041 C 
HETATM   31  C   UNK N   1      21.224  18.408   3.689  0.00  0.00    -0.031 A 
HETATM   32  C   UNK N   1      20.024  18.660   3.018  0.00  0.00     0.009 A 
HETATM   33  C   UNK N   1      19.889  19.767   2.186  0.00  0.00     0.001 A 
HETATM   34  C   UNK N   1      20.957  20.639   2.010  0.00  0.00     0.002 A 
HETATM   35  C   UNK N   1      22.169  20.394   2.654  0.00  0.00     0.030 A 
ENDBRANCH   4  23
TORSDOF 4
ENDMDL
MODEL 4
REMARK VINA RESULT:      -8.5      7.761     14.138
REMARK  4 active torsions:
REMARK  status: ('A' for Active; 'I' for Inactive)
REMARK    1  A    between atoms: C_4  and  C_22 
REMARK    2  A    between atoms: C_7  and  C_8 
REMARK    3  A    between atoms: C_8  and  N_9 
REMARK       I    between atoms: N_9  and  C_10 
REMARK       I    between atoms: C_10  and  N_12 
REMARK    4  A    between atoms: C_16  and  C_17 
REMARK       I    between atoms: C_17  and  N_19 
REMARK       I    between atoms: C_22  and  N_24 
ROOT
HETATM    1  C   UNK N   1      34.203  11.747  10.017  0.00  0.00     0.049 C 
HETATM    2  C   UNK N   1      34.717  12.726  11.018  0.00  0.00    -0.053 A 
HETATM    3  C   UNK N   1      34.869  12.315  12.329  0.00  0.00     0.024 A 
HETATM    4  C   UNK N   1      35.374  13.160  13.320  0.00  0.00     0.033 A 
HETATM    5  C   UNK N   1      35.692  14.483  12.967  0.00  0.00     0.017 A 
HETATM    6  C   UNK N   1      35.563  14.910  11.638  0.00  0.00     0.010 A 
HETATM    7  C   UNK N   1      35.075  14.029  10.660  0.00  0.00    -0.034 A 
ENDROOT
BRANCH   7   8
HETATM    8  C   UNK N   1      35.094  14.419   9.218  0.00  0.00     0.163 C 
BRANCH   8   9
HETATM    9  N   UNK N   1      35.610  15.768   9.207  0.00  0.00    -0.339 N 
HETATM   10  C   UNK N   1      34.801  16.854   9.046  0.00  0.00     0.319 C 
HETATM   11  O   UNK N   1      35.159  17.918   9.524  0.00  0.00    -0.247 OA
HETATM   12  N   UNK N   1      33.593  16.772   8.402  0.00  0.00    -0.321 N 
HETATM   13  C   UNK N   1      32.644  17.849   8.444  0.00  0.00     0.129 C 
HETATM   14  C   UNK N   1      33.196  15.671   7.556  0.00  0.00     0.181 C 
HETATM   15  C   UNK N   1      31.401  17.305   7.758  0.00  0.00     0.022 C 
HETATM   16  C   UNK N   1      31.828  16.043   7.013  0.00  0.00     0.037 C 
HETATM   17  H   UNK N   1      36.578  15.909   9.318  0.00  0.00     0.164 HD
BRANCH  14  18
HETATM   18  C   UNK N   1      34.196  15.475   6.419  0.00  0.00     0.242 C 
HETATM   19  O   UNK N   1      34.853  16.444   6.064  0.00  0.00    -0.271 OA
HETATM   20  N   UNK N   1      34.357  14.277   5.774  0.00  0.00    -0.359 N 
HETATM   21  C   UNK N   1      35.279  14.164   4.670  0.00  0.00     0.152 C 
HETATM   22  C   UNK N   1      33.610  13.100   6.140  0.00  0.00     0.152 C 
ENDBRANCH  14  18
ENDBRANCH   8   9
ENDBRANCH   7   8
BRANCH   4  23
HETATM   23  C   UNK N   1      35.426  12.719  14.752  0.00  0.00     0.258 C 
HETATM   24  O   UNK N   1      34.533  13.121  15.486  0.00  0.00    -0.267 OA
HETATM   25  N   UNK N   1      36.369  11.815  15.230  0.00  0.00    -0.313 N 
HETATM   26  C   UNK N   1      37.553  11.519  14.432  0.00  0.00     0.132 C 
HETATM   27  C   UNK N   1      36.229  11.171  16.526  0.00  0.00     0.043 A 
HETATM   28  C   UNK N   1      37.438  10.216  13.642  0.00  0.00     0.021 C 
HETATM   29  C   UNK N   1      37.024   9.043  14.506  0.00  0.00     0.006 C 
HETATM   30  C   UNK N   1      37.711   9.157  15.852  0.00  0.00     0.041 C 
HETATM   31  C   UNK N   1      36.849   9.910  16.818  0.00  0.00    -0.031 A 
HETATM   32  C   UNK N   1      36.610   9.283  18.044  0.00  0.00     0.009 A 
HETATM   33  C   UNK N   1      35.790   9.873  19.001  0.00  0.00     0.001 A 
HETATM   34  C   UNK N   1      35.192  11.101  18.742  0.00  0.00     0.002 A 
HETATM   35  C   UNK N   1      35.400  11.733  17.517  0.00  0.00     0.030 A 
ENDBRANCH   4  23
TORSDOF 4
ENDMDL
MODEL 5
REMARK VINA RESULT:      -8.4      6.433     12.735
REMARK  4 active torsions:
REMARK  status: ('A' for Active; 'I' for Inactive)
REMARK    1  A    between atoms: C_4  and  C_22 
REMARK    2  A    between atoms: C_7  and  C_8 
REMARK    3  A    between atoms: C_8  and  N_9 
REMARK       I    between atoms: N_9  and  C_10 
REMARK       I    between atoms: C_10  and  N_12 
REMARK    4  A    between atoms: C_16  and  C_17 
REMARK       I    between atoms: C_17  and  N_19 
REMARK       I    between atoms: C_22  and  N_24 
ROOT
HETATM    1  C   UNK N   1      32.560  14.585   9.145  0.00  0.00     0.049 C 
HETATM    2  C   UNK N   1      33.967  14.352   9.582  0.00  0.00    -0.053 A 
HETATM    3  C   UNK N   1      34.223  14.182  10.929  0.00  0.00     0.024 A 
HETATM    4  C   UNK N   1      35.508  13.928  11.415  0.00  0.00     0.033 A 
HETATM    5  C   UNK N   1      36.572  13.892  10.498  0.00  0.00     0.017 A 
HETATM    6  C   UNK N   1      36.326  14.044   9.125  0.00  0.00     0.010 A 
HETATM    7  C   UNK N   1      35.020  14.273   8.665  0.00  0.00    -0.034 A 
ENDROOT
BRANCH   7   8
HETATM    8  C   UNK N   1      34.725  14.265   7.201  0.00  0.00     0.163 C 
BRANCH   8   9
HETATM    9  N   UNK N   1      35.109  15.578   6.739  0.00  0.00    -0.339 N 
HETATM   10  C   UNK N   1      34.190  16.528   6.405  0.00  0.00     0.319 C 
HETATM   11  O   UNK N   1      34.506  17.702   6.510  0.00  0.00    -0.247 OA
HETATM   12  N   UNK N   1      32.922  16.201   5.995  0.00  0.00    -0.321 N 
HETATM   13  C   UNK N   1      31.891  17.194   5.876  0.00  0.00     0.129 C 
HETATM   14  C   UNK N   1      32.524  14.885   5.556  0.00  0.00     0.181 C 
HETATM   15  C   UNK N   1      30.627  16.411   5.560  0.00  0.00     0.022 C 
HETATM   16  C   UNK N   1      31.070  15.013   5.140  0.00  0.00     0.037 C 
HETATM   17  H   UNK N   1      36.066  15.796   6.663  0.00  0.00     0.164 HD
BRANCH  14  18
HETATM   18  C   UNK N   1      33.386  14.422   4.384  0.00  0.00     0.242 C 
HETATM   19  O   UNK N   1      33.906  15.280   3.684  0.00  0.00    -0.271 OA
HETATM   20  N   UNK N   1      33.568  13.099   4.076  0.00  0.00    -0.359 N 
HETATM   21  C   UNK N   1      34.348  12.722   2.923  0.00  0.00     0.152 C 
HETATM   22  C   UNK N   1      32.978  12.040   4.855  0.00  0.00     0.152 C 
ENDBRANCH  14  18
ENDBRANCH   8   9
ENDBRANCH   7   8
BRANCH   4  23
HETATM   23  C   UNK N   1      35.770  13.855  12.890  0.00  0.00     0.258 C 
HETATM   24  O   UNK N   1      35.942  14.917  13.473  0.00  0.00    -0.267 OA
HETATM   25  N   UNK N   1      35.723  12.664  13.607  0.00  0.00    -0.313 N 
HETATM   26  C   UNK N   1      35.749  11.392  12.895  0.00  0.00     0.132 C 
HETATM   27  C   UNK N   1      35.679  12.642  15.060  0.00  0.00     0.043 A 
HETATM   28  C   UNK N   1      34.365  10.765  12.727  0.00  0.00     0.021 C 
HETATM   29  C   UNK N   1      33.604  10.673  14.034  0.00  0.00     0.006 C 
HETATM   30  C   UNK N   1      34.571  10.304  15.141  0.00  0.00     0.041 C 
HETATM   31  C   UNK N   1      35.123  11.537  15.787  0.00  0.00    -0.031 A 
HETATM   32  C   UNK N   1      35.016  11.601  17.179  0.00  0.00     0.009 A 
HETATM   33  C   UNK N   1      35.459  12.718  17.880  0.00  0.00     0.001 A 
HETATM   34  C   UNK N   1      36.013  13.793  17.195  0.00  0.00     0.002 A 
HETATM   35  C   UNK N   1      36.110  13.758  15.805  0.00  0.00     0.030 A 
ENDBRANCH   4  23
TORSDOF 4
ENDMDL
MODEL 6
REMARK VINA RESULT:      -8.4      7.255     12.769
REMARK  4 active torsions:
REMARK  status: ('A' for Active; 'I' for Inactive)
REMARK    1  A    between atoms: C_4  and  C_22 
REMARK    2  A    between atoms: C_7  and  C_8 
REMARK    3  A    between atoms: C_8  and  N_9 
REMARK       I    between atoms: N_9  and  C_10 
REMARK       I    between atoms: C_10  and  N_12 
REMARK    4  A    between atoms: C_16  and  C_17 
REMARK       I    between atoms: C_17  and  N_19 
REMARK       I    between atoms: C_22  and  N_24 
ROOT
HETATM    1  C   UNK N   1      37.391  13.790   8.049  0.00  0.00     0.049 C 
HETATM    2  C   UNK N   1      36.259  14.050   8.987  0.00  0.00    -0.053 A 
HETATM    3  C   UNK N   1      36.476  13.902  10.343  0.00  0.00     0.024 A 
HETATM    4  C   UNK N   1      35.480  14.157  11.288  0.00  0.00     0.033 A 
HETATM    5  C   UNK N   1      34.207  14.533  10.827  0.00  0.00     0.017 A 
HETATM    6  C   UNK N   1      33.975  14.706   9.454  0.00  0.00     0.010 A 
HETATM    7  C   UNK N   1      35.005  14.465   8.531  0.00  0.00    -0.034 A 
ENDROOT
BRANCH   7   8
HETATM    8  C   UNK N   1      34.819  14.810   7.090  0.00  0.00     0.163 C 
BRANCH   8   9
HETATM    9  N   UNK N   1      33.872  13.838   6.596  0.00  0.00    -0.339 N 
HETATM   10  C   UNK N   1      33.295  13.947   5.366  0.00  0.00     0.319 C 
HETATM   11  O   UNK N   1      32.929  12.926   4.805  0.00  0.00    -0.247 OA
HETATM   12  N   UNK N   1      33.151  15.157   4.734  0.00  0.00    -0.321 N 
HETATM   13  C   UNK N   1      32.768  15.242   3.352  0.00  0.00     0.129 C 
HETATM   14  C   UNK N   1      33.268  16.436   5.392  0.00  0.00     0.181 C 
HETATM   15  C   UNK N   1      32.879  16.718   3.004  0.00  0.00     0.022 C 
HETATM   16  C   UNK N   1      32.967  17.475   4.326  0.00  0.00     0.037 C 
HETATM   17  H   UNK N   1      33.635  13.072   7.166  0.00  0.00     0.164 HD
BRANCH  14  18
HETATM   18  C   UNK N   1      32.277  16.542   6.548  0.00  0.00     0.242 C 
HETATM   19  O   UNK N   1      31.257  15.870   6.489  0.00  0.00    -0.271 OA
HETATM   20  N   UNK N   1      32.475  17.374   7.619  0.00  0.00    -0.359 N 
HETATM   21  C   UNK N   1      31.478  17.474   8.656  0.00  0.00     0.152 C 
HETATM   22  C   UNK N   1      33.652  18.196   7.746  0.00  0.00     0.152 C 
ENDBRANCH  14  18
ENDBRANCH   8   9
ENDBRANCH   7   8
BRANCH   4  23
HETATM   23  C   UNK N   1      35.714  13.884  12.744  0.00  0.00     0.258 C 
HETATM   24  O   UNK N   1      35.815  14.858  13.478  0.00  0.00    -0.267 OA
HETATM   25  N   UNK N   1      35.718  12.600  13.280  0.00  0.00    -0.313 N 
HETATM   26  C   UNK N   1      35.830  11.449  12.393  0.00  0.00     0.132 C 
HETATM   27  C   UNK N   1      35.645  12.366  14.713  0.00  0.00     0.043 A 
HETATM   28  C   UNK N   1      34.487  10.782  12.097  0.00  0.00     0.021 C 
HETATM   29  C   UNK N   1      33.705  10.461  13.354  0.00  0.00     0.006 C 
HETATM   30  C   UNK N   1      34.667   9.986  14.424  0.00  0.00     0.041 C 
HETATM   31  C   UNK N   1      35.136  11.139  15.257  0.00  0.00    -0.031 A 
HETATM   32  C   UNK N   1      34.996  10.995  16.640  0.00  0.00     0.009 A 
HETATM   33  C   UNK N   1      35.361  12.020  17.507  0.00  0.00     0.001 A 
HETATM   34  C   UNK N   1      35.869  13.210  17.000  0.00  0.00     0.002 A 
HETATM   35  C   UNK N   1      35.997  13.383  15.623  0.00  0.00     0.030 A 
ENDBRANCH   4  23
TORSDOF 4
ENDMDL
MODEL 7
REMARK VINA RESULT:      -8.3      2.335      9.713
REMARK  4 active torsions:
REMARK  status: ('A' for Active; 'I' for Inactive)
REMARK    1  A    between atoms: C_4  and  C_22 
REMARK    2  A    between atoms: C_7  and  C_8 
REMARK    3  A    between atoms: C_8  and  N_9 
REMARK       I    between atoms: N_9  and  C_10 
REMARK       I    between atoms: C_10  and  N_12 
REMARK    4  A    between atoms: C_16  and  C_17 
REMARK       I    between atoms: C_17  and  N_19 
REMARK       I    between atoms: C_22  and  N_24 
ROOT
HETATM    1  C   UNK N   1      25.004  14.638   3.698  0.00  0.00     0.049 C 
HETATM    2  C   UNK N   1      25.659  15.927   4.066  0.00  0.00    -0.053 A 
HETATM    3  C   UNK N   1      27.021  15.934   4.301  0.00  0.00     0.024 A 
HETATM    4  C   UNK N   1      27.715  17.104   4.618  0.00  0.00     0.033 A 
HETATM    5  C   UNK N   1      26.984  18.298   4.743  0.00  0.00     0.017 A 
HETATM    6  C   UNK N   1      25.605  18.312   4.488  0.00  0.00     0.010 A 
HETATM    7  C   UNK N   1      24.940  17.123   4.147  0.00  0.00    -0.034 A 
ENDROOT
BRANCH   7   8
HETATM    8  C   UNK N   1      23.513  17.158   3.710  0.00  0.00     0.163 C 
BRANCH   8   9
HETATM    9  N   UNK N   1      22.889  18.145   4.559  0.00  0.00    -0.339 N 
HETATM   10  C   UNK N   1      21.995  17.806   5.531  0.00  0.00     0.319 C 
HETATM   11  O   UNK N   1      21.887  18.539   6.501  0.00  0.00    -0.247 OA
HETATM   12  N   UNK N   1      21.249  16.656   5.464  0.00  0.00    -0.321 N 
HETATM   13  C   UNK N   1      20.493  16.184   6.590  0.00  0.00     0.129 C 
HETATM   14  C   UNK N   1      21.069  15.873   4.264  0.00  0.00     0.181 C 
HETATM   15  C   UNK N   1      19.956  14.827   6.162  0.00  0.00     0.022 C 
HETATM   16  C   UNK N   1      20.125  14.747   4.648  0.00  0.00     0.037 C 
HETATM   17  H   UNK N   1      23.117  19.094   4.433  0.00  0.00     0.164 HD
BRANCH  14  18
HETATM   18  C   UNK N   1      20.471  16.725   3.148  0.00  0.00     0.242 C 
HETATM   19  O   UNK N   1      19.810  17.704   3.468  0.00  0.00    -0.271 OA
HETATM   20  N   UNK N   1      20.623  16.419   1.820  0.00  0.00    -0.359 N 
HETATM   21  C   UNK N   1      19.990  17.230   0.810  0.00  0.00     0.152 C 
HETATM   22  C   UNK N   1      21.383  15.277   1.377  0.00  0.00     0.152 C 
ENDBRANCH  14  18
ENDBRANCH   8   9
ENDBRANCH   7   8
BRANCH   4  23
HETATM   23  C   UNK N   1      29.171  17.060   4.973  0.00  0.00     0.258 C 
HETATM   24  O   UNK N   1      29.967  17.196   4.054  0.00  0.00    -0.267 OA
HETATM   25  N   UNK N   1      29.626  16.975   6.285  0.00  0.00    -0.313 N 
HETATM   26  C   UNK N   1      28.704  16.584   7.345  0.00  0.00     0.132 C 
HETATM   27  C   UNK N   1      31.013  17.234   6.636  0.00  0.00     0.043 A 
HETATM   28  C   UNK N   1      28.159  17.772   8.138  0.00  0.00     0.021 C 
HETATM   29  C   UNK N   1      29.254  18.688   8.643  0.00  0.00     0.006 C 
HETATM   30  C   UNK N   1      30.435  17.848   9.084  0.00  0.00     0.041 C 
HETATM   31  C   UNK N   1      31.397  17.660   7.952  0.00  0.00    -0.031 A 
HETATM   32  C   UNK N   1      32.729  17.989   8.218  0.00  0.00     0.009 A 
HETATM   33  C   UNK N   1      33.701  17.892   7.227  0.00  0.00     0.001 A 
HETATM   34  C   UNK N   1      33.352  17.468   5.950  0.00  0.00     0.002 A 
HETATM   35  C   UNK N   1      32.025  17.156   5.658  0.00  0.00     0.030 A 
ENDBRANCH   4  23
TORSDOF 4
ENDMDL
MODEL 8
REMARK VINA RESULT:      -8.0      2.343     10.013
REMARK  4 active torsions:
REMARK  status: ('A' for Active; 'I' for Inactive)
REMARK    1  A    between atoms: C_4  and  C_22 
REMARK    2  A    between atoms: C_7  and  C_8 
REMARK    3  A    between atoms: C_8  and  N_9 
REMARK       I    between atoms: N_9  and  C_10 
REMARK       I    between atoms: C_10  and  N_12 
REMARK    4  A    between atoms: C_16  and  C_17 
REMARK       I    between atoms: C_17  and  N_19 
REMARK       I    between atoms: C_22  and  N_24 
ROOT
HETATM    1  C   UNK N   1      25.304  20.065   3.695  0.00  0.00     0.049 C 
HETATM    2  C   UNK N   1      25.848  18.696   3.925  0.00  0.00    -0.053 A 
HETATM    3  C   UNK N   1      27.159  18.566   4.344  0.00  0.00     0.024 A 
HETATM    4  C   UNK N   1      27.734  17.322   4.612  0.00  0.00     0.033 A 
HETATM    5  C   UNK N   1      26.957  16.171   4.402  0.00  0.00     0.017 A 
HETATM    6  C   UNK N   1      25.619  16.285   3.996  0.00  0.00     0.010 A 
HETATM    7  C   UNK N   1      25.063  17.552   3.758  0.00  0.00    -0.034 A 
ENDROOT
BRANCH   7   8
HETATM    8  C   UNK N   1      23.600  17.693   3.492  0.00  0.00     0.163 C 
BRANCH   8   9
HETATM    9  N   UNK N   1      22.962  16.850   4.476  0.00  0.00    -0.339 N 
HETATM   10  C   UNK N   1      22.078  15.871   4.130  0.00  0.00     0.319 C 
HETATM   11  O   UNK N   1      21.962  14.908   4.870  0.00  0.00    -0.247 OA
HETATM   12  N   UNK N   1      21.353  15.924   2.966  0.00  0.00    -0.321 N 
HETATM   13  C   UNK N   1      20.611  14.789   2.491  0.00  0.00     0.129 C 
HETATM   14  C   UNK N   1      21.182  17.115   2.169  0.00  0.00     0.181 C 
HETATM   15  C   UNK N   1      20.096  15.203   1.121  0.00  0.00     0.022 C 
HETATM   16  C   UNK N   1      20.261  16.717   1.030  0.00  0.00     0.037 C 
HETATM   17  H   UNK N   1      23.172  16.986   5.428  0.00  0.00     0.164 HD
BRANCH  14  18
HETATM   18  C   UNK N   1      20.564  18.237   2.999  0.00  0.00     0.242 C 
HETATM   19  O   UNK N   1      19.886  17.923   3.969  0.00  0.00    -0.271 OA
HETATM   20  N   UNK N   1      20.715  19.562   2.683  0.00  0.00    -0.359 N 
HETATM   21  C   UNK N   1      20.063  20.577   3.473  0.00  0.00     0.152 C 
HETATM   22  C   UNK N   1      21.495  19.998   1.552  0.00  0.00     0.152 C 
ENDBRANCH  14  18
ENDBRANCH   8   9
ENDBRANCH   7   8
BRANCH   4  23
HETATM   23  C   UNK N   1      29.188  17.208   4.961  0.00  0.00     0.258 C 
HETATM   24  O   UNK N   1      29.986  17.306   4.039  0.00  0.00    -0.267 OA
HETATM   25  N   UNK N   1      29.644  17.099   6.271  0.00  0.00    -0.313 N 
HETATM   26  C   UNK N   1      28.708  16.754   7.334  0.00  0.00     0.132 C 
HETATM   27  C   UNK N   1      31.043  17.291   6.616  0.00  0.00     0.043 A 
HETATM   28  C   UNK N   1      28.225  17.965   8.131  0.00  0.00     0.021 C 
HETATM   29  C   UNK N   1      29.365  18.827   8.632  0.00  0.00     0.006 C 
HETATM   30  C   UNK N   1      30.505  17.930   9.067  0.00  0.00     0.041 C 
HETATM   31  C   UNK N   1      31.453  17.697   7.931  0.00  0.00    -0.031 A 
HETATM   32  C   UNK N   1      32.800  17.960   8.191  0.00  0.00     0.009 A 
HETATM   33  C   UNK N   1      33.762  17.817   7.196  0.00  0.00     0.001 A 
HETATM   34  C   UNK N   1      33.388  17.411   5.920  0.00  0.00     0.002 A 
HETATM   35  C   UNK N   1      32.046  17.164   5.634  0.00  0.00     0.030 A 
ENDBRANCH   4  23
TORSDOF 4
ENDMDL
MODEL 9
REMARK VINA RESULT:      -7.8      2.191      2.898
REMARK  4 active torsions:
REMARK  status: ('A' for Active; 'I' for Inactive)
REMARK    1  A    between atoms: C_4  and  C_22 
REMARK    2  A    between atoms: C_7  and  C_8 
REMARK    3  A    between atoms: C_8  and  N_9 
REMARK       I    between atoms: N_9  and  C_10 
REMARK       I    between atoms: C_10  and  N_12 
REMARK    4  A    between atoms: C_16  and  C_17 
REMARK       I    between atoms: C_17  and  N_19 
REMARK       I    between atoms: C_22  and  N_24 
ROOT
HETATM    1  C   UNK N   1      27.795  19.632   4.224  0.00  0.00     0.049 C 
HETATM    2  C   UNK N   1      27.113  18.417   4.757  0.00  0.00    -0.053 A 
HETATM    3  C   UNK N   1      25.888  18.059   4.227  0.00  0.00     0.024 A 
HETATM    4  C   UNK N   1      25.200  16.919   4.648  0.00  0.00     0.033 A 
HETATM    5  C   UNK N   1      25.763  16.144   5.676  0.00  0.00     0.017 A 
HETATM    6  C   UNK N   1      27.015  16.482   6.211  0.00  0.00     0.010 A 
HETATM    7  C   UNK N   1      27.693  17.621   5.749  0.00  0.00    -0.034 A 
ENDROOT
BRANCH   7   8
HETATM    8  C   UNK N   1      29.094  17.893   6.188  0.00  0.00     0.163 C 
BRANCH   8   9
HETATM    9  N   UNK N   1      29.201  17.276   7.489  0.00  0.00    -0.339 N 
HETATM   10  C   UNK N   1      30.361  17.283   8.204  0.00  0.00     0.319 C 
HETATM   11  O   UNK N   1      30.294  17.221   9.421  0.00  0.00    -0.247 OA
HETATM   12  N   UNK N   1      31.588  17.395   7.598  0.00  0.00    -0.321 N 
HETATM   13  C   UNK N   1      32.781  17.643   8.358  0.00  0.00     0.129 C 
HETATM   14  C   UNK N   1      31.820  17.186   6.189  0.00  0.00     0.181 C 
HETATM   15  C   UNK N   1      33.871  17.857   7.319  0.00  0.00     0.022 C 
HETATM   16  C   UNK N   1      33.317  17.347   5.991  0.00  0.00     0.037 C 
HETATM   17  H   UNK N   1      28.409  16.835   7.874  0.00  0.00     0.164 HD
BRANCH  14  18
HETATM   18  C   UNK N   1      31.365  15.790   5.768  0.00  0.00     0.242 C 
HETATM   19  O   UNK N   1      31.361  14.911   6.619  0.00  0.00    -0.271 OA
HETATM   20  N   UNK N   1      30.996  15.488   4.483  0.00  0.00    -0.359 N 
HETATM   21  C   UNK N   1      30.627  14.139   4.131  0.00  0.00     0.152 C 
HETATM   22  C   UNK N   1      30.986  16.476   3.434  0.00  0.00     0.152 C 
ENDBRANCH  14  18
ENDBRANCH   8   9
ENDBRANCH   7   8
BRANCH   4  23
HETATM   23  C   UNK N   1      23.825  16.616   4.130  0.00  0.00     0.258 C 
HETATM   24  O   UNK N   1      22.965  17.464   4.324  0.00  0.00    -0.267 OA
HETATM   25  N   UNK N   1      23.535  15.485   3.374  0.00  0.00    -0.313 N 
HETATM   26  C   UNK N   1      24.483  14.378   3.340  0.00  0.00     0.132 C 
HETATM   27  C   UNK N   1      22.291  15.354   2.634  0.00  0.00     0.043 A 
HETATM   28  C   UNK N   1      25.363  14.376   2.090  0.00  0.00     0.021 C 
HETATM   29  C   UNK N   1      24.560  14.481   0.810  0.00  0.00     0.006 C 
HETATM   30  C   UNK N   1      23.295  13.659   0.954  0.00  0.00     0.041 C 
HETATM   31  C   UNK N   1      22.178  14.505   1.483  0.00  0.00    -0.031 A 
HETATM   32  C   UNK N   1      20.990  14.483   0.746  0.00  0.00     0.009 A 
HETATM   33  C   UNK N   1      19.900  15.262   1.122  0.00  0.00     0.001 A 
HETATM   34  C   UNK N   1      19.985  16.081   2.242  0.00  0.00     0.002 A 
HETATM   35  C   UNK N   1      21.168  16.134   2.978  0.00  0.00     0.030 A 
ENDBRANCH   4  23
TORSDOF 4
ENDMDL
