MODEL 1
REMARK VINA RESULT:      -7.8      0.000      0.000
REMARK  5 active torsions:
REMARK  status: ('A' for Active; 'I' for Inactive)
REMARK    1  A    between atoms: C_3  and  C_28 
REMARK    2  A    between atoms: C_7  and  O_11 
REMARK    3  A    between atoms: O_11  and  C_12 
REMARK    4  A    between atoms: C_15  and  O_26 
REMARK    5  A    between atoms: C_16  and  O_24 
REMARK       I    between atoms: C_28  and  N_30 
ROOT
HETATM    1  C   UNK N   1      35.953  12.396  13.182  0.00  0.00     0.161 A 
HETATM    2  C   UNK N   1      35.797  12.664  14.539  0.00  0.00     0.045 A 
HETATM    3  C   UNK N   1      36.338  13.818  15.107  0.00  0.00     0.057 A 
HETATM    4  C   UNK N   1      36.180  14.090  16.464  0.00  0.00     0.102 A 
HETATM    5  C   UNK N   1      35.453  13.176  17.277  0.00  0.00     0.103 A 
HETATM    6  C   UNK N   1      34.913  12.012  16.692  0.00  0.00     0.070 A 
HETATM    7  C   UNK N   1      35.084  11.756  15.334  0.00  0.00     0.050 A 
HETATM    8  N   UNK N   1      34.564  10.631  14.775  0.00  0.00    -0.351 N 
ATOM      9  HN  UNK N   1      34.045   9.972  15.356  1.00  0.00     0.166 HD
HETATM   10  C   UNK N   1      34.728  10.379  13.451  0.00  0.00     0.182 A 
HETATM   11  N   UNK N   1      35.414  11.252  12.668  0.00  0.00    -0.332 N 
ATOM     12  HN  UNK N   1      35.528  11.049  11.674  1.00  0.00     0.168 HD
ENDROOT
BRANCH   1  13
HETATM   13  O   UNK N   1      36.643  13.277  12.408  0.00  0.00    -0.293 OA
BRANCH  13  14
HETATM   14  C   UNK N   1      36.139  14.155  11.506  0.00  0.00     0.080 A 
HETATM   15  C   UNK N   1      35.754  15.438  11.949  0.00  0.00     0.038 A 
HETATM   16  C   UNK N   1      35.249  16.386  11.041  0.00  0.00     0.018 A 
HETATM   17  C   UNK N   1      35.131  16.032   9.696  0.00  0.00     0.016 A 
HETATM   18  C   UNK N   1      34.705  16.711   8.551  0.00  0.00     0.074 A 
HETATM   19  C   UNK N   1      35.499  14.776   9.284  0.00  0.00     0.089 A 
HETATM   20  C   UNK N   1      34.860  15.768   7.519  0.00  0.00     0.066 A 
HETATM   21  C   UNK N   1      34.561  15.954   6.071  0.00  0.00     0.078 C 
HETATM   22  O   UNK N   1      35.330  14.640   7.998  0.00  0.00    -0.314 OA
HETATM   23  C   UNK N   1      36.001  13.822  10.147  0.00  0.00     0.075 A 
BRANCH  18  24
HETATM   24  C   UNK N   1      34.198  18.116   8.317  0.00  0.00     0.254 C 
HETATM   25  O   UNK N   1      35.027  19.007   8.237  0.00  0.00    -0.268 OA
HETATM   26  N   UNK N   1      32.892  18.473   8.186  0.00  0.00    -0.361 N 
HETATM   27  C   UNK N   1      31.751  17.606   8.205  0.00  0.00     0.149 C 
HETATM   28  H   UNK N   1      32.710  19.434   8.064  0.00  0.00     0.162 HD
ENDBRANCH  18  24
ENDBRANCH  13  14
ENDBRANCH   1  13
BRANCH   4  29
HETATM   29  O   UNK N   1      36.743  15.234  16.935  0.00  0.00    -0.353 OA
HETATM   30  C   UNK N   1      37.511  16.109  16.205  0.00  0.00     0.210 C 
ENDBRANCH   4  29
BRANCH   5  31
HETATM   31  O   UNK N   1      35.278  13.420  18.598  0.00  0.00    -0.353 OA
HETATM   32  C   UNK N   1      35.299  12.436  19.561  0.00  0.00     0.210 C 
ENDBRANCH   5  31
TORSDOF 5
ENDMDL
MODEL 2
REMARK VINA RESULT:      -7.4      7.433     11.720
REMARK  5 active torsions:
REMARK  status: ('A' for Active; 'I' for Inactive)
REMARK    1  A    between atoms: C_3  and  C_28 
REMARK    2  A    between atoms: C_7  and  O_11 
REMARK    3  A    between atoms: O_11  and  C_12 
REMARK    4  A    between atoms: C_15  and  O_26 
REMARK    5  A    between atoms: C_16  and  O_24 
REMARK       I    between atoms: C_28  and  N_30 
ROOT
HETATM    1  C   UNK N   1      28.849  17.067   7.189  0.00  0.00     0.161 A 
HETATM    2  C   UNK N   1      30.222  17.295   7.195  0.00  0.00     0.045 A 
HETATM    3  C   UNK N   1      30.988  17.079   6.050  0.00  0.00     0.057 A 
HETATM    4  C   UNK N   1      32.363  17.309   6.052  0.00  0.00     0.102 A 
HETATM    5  C   UNK N   1      32.987  17.775   7.243  0.00  0.00     0.103 A 
HETATM    6  C   UNK N   1      32.202  17.987   8.396  0.00  0.00     0.070 A 
HETATM    7  C   UNK N   1      30.830  17.748   8.374  0.00  0.00     0.050 A 
HETATM    8  N   UNK N   1      30.079  17.952   9.487  0.00  0.00    -0.351 N 
ATOM      9  HN  UNK N   1      30.523  18.283  10.344  1.00  0.00     0.166 HD
HETATM   10  C   UNK N   1      28.740  17.721   9.469  0.00  0.00     0.182 A 
HETATM   11  N   UNK N   1      28.136  17.284   8.333  0.00  0.00    -0.332 N 
ATOM     12  HN  UNK N   1      27.130  17.116   8.334  1.00  0.00     0.168 HD
ENDROOT
BRANCH   1  13
HETATM   13  O   UNK N   1      28.255  16.629   6.045  0.00  0.00    -0.293 OA
BRANCH  13  14
HETATM   14  C   UNK N   1      27.026  16.955   5.574  0.00  0.00     0.080 A 
HETATM   15  C   UNK N   1      25.955  16.064   5.793  0.00  0.00     0.038 A 
HETATM   16  C   UNK N   1      24.661  16.376   5.342  0.00  0.00     0.018 A 
HETATM   17  C   UNK N   1      24.456  17.581   4.668  0.00  0.00     0.016 A 
HETATM   18  C   UNK N   1      23.332  18.204   4.119  0.00  0.00     0.074 A 
HETATM   19  C   UNK N   1      25.512  18.432   4.451  0.00  0.00     0.089 A 
HETATM   20  C   UNK N   1      23.831  19.414   3.605  0.00  0.00     0.066 A 
HETATM   21  C   UNK N   1      23.065  20.486   2.907  0.00  0.00     0.078 C 
HETATM   22  O   UNK N   1      25.122  19.505   3.822  0.00  0.00    -0.314 OA
HETATM   23  C   UNK N   1      26.795  18.157   4.884  0.00  0.00     0.075 A 
BRANCH  18  24
HETATM   24  C   UNK N   1      21.874  17.812   4.040  0.00  0.00     0.254 C 
HETATM   25  O   UNK N   1      21.444  17.463   2.953  0.00  0.00    -0.268 OA
HETATM   26  N   UNK N   1      20.998  17.812   5.081  0.00  0.00    -0.361 N 
HETATM   27  C   UNK N   1      21.278  18.142   6.447  0.00  0.00     0.149 C 
HETATM   28  H   UNK N   1      20.069  17.557   4.873  0.00  0.00     0.162 HD
ENDBRANCH  18  24
ENDBRANCH  13  14
ENDBRANCH   1  13
BRANCH   4  29
HETATM   29  O   UNK N   1      33.032  17.069   4.895  0.00  0.00    -0.353 OA
HETATM   30  C   UNK N   1      32.533  17.250   3.627  0.00  0.00     0.210 C 
ENDBRANCH   4  29
BRANCH   5  31
HETATM   31  O   UNK N   1      34.320  18.014   7.272  0.00  0.00    -0.353 OA
HETATM   32  C   UNK N   1      34.962  18.609   8.335  0.00  0.00     0.210 C 
ENDBRANCH   5  31
TORSDOF 5
ENDMDL
MODEL 3
REMARK VINA RESULT:      -7.4      1.828      2.409
REMARK  5 active torsions:
REMARK  status: ('A' for Active; 'I' for Inactive)
REMARK    1  A    between atoms: C_3  and  C_28 
REMARK    2  A    between atoms: C_7  and  O_11 
REMARK    3  A    between atoms: O_11  and  C_12 
REMARK    4  A    between atoms: C_15  and  O_26 
REMARK    5  A    between atoms: C_16  and  O_24 
REMARK       I    between atoms: C_28  and  N_30 
ROOT
HETATM    1  C   UNK N   1      36.836  12.880  13.494  0.00  0.00     0.161 A 
HETATM    2  C   UNK N   1      36.487  12.341  14.729  0.00  0.00     0.045 A 
HETATM    3  C   UNK N   1      35.764  13.089  15.658  0.00  0.00     0.057 A 
HETATM    4  C   UNK N   1      35.411  12.551  16.894  0.00  0.00     0.102 A 
HETATM    5  C   UNK N   1      35.793  11.215  17.205  0.00  0.00     0.103 A 
HETATM    6  C   UNK N   1      36.526  10.469  16.258  0.00  0.00     0.070 A 
HETATM    7  C   UNK N   1      36.872  11.027  15.029  0.00  0.00     0.050 A 
HETATM    8  N   UNK N   1      37.580  10.305  14.122  0.00  0.00    -0.351 N 
ATOM      9  HN  UNK N   1      37.858   9.348  14.343  1.00  0.00     0.166 HD
HETATM   10  C   UNK N   1      37.918  10.844  12.922  0.00  0.00     0.182 A 
HETATM   11  N   UNK N   1      37.549  12.116  12.616  0.00  0.00    -0.332 N 
ATOM     12  HN  UNK N   1      37.809  12.507  11.710  1.00  0.00     0.168 HD
ENDROOT
BRANCH   1  13
HETATM   13  O   UNK N   1      36.461  14.154  13.198  0.00  0.00    -0.293 OA
BRANCH  13  14
HETATM   14  C   UNK N   1      35.798  14.587  12.097  0.00  0.00     0.080 A 
HETATM   15  C   UNK N   1      34.890  13.713  11.463  0.00  0.00     0.038 A 
HETATM   16  C   UNK N   1      34.166  14.131  10.333  0.00  0.00     0.018 A 
HETATM   17  C   UNK N   1      34.365  15.424   9.847  0.00  0.00     0.016 A 
HETATM   18  C   UNK N   1      33.814  16.157   8.793  0.00  0.00     0.074 A 
HETATM   19  C   UNK N   1      35.261  16.258  10.468  0.00  0.00     0.089 A 
HETATM   20  C   UNK N   1      34.451  17.408   8.878  0.00  0.00     0.066 A 
HETATM   21  C   UNK N   1      34.242  18.592   7.998  0.00  0.00     0.078 C 
HETATM   22  O   UNK N   1      35.299  17.421   9.881  0.00  0.00    -0.314 OA
HETATM   23  C   UNK N   1      35.988  15.880  11.581  0.00  0.00     0.075 A 
BRANCH  18  24
HETATM   24  C   UNK N   1      32.769  15.832   7.750  0.00  0.00     0.254 C 
HETATM   25  O   UNK N   1      33.125  15.183   6.780  0.00  0.00    -0.268 OA
HETATM   26  N   UNK N   1      31.460  16.202   7.800  0.00  0.00    -0.361 N 
HETATM   27  C   UNK N   1      30.806  16.929   8.847  0.00  0.00     0.149 C 
HETATM   28  H   UNK N   1      30.901  15.941   7.032  0.00  0.00     0.162 HD
ENDBRANCH  18  24
ENDBRANCH  13  14
ENDBRANCH   1  13
BRANCH   4  29
HETATM   29  O   UNK N   1      34.711  13.351  17.740  0.00  0.00    -0.353 OA
HETATM   30  C   UNK N   1      35.230  14.389  18.476  0.00  0.00     0.210 C 
ENDBRANCH   4  29
BRANCH   5  31
HETATM   31  O   UNK N   1      35.458  10.664  18.396  0.00  0.00    -0.353 OA
HETATM   32  C   UNK N   1      36.380  10.307  19.354  0.00  0.00     0.210 C 
ENDBRANCH   5  31
TORSDOF 5
ENDMDL
MODEL 4
REMARK VINA RESULT:      -7.3      3.100      9.624
REMARK  5 active torsions:
REMARK  status: ('A' for Active; 'I' for Inactive)
REMARK    1  A    between atoms: C_3  and  C_28 
REMARK    2  A    between atoms: C_7  and  O_11 
REMARK    3  A    between atoms: O_11  and  C_12 
REMARK    4  A    between atoms: C_15  and  O_26 
REMARK    5  A    between atoms: C_16  and  O_24 
REMARK       I    between atoms: C_28  and  N_30 
ROOT
HETATM    1  C   UNK N   1      31.666  17.463   8.301  0.00  0.00     0.161 A 
HETATM    2  C   UNK N   1      31.154  17.321   7.015  0.00  0.00     0.045 A 
HETATM    3  C   UNK N   1      32.006  17.194   5.917  0.00  0.00     0.057 A 
HETATM    4  C   UNK N   1      31.497  17.049   4.627  0.00  0.00     0.102 A 
HETATM    5  C   UNK N   1      30.087  17.028   4.435  0.00  0.00     0.103 A 
HETATM    6  C   UNK N   1      29.236  17.160   5.553  0.00  0.00     0.070 A 
HETATM    7  C   UNK N   1      29.765  17.307   6.833  0.00  0.00     0.050 A 
HETATM    8  N   UNK N   1      28.941  17.437   7.906  0.00  0.00    -0.351 N 
ATOM      9  HN  UNK N   1      27.930  17.425   7.771  1.00  0.00     0.166 HD
HETATM   10  C   UNK N   1      29.453  17.578   9.156  0.00  0.00     0.182 A 
HETATM   11  N   UNK N   1      30.798  17.591   9.348  0.00  0.00    -0.332 N 
ATOM     12  HN  UNK N   1      31.167  17.698  10.292  1.00  0.00     0.168 HD
ENDROOT
BRANCH   1  13
HETATM   13  O   UNK N   1      33.014  17.474   8.481  0.00  0.00    -0.293 OA
BRANCH  13  14
HETATM   14  C   UNK N   1      33.777  16.527   9.081  0.00  0.00     0.080 A 
HETATM   15  C   UNK N   1      34.931  16.928   9.786  0.00  0.00     0.038 A 
HETATM   16  C   UNK N   1      35.735  15.979  10.441  0.00  0.00     0.018 A 
HETATM   17  C   UNK N   1      35.374  14.633  10.376  0.00  0.00     0.016 A 
HETATM   18  C   UNK N   1      35.912  13.460  10.913  0.00  0.00     0.074 A 
HETATM   19  C   UNK N   1      34.255  14.257   9.675  0.00  0.00     0.089 A 
HETATM   20  C   UNK N   1      35.038  12.451  10.470  0.00  0.00     0.066 A 
HETATM   21  C   UNK N   1      35.125  10.990  10.751  0.00  0.00     0.078 C 
HETATM   22  O   UNK N   1      34.076  12.967   9.741  0.00  0.00    -0.314 OA
HETATM   23  C   UNK N   1      33.442  15.163   9.023  0.00  0.00     0.075 A 
BRANCH  18  24
HETATM   24  C   UNK N   1      37.114  13.186  11.788  0.00  0.00     0.254 C 
HETATM   25  O   UNK N   1      38.113  12.741  11.248  0.00  0.00    -0.268 OA
HETATM   26  N   UNK N   1      37.178  13.394  13.131  0.00  0.00    -0.361 N 
HETATM   27  C   UNK N   1      36.153  13.939  13.972  0.00  0.00     0.149 C 
HETATM   28  H   UNK N   1      38.021  13.142  13.574  0.00  0.00     0.162 HD
ENDBRANCH  18  24
ENDBRANCH  13  14
ENDBRANCH   1  13
BRANCH   4  29
HETATM   29  O   UNK N   1      32.397  16.935   3.616  0.00  0.00    -0.353 OA
HETATM   30  C   UNK N   1      33.139  15.815   3.325  0.00  0.00     0.210 C 
ENDBRANCH   4  29
BRANCH   5  31
HETATM   31  O   UNK N   1      29.565  16.882   3.194  0.00  0.00    -0.353 OA
HETATM   32  C   UNK N   1      29.225  15.662   2.651  0.00  0.00     0.210 C 
ENDBRANCH   5  31
TORSDOF 5
ENDMDL
MODEL 5
REMARK VINA RESULT:      -7.3      7.747     13.728
REMARK  5 active torsions:
REMARK  status: ('A' for Active; 'I' for Inactive)
REMARK    1  A    between atoms: C_3  and  C_28 
REMARK    2  A    between atoms: C_7  and  O_11 
REMARK    3  A    between atoms: O_11  and  C_12 
REMARK    4  A    between atoms: C_15  and  O_26 
REMARK    5  A    between atoms: C_16  and  O_24 
REMARK       I    between atoms: C_28  and  N_30 
ROOT
HETATM    1  C   UNK N   1      26.020  18.683   4.532  0.00  0.00     0.161 A 
HETATM    2  C   UNK N   1      24.642  18.744   4.346  0.00  0.00     0.045 A 
HETATM    3  C   UNK N   1      23.793  17.845   4.991  0.00  0.00     0.057 A 
HETATM    4  C   UNK N   1      22.412  17.905   4.810  0.00  0.00     0.102 A 
HETATM    5  C   UNK N   1      21.867  18.905   3.956  0.00  0.00     0.103 A 
HETATM    6  C   UNK N   1      22.736  19.807   3.306  0.00  0.00     0.070 A 
HETATM    7  C   UNK N   1      24.113  19.727   3.498  0.00  0.00     0.050 A 
HETATM    8  N   UNK N   1      24.946  20.597   2.869  0.00  0.00    -0.351 N 
ATOM      9  HN  UNK N   1      24.559  21.312   2.254  1.00  0.00     0.166 HD
HETATM   10  C   UNK N   1      26.289  20.524   3.055  0.00  0.00     0.182 A 
HETATM   11  N   UNK N   1      26.816  19.578   3.876  0.00  0.00    -0.332 N 
ATOM     12  HN  UNK N   1      27.827  19.536   4.006  1.00  0.00     0.168 HD
ENDROOT
BRANCH   1  13
HETATM   13  O   UNK N   1      26.536  17.731   5.356  0.00  0.00    -0.293 OA
BRANCH  13  14
HETATM   14  C   UNK N   1      27.809  17.635   5.813  0.00  0.00     0.080 A 
HETATM   15  C   UNK N   1      28.090  18.040   7.135  0.00  0.00     0.038 A 
HETATM   16  C   UNK N   1      29.392  17.934   7.654  0.00  0.00     0.018 A 
HETATM   17  C   UNK N   1      30.403  17.428   6.835  0.00  0.00     0.016 A 
HETATM   18  C   UNK N   1      31.764  17.169   7.025  0.00  0.00     0.074 A 
HETATM   19  C   UNK N   1      30.116  17.050   5.547  0.00  0.00     0.089 A 
HETATM   20  C   UNK N   1      32.185  16.643   5.791  0.00  0.00     0.066 A 
HETATM   21  C   UNK N   1      33.555  16.184   5.423  0.00  0.00     0.078 C 
HETATM   22  O   UNK N   1      31.180  16.593   4.948  0.00  0.00    -0.314 OA
HETATM   23  C   UNK N   1      28.848  17.138   5.006  0.00  0.00     0.075 A 
BRANCH  18  24
HETATM   24  C   UNK N   1      32.687  17.339   8.210  0.00  0.00     0.254 C 
HETATM   25  O   UNK N   1      33.306  18.386   8.294  0.00  0.00    -0.268 OA
HETATM   26  N   UNK N   1      32.887  16.421   9.194  0.00  0.00    -0.361 N 
HETATM   27  C   UNK N   1      32.249  15.145   9.330  0.00  0.00     0.149 C 
HETATM   28  H   UNK N   1      33.541  16.660   9.891  0.00  0.00     0.162 HD
ENDBRANCH  18  24
ENDBRANCH  13  14
ENDBRANCH   1  13
BRANCH   4  29
HETATM   29  O   UNK N   1      21.660  16.989   5.473  0.00  0.00    -0.353 OA
HETATM   30  C   UNK N   1      21.110  17.155   6.722  0.00  0.00     0.210 C 
ENDBRANCH   4  29
BRANCH   5  31
HETATM   31  O   UNK N   1      20.528  18.991   3.766  0.00  0.00    -0.353 OA
HETATM   32  C   UNK N   1      19.954  19.512   2.628  0.00  0.00     0.210 C 
ENDBRANCH   5  31
TORSDOF 5
ENDMDL
MODEL 6
REMARK VINA RESULT:      -7.2      8.286     13.218
REMARK  5 active torsions:
REMARK  status: ('A' for Active; 'I' for Inactive)
REMARK    1  A    between atoms: C_3  and  C_28 
REMARK    2  A    between atoms: C_7  and  O_11 
REMARK    3  A    between atoms: O_11  and  C_12 
REMARK    4  A    between atoms: C_15  and  O_26 
REMARK    5  A    between atoms: C_16  and  O_24 
REMARK       I    between atoms: C_28  and  N_30 
ROOT
HETATM    1  C   UNK N   1      27.953  18.523   5.935  0.00  0.00     0.161 A 
HETATM    2  C   UNK N   1      29.174  17.856   5.973  0.00  0.00     0.045 A 
HETATM    3  C   UNK N   1      29.737  17.325   4.812  0.00  0.00     0.057 A 
HETATM    4  C   UNK N   1      30.961  16.660   4.847  0.00  0.00     0.102 A 
HETATM    5  C   UNK N   1      31.644  16.527   6.088  0.00  0.00     0.103 A 
HETATM    6  C   UNK N   1      31.064  17.065   7.256  0.00  0.00     0.070 A 
HETATM    7  C   UNK N   1      29.838  17.724   7.201  0.00  0.00     0.050 A 
HETATM    8  N   UNK N   1      29.283  18.239   8.329  0.00  0.00    -0.351 N 
ATOM      9  HN  UNK N   1      29.768  18.142   9.221  1.00  0.00     0.166 HD
HETATM   10  C   UNK N   1      28.088  18.883   8.278  0.00  0.00     0.182 A 
HETATM   11  N   UNK N   1      27.435  19.021   7.095  0.00  0.00    -0.332 N 
ATOM     12  HN  UNK N   1      26.539  19.509   7.073  1.00  0.00     0.168 HD
ENDROOT
BRANCH   1  13
HETATM   13  O   UNK N   1      27.308  18.655   4.744  0.00  0.00    -0.293 OA
BRANCH  13  14
HETATM   14  C   UNK N   1      25.971  18.738   4.533  0.00  0.00     0.080 A 
HETATM   15  C   UNK N   1      25.468  19.814   3.774  0.00  0.00     0.038 A 
HETATM   16  C   UNK N   1      24.090  19.923   3.513  0.00  0.00     0.018 A 
HETATM   17  C   UNK N   1      23.230  18.951   4.024  0.00  0.00     0.016 A 
HETATM   18  C   UNK N   1      21.851  18.739   3.942  0.00  0.00     0.074 A 
HETATM   19  C   UNK N   1      23.734  17.916   4.773  0.00  0.00     0.089 A 
HETATM   20  C   UNK N   1      21.644  17.556   4.675  0.00  0.00     0.066 A 
HETATM   21  C   UNK N   1      20.351  16.856   4.917  0.00  0.00     0.078 C 
HETATM   22  O   UNK N   1      22.783  17.107   5.148  0.00  0.00    -0.314 OA
HETATM   23  C   UNK N   1      25.081  17.777   5.045  0.00  0.00     0.075 A 
BRANCH  18  24
HETATM   24  C   UNK N   1      20.733  19.492   3.257  0.00  0.00     0.254 C 
HETATM   25  O   UNK N   1      20.377  20.547   3.756  0.00  0.00    -0.268 OA
HETATM   26  N   UNK N   1      20.089  19.095   2.127  0.00  0.00    -0.361 N 
HETATM   27  C   UNK N   1      20.355  17.922   1.346  0.00  0.00     0.149 C 
HETATM   28  H   UNK N   1      19.360  19.676   1.810  0.00  0.00     0.162 HD
ENDBRANCH  18  24
ENDBRANCH  13  14
ENDBRANCH   1  13
BRANCH   4  29
HETATM   29  O   UNK N   1      31.433  16.171   3.671  0.00  0.00    -0.353 OA
HETATM   30  C   UNK N   1      32.198  16.864   2.763  0.00  0.00     0.210 C 
ENDBRANCH   4  29
BRANCH   5  31
HETATM   31  O   UNK N   1      32.839  15.890   6.150  0.00  0.00    -0.353 OA
HETATM   32  C   UNK N   1      34.050  16.541   6.081  0.00  0.00     0.210 C 
ENDBRANCH   5  31
TORSDOF 5
ENDMDL
MODEL 7
REMARK VINA RESULT:      -7.2      2.628      8.994
REMARK  5 active torsions:
REMARK  status: ('A' for Active; 'I' for Inactive)
REMARK    1  A    between atoms: C_3  and  C_28 
REMARK    2  A    between atoms: C_7  and  O_11 
REMARK    3  A    between atoms: O_11  and  C_12 
REMARK    4  A    between atoms: C_15  and  O_26 
REMARK    5  A    between atoms: C_16  and  O_24 
REMARK       I    between atoms: C_28  and  N_30 
ROOT
HETATM    1  C   UNK N   1      33.874  16.795   7.375  0.00  0.00     0.161 A 
HETATM    2  C   UNK N   1      32.513  17.042   7.226  0.00  0.00     0.045 A 
HETATM    3  C   UNK N   1      31.746  17.495   8.299  0.00  0.00     0.057 A 
HETATM    4  C   UNK N   1      30.383  17.747   8.152  0.00  0.00     0.102 A 
HETATM    5  C   UNK N   1      29.771  17.540   6.884  0.00  0.00     0.103 A 
HETATM    6  C   UNK N   1      30.556  17.079   5.806  0.00  0.00     0.070 A 
HETATM    7  C   UNK N   1      31.917  16.830   5.975  0.00  0.00     0.050 A 
HETATM    8  N   UNK N   1      32.668  16.384   4.935  0.00  0.00    -0.351 N 
ATOM      9  HN  UNK N   1      32.232  16.231   4.025  1.00  0.00     0.166 HD
HETATM   10  C   UNK N   1      33.995  16.142   5.095  0.00  0.00     0.182 A 
HETATM   11  N   UNK N   1      34.587  16.345   6.300  0.00  0.00    -0.332 N 
ATOM     12  HN  UNK N   1      35.584  16.160   6.405  1.00  0.00     0.168 HD
ENDROOT
BRANCH   1  13
HETATM   13  O   UNK N   1      34.456  17.002   8.587  0.00  0.00    -0.293 OA
BRANCH  13  14
HETATM   14  C   UNK N   1      34.625  16.102   9.588  0.00  0.00     0.080 A 
HETATM   15  C   UNK N   1      34.042  14.824   9.459  0.00  0.00     0.038 A 
HETATM   16  C   UNK N   1      34.213  13.856  10.464  0.00  0.00     0.018 A 
HETATM   17  C   UNK N   1      34.964  14.184  11.593  0.00  0.00     0.016 A 
HETATM   18  C   UNK N   1      35.346  13.480  12.739  0.00  0.00     0.074 A 
HETATM   19  C   UNK N   1      35.514  15.436  11.710  0.00  0.00     0.089 A 
HETATM   20  C   UNK N   1      36.117  14.406  13.465  0.00  0.00     0.066 A 
HETATM   21  C   UNK N   1      36.789  14.192  14.778  0.00  0.00     0.078 C 
HETATM   22  O   UNK N   1      36.188  15.547  12.820  0.00  0.00    -0.314 OA
HETATM   23  C   UNK N   1      35.368  16.410  10.741  0.00  0.00     0.075 A 
BRANCH  18  24
HETATM   24  C   UNK N   1      35.092  12.067  13.211  0.00  0.00     0.254 C 
HETATM   25  O   UNK N   1      34.161  11.890  13.980  0.00  0.00    -0.268 OA
HETATM   26  N   UNK N   1      35.813  10.971  12.850  0.00  0.00    -0.361 N 
HETATM   27  C   UNK N   1      36.918  10.924  11.938  0.00  0.00     0.149 C 
HETATM   28  H   UNK N   1      35.547  10.116  13.260  0.00  0.00     0.162 HD
ENDBRANCH  18  24
ENDBRANCH  13  14
ENDBRANCH   1  13
BRANCH   4  29
HETATM   29  O   UNK N   1      29.712  18.182   9.251  0.00  0.00    -0.353 OA
HETATM   30  C   UNK N   1      29.032  17.387  10.142  0.00  0.00     0.210 C 
ENDBRANCH   4  29
BRANCH   5  31
HETATM   31  O   UNK N   1      28.450  17.783   6.711  0.00  0.00    -0.353 OA
HETATM   32  C   UNK N   1      27.509  16.789   6.560  0.00  0.00     0.210 C 
ENDBRANCH   5  31
TORSDOF 5
ENDMDL
MODEL 8
REMARK VINA RESULT:      -7.2      5.747     11.847
REMARK  5 active torsions:
REMARK  status: ('A' for Active; 'I' for Inactive)
REMARK    1  A    between atoms: C_3  and  C_28 
REMARK    2  A    between atoms: C_7  and  O_11 
REMARK    3  A    between atoms: O_11  and  C_12 
REMARK    4  A    between atoms: C_15  and  O_26 
REMARK    5  A    between atoms: C_16  and  O_24 
REMARK       I    between atoms: C_28  and  N_30 
ROOT
HETATM    1  C   UNK N   1      27.231  18.066   6.324  0.00  0.00     0.161 A 
HETATM    2  C   UNK N   1      26.765  17.360   5.219  0.00  0.00     0.045 A 
HETATM    3  C   UNK N   1      27.041  16.001   5.070  0.00  0.00     0.057 A 
HETATM    4  C   UNK N   1      26.573  15.291   3.966  0.00  0.00     0.102 A 
HETATM    5  C   UNK N   1      25.799  15.967   2.982  0.00  0.00     0.103 A 
HETATM    6  C   UNK N   1      25.528  17.342   3.142  0.00  0.00     0.070 A 
HETATM    7  C   UNK N   1      26.008  18.035   4.251  0.00  0.00     0.050 A 
HETATM    8  N   UNK N   1      25.747  19.360   4.399  0.00  0.00    -0.351 N 
ATOM      9  HN  UNK N   1      25.195  19.849   3.694  1.00  0.00     0.166 HD
HETATM   10  C   UNK N   1      26.212  20.039   5.480  0.00  0.00     0.182 A 
HETATM   11  N   UNK N   1      26.944  19.397   6.428  0.00  0.00    -0.332 N 
ATOM     12  HN  UNK N   1      27.286  19.920   7.234  1.00  0.00     0.168 HD
ENDROOT
BRANCH   1  13
HETATM   13  O   UNK N   1      27.964  17.414   7.266  0.00  0.00    -0.293 OA
BRANCH  13  14
HETATM   14  C   UNK N   1      29.307  17.460   7.448  0.00  0.00     0.080 A 
HETATM   15  C   UNK N   1      29.828  18.292   8.460  0.00  0.00     0.038 A 
HETATM   16  C   UNK N   1      31.214  18.351   8.696  0.00  0.00     0.018 A 
HETATM   17  C   UNK N   1      32.063  17.575   7.906  0.00  0.00     0.016 A 
HETATM   18  C   UNK N   1      33.446  17.375   7.880  0.00  0.00     0.074 A 
HETATM   19  C   UNK N   1      31.541  16.779   6.916  0.00  0.00     0.089 A 
HETATM   20  C   UNK N   1      33.636  16.446   6.841  0.00  0.00     0.066 A 
HETATM   21  C   UNK N   1      34.926  15.864   6.372  0.00  0.00     0.078 C 
HETATM   22  O   UNK N   1      32.485  16.124   6.300  0.00  0.00    -0.314 OA
HETATM   23  C   UNK N   1      30.186  16.696   6.660  0.00  0.00     0.075 A 
BRANCH  18  24
HETATM   24  C   UNK N   1      34.581  17.928   8.711  0.00  0.00     0.254 C 
HETATM   25  O   UNK N   1      35.030  19.017   8.394  0.00  0.00    -0.268 OA
HETATM   26  N   UNK N   1      35.146  17.316   9.786  0.00  0.00    -0.361 N 
HETATM   27  C   UNK N   1      34.766  16.060  10.365  0.00  0.00     0.149 C 
HETATM   28  H   UNK N   1      35.899  17.786  10.214  0.00  0.00     0.162 HD
ENDBRANCH  18  24
ENDBRANCH  13  14
ENDBRANCH   1  13
BRANCH   4  29
HETATM   29  O   UNK N   1      26.892  13.972   3.899  0.00  0.00    -0.353 OA
HETATM   30  C   UNK N   1      28.044  13.451   3.359  0.00  0.00     0.210 C 
ENDBRANCH   4  29
BRANCH   5  31
HETATM   31  O   UNK N   1      25.325  15.300   1.902  0.00  0.00    -0.353 OA
HETATM   32  C   UNK N   1      24.147  14.587   1.907  0.00  0.00     0.210 C 
ENDBRANCH   5  31
TORSDOF 5
ENDMDL
MODEL 9
REMARK VINA RESULT:      -7.0      3.158      4.528
REMARK  5 active torsions:
REMARK  status: ('A' for Active; 'I' for Inactive)
REMARK    1  A    between atoms: C_3  and  C_28 
REMARK    2  A    between atoms: C_7  and  O_11 
REMARK    3  A    between atoms: O_11  and  C_12 
REMARK    4  A    between atoms: C_15  and  O_26 
REMARK    5  A    between atoms: C_16  and  O_24 
REMARK       I    between atoms: C_28  and  N_30 
ROOT
HETATM    1  C   UNK N   1      35.756  14.640  10.636  0.00  0.00     0.161 A 
HETATM    2  C   UNK N   1      36.002  13.670  11.604  0.00  0.00     0.045 A 
HETATM    3  C   UNK N   1      35.029  13.338  12.547  0.00  0.00     0.057 A 
HETATM    4  C   UNK N   1      35.271  12.366  13.515  0.00  0.00     0.102 A 
HETATM    5  C   UNK N   1      36.530  11.702  13.534  0.00  0.00     0.103 A 
HETATM    6  C   UNK N   1      37.507  12.048  12.576  0.00  0.00     0.070 A 
HETATM    7  C   UNK N   1      37.246  13.025  11.619  0.00  0.00     0.050 A 
HETATM    8  N   UNK N   1      38.191  13.356  10.701  0.00  0.00    -0.351 N 
ATOM      9  HN  UNK N   1      39.096  12.885  10.713  1.00  0.00     0.166 HD
HETATM   10  C   UNK N   1      37.940  14.308   9.764  0.00  0.00     0.182 A 
HETATM   11  N   UNK N   1      36.738  14.940   9.736  0.00  0.00    -0.332 N 
ATOM     12  HN  UNK N   1      36.564  15.652   9.026  1.00  0.00     0.168 HD
ENDROOT
BRANCH   1  13
HETATM   13  O   UNK N   1      34.548  15.266  10.617  0.00  0.00    -0.293 OA
BRANCH  13  14
HETATM   14  C   UNK N   1      33.774  15.537   9.538  0.00  0.00     0.080 A 
HETATM   15  C   UNK N   1      33.628  16.878   9.124  0.00  0.00     0.038 A 
HETATM   16  C   UNK N   1      32.853  17.197   7.995  0.00  0.00     0.018 A 
HETATM   17  C   UNK N   1      32.226  16.165   7.296  0.00  0.00     0.016 A 
HETATM   18  C   UNK N   1      31.426  16.119   6.151  0.00  0.00     0.074 A 
HETATM   19  C   UNK N   1      32.368  14.867   7.718  0.00  0.00     0.089 A 
HETATM   20  C   UNK N   1      31.149  14.750   5.985  0.00  0.00     0.066 A 
HETATM   21  C   UNK N   1      30.334  14.116   4.910  0.00  0.00     0.078 C 
HETATM   22  O   UNK N   1      31.724  14.049   6.934  0.00  0.00    -0.314 OA
HETATM   23  C   UNK N   1      33.124  14.517   8.821  0.00  0.00     0.075 A 
BRANCH  18  24
HETATM   24  C   UNK N   1      30.918  17.185   5.207  0.00  0.00     0.254 C 
HETATM   25  O   UNK N   1      29.869  17.738   5.496  0.00  0.00    -0.268 OA
HETATM   26  N   UNK N   1      31.532  17.584   4.061  0.00  0.00    -0.361 N 
HETATM   27  C   UNK N   1      32.780  17.112   3.539  0.00  0.00     0.149 C 
HETATM   28  H   UNK N   1      31.067  18.273   3.531  0.00  0.00     0.162 HD
ENDBRANCH  18  24
ENDBRANCH  13  14
ENDBRANCH   1  13
BRANCH   4  29
HETATM   29  O   UNK N   1      34.270  12.108  14.397  0.00  0.00    -0.353 OA
HETATM   30  C   UNK N   1      33.576  10.926  14.500  0.00  0.00     0.210 C 
ENDBRANCH   4  29
BRANCH   5  31
HETATM   31  O   UNK N   1      36.790  10.747  14.460  0.00  0.00    -0.353 OA
HETATM   32  C   UNK N   1      38.055  10.280  14.734  0.00  0.00     0.210 C 
ENDBRANCH   5  31
TORSDOF 5
ENDMDL
