MODEL 1
REMARK VINA RESULT:      -7.6      0.000      0.000
REMARK  5 active torsions:
REMARK  status: ('A' for Active; 'I' for Inactive)
REMARK    1  A    between atoms: C_2  and  N_3 
REMARK    2  A    between atoms: N_3  and  C_4 
REMARK    3  A    between atoms: C_8  and  O_10 
REMARK    4  A    between atoms: C_20  and  O_26 
REMARK    5  A    between atoms: C_21  and  O_25 
ROOT
HETATM    1  C   UNK N   1      28.011  18.995   7.381  0.00  0.00     0.031 A 
HETATM    2  C   UNK N   1      29.153  18.752   8.139  0.00  0.00     0.041 A 
HETATM    3  C   UNK N   1      30.112  17.819   7.732  0.00  0.00    -0.015 A 
HETATM    4  C   UNK N   1      29.898  17.071   6.522  0.00  0.00     0.083 A 
HETATM    5  C   UNK N   1      28.755  17.367   5.741  0.00  0.00     0.085 A 
HETATM    6  C   UNK N   1      27.828  18.317   6.174  0.00  0.00     0.066 A 
HETATM    7  C   UNK N   1      30.818  15.963   6.100  0.00  0.00     0.297 C 
HETATM    8  O   UNK N   1      31.545  15.435   6.923  0.00  0.00    -0.259 OA
HETATM    9  O   UNK N   1      30.784  15.465   4.833  0.00  0.00    -0.312 OA
HETATM   10  C   UNK N   1      31.679  14.494   4.422  0.00  0.00     0.135 C 
HETATM   11  C   UNK N   1      33.110  15.059   4.392  0.00  0.00     0.033 C 
HETATM   12  C   UNK N   1      34.152  13.986   4.360  0.00  0.00    -0.016 C 
HETATM   13  C   UNK N   1      35.084  13.796   5.312  0.00  0.00     0.049 C 
HETATM   14  C   UNK N   1      35.298  14.568   6.571  0.00  0.00     0.180 C 
HETATM   15  O   UNK N   1      36.174  14.188   7.332  0.00  0.00    -0.290 OA
HETATM   16  C   UNK N   1      34.474  15.784   6.939  0.00  0.00     0.220 C 
HETATM   17  C   UNK N   1      34.650  16.262   8.399  0.00  0.00     0.158 C 
HETATM   18  C   UNK N   1      33.829  17.516   8.760  0.00  0.00     0.061 C 
HETATM   19  C   UNK N   1      32.543  17.617   7.998  0.00  0.00    -0.023 C 
HETATM   20  C   UNK N   1      31.340  17.739   8.567  0.00  0.00     0.009 C 
HETATM   21  C   UNK N   1      33.321  16.040   3.249  0.00  0.00     0.017 C 
HETATM   22  C   UNK N   1      31.247  13.904   3.087  0.00  0.00     0.041 C 
ENDROOT
BRANCH   1  23
HETATM   23  N   UNK N   1      27.043  19.913   7.862  0.00  0.00    -0.390 N 
HETATM   24  H   UNK N   1      26.805  19.895   8.816  0.00  0.00     0.159 HD
BRANCH  23  25
HETATM   25  C   UNK N   1      26.396  20.873   7.002  0.00  0.00     0.115 C 
HETATM   26  C   UNK N   1      27.440  21.722   6.309  0.00  0.00     0.026 C 
ENDBRANCH  23  25
ENDBRANCH   1  23
BRANCH   5  27
HETATM   27  O   UNK N   1      28.515  16.720   4.587  0.00  0.00    -0.360 OA
HETATM   28  H   UNK N   1      27.640  16.659   4.256  0.00  0.00     0.217 HD
ENDBRANCH   5  27
BRANCH  17  29
HETATM   29  O   UNK N   1      34.338  15.232   9.288  0.00  0.00    -0.392 OA
HETATM   30  H   UNK N   1      34.217  14.373   9.720  0.00  0.00     0.210 HD
ENDBRANCH  17  29
BRANCH  16  31
HETATM   31  O   UNK N   1      34.760  16.826   6.055  0.00  0.00    -0.385 OA
HETATM   32  H   UNK N   1      34.753  17.448   5.310  0.00  0.00     0.210 HD
ENDBRANCH  16  31
TORSDOF 5
ENDMDL
MODEL 2
REMARK VINA RESULT:      -7.0      1.765      3.857
REMARK  5 active torsions:
REMARK  status: ('A' for Active; 'I' for Inactive)
REMARK    1  A    between atoms: C_2  and  N_3 
REMARK    2  A    between atoms: N_3  and  C_4 
REMARK    3  A    between atoms: C_8  and  O_10 
REMARK    4  A    between atoms: C_20  and  O_26 
REMARK    5  A    between atoms: C_21  and  O_25 
ROOT
HETATM    1  C   UNK N   1      28.188  18.818   7.155  0.00  0.00     0.031 A 
HETATM    2  C   UNK N   1      28.672  18.309   5.954  0.00  0.00     0.041 A 
HETATM    3  C   UNK N   1      29.912  17.666   5.883  0.00  0.00    -0.015 A 
HETATM    4  C   UNK N   1      30.717  17.555   7.069  0.00  0.00     0.083 A 
HETATM    5  C   UNK N   1      30.186  18.036   8.290  0.00  0.00     0.085 A 
HETATM    6  C   UNK N   1      28.937  18.659   8.323  0.00  0.00     0.066 A 
HETATM    7  C   UNK N   1      32.111  16.997   7.035  0.00  0.00     0.297 C 
HETATM    8  O   UNK N   1      32.720  16.959   5.980  0.00  0.00    -0.259 OA
HETATM    9  O   UNK N   1      32.749  16.627   8.179  0.00  0.00    -0.312 OA
HETATM   10  C   UNK N   1      34.004  16.047   8.144  0.00  0.00     0.135 C 
HETATM   11  C   UNK N   1      33.938  14.662   7.477  0.00  0.00     0.033 C 
HETATM   12  C   UNK N   1      35.281  14.169   7.041  0.00  0.00    -0.016 C 
HETATM   13  C   UNK N   1      35.620  13.901   5.765  0.00  0.00     0.049 C 
HETATM   14  C   UNK N   1      34.784  14.024   4.535  0.00  0.00     0.180 C 
HETATM   15  O   UNK N   1      35.312  13.783   3.461  0.00  0.00    -0.290 OA
HETATM   16  C   UNK N   1      33.330  14.441   4.569  0.00  0.00     0.220 C 
HETATM   17  C   UNK N   1      32.728  14.790   3.188  0.00  0.00     0.158 C 
HETATM   18  C   UNK N   1      31.240  15.187   3.226  0.00  0.00     0.061 C 
HETATM   19  C   UNK N   1      30.842  15.862   4.502  0.00  0.00    -0.023 C 
HETATM   20  C   UNK N   1      30.261  17.064   4.568  0.00  0.00     0.009 C 
HETATM   21  C   UNK N   1      33.250  13.628   8.357  0.00  0.00     0.017 C 
HETATM   22  C   UNK N   1      34.609  16.005   9.539  0.00  0.00     0.041 C 
ENDROOT
BRANCH   1  23
HETATM   23  N   UNK N   1      26.949  19.507   7.166  0.00  0.00    -0.390 N 
HETATM   24  H   UNK N   1      26.382  19.450   7.968  0.00  0.00     0.159 HD
BRANCH  23  25
HETATM   25  C   UNK N   1      26.490  20.289   6.045  0.00  0.00     0.115 C 
HETATM   26  C   UNK N   1      27.063  21.687   6.131  0.00  0.00     0.026 C 
ENDBRANCH  23  25
ENDBRANCH   1  23
BRANCH   5  27
HETATM   27  O   UNK N   1      30.882  17.937   9.437  0.00  0.00    -0.360 OA
HETATM   28  H   UNK N   1      30.437  17.751  10.242  0.00  0.00     0.217 HD
ENDBRANCH   5  27
BRANCH  17  29
HETATM   29  O   UNK N   1      33.465  15.808   2.581  0.00  0.00    -0.392 OA
HETATM   30  H   UNK N   1      33.913  16.391   1.949  0.00  0.00     0.210 HD
ENDBRANCH  17  29
BRANCH  16  31
HETATM   31  O   UNK N   1      32.572  13.441   5.183  0.00  0.00    -0.385 OA
HETATM   32  H   UNK N   1      31.900  12.955   5.685  0.00  0.00     0.210 HD
ENDBRANCH  16  31
TORSDOF 5
ENDMDL
MODEL 3
REMARK VINA RESULT:      -7.0     15.719     17.784
REMARK  5 active torsions:
REMARK  status: ('A' for Active; 'I' for Inactive)
REMARK    1  A    between atoms: C_2  and  N_3 
REMARK    2  A    between atoms: N_3  and  C_4 
REMARK    3  A    between atoms: C_8  and  O_10 
REMARK    4  A    between atoms: C_20  and  O_26 
REMARK    5  A    between atoms: C_21  and  O_25 
ROOT
HETATM    1  C   UNK N   1      26.725  28.448  -4.157  0.00  0.00     0.031 A 
HETATM    2  C   UNK N   1      26.094  27.221  -4.335  0.00  0.00     0.041 A 
HETATM    3  C   UNK N   1      26.131  26.554  -5.563  0.00  0.00    -0.015 A 
HETATM    4  C   UNK N   1      26.809  27.164  -6.675  0.00  0.00     0.083 A 
HETATM    5  C   UNK N   1      27.485  28.390  -6.462  0.00  0.00     0.085 A 
HETATM    6  C   UNK N   1      27.437  29.017  -5.215  0.00  0.00     0.066 A 
HETATM    7  C   UNK N   1      26.773  26.568  -8.053  0.00  0.00     0.297 C 
HETATM    8  O   UNK N   1      25.897  25.771  -8.343  0.00  0.00    -0.259 OA
HETATM    9  O   UNK N   1      27.639  26.977  -9.020  0.00  0.00    -0.312 OA
HETATM   10  C   UNK N   1      27.655  26.379 -10.266  0.00  0.00     0.135 C 
HETATM   11  C   UNK N   1      28.129  24.919 -10.157  0.00  0.00     0.033 C 
HETATM   12  C   UNK N   1      27.785  24.110 -11.367  0.00  0.00    -0.016 C 
HETATM   13  C   UNK N   1      26.982  23.029 -11.361  0.00  0.00     0.049 C 
HETATM   14  C   UNK N   1      26.274  22.402 -10.206  0.00  0.00     0.180 C 
HETATM   15  O   UNK N   1      25.542  21.452 -10.433  0.00  0.00    -0.290 OA
HETATM   16  C   UNK N   1      26.421  22.901  -8.785  0.00  0.00     0.220 C 
HETATM   17  C   UNK N   1      25.393  22.315  -7.789  0.00  0.00     0.158 C 
HETATM   18  C   UNK N   1      25.565  22.806  -6.338  0.00  0.00     0.061 C 
HETATM   19  C   UNK N   1      26.114  24.197  -6.247  0.00  0.00    -0.023 C 
HETATM   20  C   UNK N   1      25.521  25.198  -5.589  0.00  0.00     0.009 C 
HETATM   21  C   UNK N   1      29.616  24.815  -9.852  0.00  0.00     0.017 C 
HETATM   22  C   UNK N   1      28.487  27.201 -11.240  0.00  0.00     0.041 C 
ENDROOT
BRANCH   1  23
HETATM   23  N   UNK N   1      26.615  29.110  -2.907  0.00  0.00    -0.390 N 
HETATM   24  H   UNK N   1      25.924  28.813  -2.273  0.00  0.00     0.159 HD
BRANCH  23  25
HETATM   25  C   UNK N   1      27.479  30.201  -2.533  0.00  0.00     0.115 C 
HETATM   26  C   UNK N   1      28.248  29.835  -1.281  0.00  0.00     0.026 C 
ENDBRANCH  23  25
ENDBRANCH   1  23
BRANCH   5  27
HETATM   27  O   UNK N   1      28.157  28.996  -7.457  0.00  0.00    -0.360 OA
HETATM   28  H   UNK N   1      27.944  28.807  -8.350  0.00  0.00     0.217 HD
ENDBRANCH   5  27
BRANCH  17  29
HETATM   29  O   UNK N   1      24.093  22.583  -8.218  0.00  0.00    -0.392 OA
HETATM   30  H   UNK N   1      23.297  22.981  -8.605  0.00  0.00     0.210 HD
ENDBRANCH  17  29
BRANCH  16  31
HETATM   31  O   UNK N   1      27.719  22.655  -8.335  0.00  0.00    -0.385 OA
HETATM   32  H   UNK N   1      28.600  22.276  -8.187  0.00  0.00     0.210 HD
ENDBRANCH  16  31
TORSDOF 5
ENDMDL
MODEL 4
REMARK VINA RESULT:      -7.0     12.518     15.943
REMARK  5 active torsions:
REMARK  status: ('A' for Active; 'I' for Inactive)
REMARK    1  A    between atoms: C_2  and  N_3 
REMARK    2  A    between atoms: N_3  and  C_4 
REMARK    3  A    between atoms: C_8  and  O_10 
REMARK    4  A    between atoms: C_20  and  O_26 
REMARK    5  A    between atoms: C_21  and  O_25 
ROOT
HETATM    1  C   UNK N   1      32.036  21.110  -3.724  0.00  0.00     0.031 A 
HETATM    2  C   UNK N   1      31.231  20.731  -4.794  0.00  0.00     0.041 A 
HETATM    3  C   UNK N   1      30.189  21.546  -5.246  0.00  0.00    -0.015 A 
HETATM    4  C   UNK N   1      29.921  22.787  -4.571  0.00  0.00     0.083 A 
HETATM    5  C   UNK N   1      30.780  23.177  -3.515  0.00  0.00     0.085 A 
HETATM    6  C   UNK N   1      31.820  22.343  -3.103  0.00  0.00     0.066 A 
HETATM    7  C   UNK N   1      28.738  23.642  -4.920  0.00  0.00     0.297 C 
HETATM    8  O   UNK N   1      27.793  23.153  -5.514  0.00  0.00    -0.259 OA
HETATM    9  O   UNK N   1      28.652  24.932  -4.493  0.00  0.00    -0.312 OA
HETATM   10  C   UNK N   1      27.598  25.743  -4.872  0.00  0.00     0.135 C 
HETATM   11  C   UNK N   1      27.649  26.020  -6.385  0.00  0.00     0.033 C 
HETATM   12  C   UNK N   1      26.349  26.530  -6.921  0.00  0.00    -0.016 C 
HETATM   13  C   UNK N   1      25.607  25.902  -7.853  0.00  0.00     0.049 C 
HETATM   14  C   UNK N   1      25.883  24.609  -8.546  0.00  0.00     0.180 C 
HETATM   15  O   UNK N   1      25.041  24.187  -9.323  0.00  0.00    -0.290 OA
HETATM   16  C   UNK N   1      27.147  23.809  -8.317  0.00  0.00     0.220 C 
HETATM   17  C   UNK N   1      27.114  22.375  -8.896  0.00  0.00     0.158 C 
HETATM   18  C   UNK N   1      28.414  21.575  -8.684  0.00  0.00     0.061 C 
HETATM   19  C   UNK N   1      29.138  21.950  -7.427  0.00  0.00    -0.023 C 
HETATM   20  C   UNK N   1      29.482  21.082  -6.471  0.00  0.00     0.009 C 
HETATM   21  C   UNK N   1      28.785  26.958  -6.764  0.00  0.00     0.017 C 
HETATM   22  C   UNK N   1      27.579  27.015  -4.037  0.00  0.00     0.041 C 
ENDROOT
BRANCH   1  23
HETATM   23  N   UNK N   1      33.047  20.226  -3.269  0.00  0.00    -0.390 N 
HETATM   24  H   UNK N   1      32.949  19.811  -2.383  0.00  0.00     0.159 HD
BRANCH  23  25
HETATM   25  C   UNK N   1      34.213  19.915  -4.058  0.00  0.00     0.115 C 
HETATM   26  C   UNK N   1      35.214  21.046  -3.953  0.00  0.00     0.026 C 
ENDBRANCH  23  25
ENDBRANCH   1  23
BRANCH   5  27
HETATM   27  O   UNK N   1      30.596  24.339  -2.864  0.00  0.00    -0.360 OA
HETATM   28  H   UNK N   1      30.949  25.135  -3.212  0.00  0.00     0.217 HD
ENDBRANCH   5  27
BRANCH  17  29
HETATM   29  O   UNK N   1      26.038  21.662  -8.366  0.00  0.00    -0.392 OA
HETATM   30  H   UNK N   1      25.163  21.287  -8.180  0.00  0.00     0.210 HD
ENDBRANCH  17  29
BRANCH  16  31
HETATM   31  O   UNK N   1      28.241  24.508  -8.830  0.00  0.00    -0.385 OA
HETATM   32  H   UNK N   1      28.951  25.152  -8.980  0.00  0.00     0.210 HD
ENDBRANCH  16  31
TORSDOF 5
ENDMDL
MODEL 5
REMARK VINA RESULT:      -6.9     12.660     15.889
REMARK  5 active torsions:
REMARK  status: ('A' for Active; 'I' for Inactive)
REMARK    1  A    between atoms: C_2  and  N_3 
REMARK    2  A    between atoms: N_3  and  C_4 
REMARK    3  A    between atoms: C_8  and  O_10 
REMARK    4  A    between atoms: C_20  and  O_26 
REMARK    5  A    between atoms: C_21  and  O_25 
ROOT
HETATM    1  C   UNK N   1      31.401  20.380  -4.735  0.00  0.00     0.031 A 
HETATM    2  C   UNK N   1      30.756  21.386  -4.023  0.00  0.00     0.041 A 
HETATM    3  C   UNK N   1      29.944  22.327  -4.664  0.00  0.00    -0.015 A 
HETATM    4  C   UNK N   1      29.798  22.273  -6.094  0.00  0.00     0.083 A 
HETATM    5  C   UNK N   1      30.423  21.213  -6.795  0.00  0.00     0.085 A 
HETATM    6  C   UNK N   1      31.214  20.284  -6.116  0.00  0.00     0.066 A 
HETATM    7  C   UNK N   1      29.051  23.328  -6.857  0.00  0.00     0.297 C 
HETATM    8  O   UNK N   1      28.863  24.420  -6.349  0.00  0.00    -0.259 OA
HETATM    9  O   UNK N   1      28.668  23.125  -8.147  0.00  0.00    -0.312 OA
HETATM   10  C   UNK N   1      27.919  24.067  -8.828  0.00  0.00     0.135 C 
HETATM   11  C   UNK N   1      26.517  24.193  -8.206  0.00  0.00     0.033 C 
HETATM   12  C   UNK N   1      25.817  25.449  -8.614  0.00  0.00    -0.016 C 
HETATM   13  C   UNK N   1      25.425  26.417  -7.764  0.00  0.00     0.049 C 
HETATM   14  C   UNK N   1      25.586  26.475  -6.281  0.00  0.00     0.180 C 
HETATM   15  O   UNK N   1      25.207  27.482  -5.705  0.00  0.00    -0.290 OA
HETATM   16  C   UNK N   1      26.201  25.348  -5.479  0.00  0.00     0.220 C 
HETATM   17  C   UNK N   1      26.543  25.714  -4.016  0.00  0.00     0.158 C 
HETATM   18  C   UNK N   1      27.144  24.556  -3.195  0.00  0.00     0.061 C 
HETATM   19  C   UNK N   1      27.946  23.601  -4.025  0.00  0.00    -0.023 C 
HETATM   20  C   UNK N   1      29.218  23.275  -3.777  0.00  0.00     0.009 C 
HETATM   21  C   UNK N   1      25.646  22.979  -8.493  0.00  0.00     0.017 C 
HETATM   22  C   UNK N   1      27.881  23.743 -10.315  0.00  0.00     0.041 C 
ENDROOT
BRANCH   1  23
HETATM   23  N   UNK N   1      32.255  19.481  -4.047  0.00  0.00    -0.390 N 
HETATM   24  H   UNK N   1      31.863  18.867  -3.386  0.00  0.00     0.159 HD
BRANCH  23  25
HETATM   25  C   UNK N   1      33.677  19.436  -4.280  0.00  0.00     0.115 C 
HETATM   26  C   UNK N   1      34.333  20.653  -3.664  0.00  0.00     0.026 C 
ENDBRANCH  23  25
ENDBRANCH   1  23
BRANCH   5  27
HETATM   27  O   UNK N   1      30.301  21.096  -8.129  0.00  0.00    -0.360 OA
HETATM   28  H   UNK N   1      30.293  21.862  -8.669  0.00  0.00     0.217 HD
ENDBRANCH   5  27
BRANCH  17  29
HETATM   29  O   UNK N   1      27.410  26.808  -3.978  0.00  0.00    -0.392 OA
HETATM   30  H   UNK N   1      27.933  27.579  -3.712  0.00  0.00     0.210 HD
ENDBRANCH  17  29
BRANCH  16  31
HETATM   31  O   UNK N   1      25.357  24.237  -5.511  0.00  0.00    -0.385 OA
HETATM   32  H   UNK N   1      24.966  23.366  -5.681  0.00  0.00     0.210 HD
ENDBRANCH  16  31
TORSDOF 5
ENDMDL
MODEL 6
REMARK VINA RESULT:      -6.9     12.419     14.572
REMARK  5 active torsions:
REMARK  status: ('A' for Active; 'I' for Inactive)
REMARK    1  A    between atoms: C_2  and  N_3 
REMARK    2  A    between atoms: N_3  and  C_4 
REMARK    3  A    between atoms: C_8  and  O_10 
REMARK    4  A    between atoms: C_20  and  O_26 
REMARK    5  A    between atoms: C_21  and  O_25 
ROOT
HETATM    1  C   UNK N   1      26.017  27.492  -4.549  0.00  0.00     0.031 A 
HETATM    2  C   UNK N   1      27.069  26.833  -3.921  0.00  0.00     0.041 A 
HETATM    3  C   UNK N   1      27.519  25.587  -4.369  0.00  0.00    -0.015 A 
HETATM    4  C   UNK N   1      26.860  24.959  -5.482  0.00  0.00     0.083 A 
HETATM    5  C   UNK N   1      25.823  25.666  -6.137  0.00  0.00     0.085 A 
HETATM    6  C   UNK N   1      25.412  26.915  -5.669  0.00  0.00     0.066 A 
HETATM    7  C   UNK N   1      27.205  23.567  -5.927  0.00  0.00     0.297 C 
HETATM    8  O   UNK N   1      27.778  22.813  -5.161  0.00  0.00    -0.259 OA
HETATM    9  O   UNK N   1      26.798  23.094  -7.138  0.00  0.00    -0.312 OA
HETATM   10  C   UNK N   1      27.175  21.839  -7.579  0.00  0.00     0.135 C 
HETATM   11  C   UNK N   1      28.693  21.789  -7.828  0.00  0.00     0.033 C 
HETATM   12  C   UNK N   1      29.218  20.391  -7.905  0.00  0.00    -0.016 C 
HETATM   13  C   UNK N   1      30.129  19.869  -7.062  0.00  0.00     0.049 C 
HETATM   14  C   UNK N   1      30.805  20.521  -5.903  0.00  0.00     0.180 C 
HETATM   15  O   UNK N   1      31.563  19.842  -5.228  0.00  0.00    -0.290 OA
HETATM   16  C   UNK N   1      30.582  21.972  -5.532  0.00  0.00     0.220 C 
HETATM   17  C   UNK N   1      31.137  22.374  -4.146  0.00  0.00     0.158 C 
HETATM   18  C   UNK N   1      30.930  23.858  -3.786  0.00  0.00     0.061 C 
HETATM   19  C   UNK N   1      29.691  24.444  -4.389  0.00  0.00    -0.023 C 
HETATM   20  C   UNK N   1      28.726  25.046  -3.687  0.00  0.00     0.009 C 
HETATM   21  C   UNK N   1      29.103  22.581  -9.061  0.00  0.00     0.017 C 
HETATM   22  C   UNK N   1      26.360  21.439  -8.801  0.00  0.00     0.041 C 
ENDROOT
BRANCH   1  23
HETATM   23  N   UNK N   1      25.562  28.729  -4.027  0.00  0.00    -0.390 N 
HETATM   24  H   UNK N   1      24.608  28.953  -4.101  0.00  0.00     0.159 HD
BRANCH  23  25
HETATM   25  C   UNK N   1      26.449  29.671  -3.390  0.00  0.00     0.115 C 
HETATM   26  C   UNK N   1      27.087  30.558  -4.438  0.00  0.00     0.026 C 
ENDBRANCH  23  25
ENDBRANCH   1  23
BRANCH   5  27
HETATM   27  O   UNK N   1      25.188  25.141  -7.200  0.00  0.00    -0.360 OA
HETATM   28  H   UNK N   1      24.302  24.843  -7.117  0.00  0.00     0.217 HD
ENDBRANCH   5  27
BRANCH  17  29
HETATM   29  O   UNK N   1      30.580  21.573  -3.149  0.00  0.00    -0.392 OA
HETATM   30  H   UNK N   1      30.160  20.856  -2.649  0.00  0.00     0.210 HD
ENDBRANCH  17  29
BRANCH  16  31
HETATM   31  O   UNK N   1      31.121  22.795  -6.523  0.00  0.00    -0.385 OA
HETATM   32  H   UNK N   1      31.356  23.207  -7.369  0.00  0.00     0.210 HD
ENDBRANCH  16  31
TORSDOF 5
ENDMDL
MODEL 7
REMARK VINA RESULT:      -6.8      2.922      6.813
REMARK  5 active torsions:
REMARK  status: ('A' for Active; 'I' for Inactive)
REMARK    1  A    between atoms: C_2  and  N_3 
REMARK    2  A    between atoms: N_3  and  C_4 
REMARK    3  A    between atoms: C_8  and  O_10 
REMARK    4  A    between atoms: C_20  and  O_26 
REMARK    5  A    between atoms: C_21  and  O_25 
ROOT
HETATM    1  C   UNK N   1      32.673  15.902   8.820  0.00  0.00     0.031 A 
HETATM    2  C   UNK N   1      31.860  17.015   8.632  0.00  0.00     0.041 A 
HETATM    3  C   UNK N   1      30.928  17.069   7.590  0.00  0.00    -0.015 A 
HETATM    4  C   UNK N   1      30.830  15.964   6.676  0.00  0.00     0.083 A 
HETATM    5  C   UNK N   1      31.631  14.821   6.912  0.00  0.00     0.085 A 
HETATM    6  C   UNK N   1      32.539  14.799   7.972  0.00  0.00     0.066 A 
HETATM    7  C   UNK N   1      29.948  16.013   5.462  0.00  0.00     0.297 C 
HETATM    8  O   UNK N   1      29.578  17.090   5.027  0.00  0.00    -0.259 OA
HETATM    9  O   UNK N   1      29.636  14.881   4.773  0.00  0.00    -0.312 OA
HETATM   10  C   UNK N   1      28.767  14.914   3.697  0.00  0.00     0.135 C 
HETATM   11  C   UNK N   1      27.347  15.280   4.164  0.00  0.00     0.033 C 
HETATM   12  C   UNK N   1      26.470  15.730   3.039  0.00  0.00    -0.016 C 
HETATM   13  C   UNK N   1      25.910  16.951   2.947  0.00  0.00     0.049 C 
HETATM   14  C   UNK N   1      26.021  18.099   3.893  0.00  0.00     0.180 C 
HETATM   15  O   UNK N   1      25.474  19.147   3.586  0.00  0.00    -0.290 OA
HETATM   16  C   UNK N   1      26.783  18.016   5.199  0.00  0.00     0.220 C 
HETATM   17  C   UNK N   1      27.024  19.378   5.890  0.00  0.00     0.158 C 
HETATM   18  C   UNK N   1      27.777  19.284   7.231  0.00  0.00     0.061 C 
HETATM   19  C   UNK N   1      28.740  18.138   7.288  0.00  0.00    -0.023 C 
HETATM   20  C   UNK N   1      30.041  18.263   7.570  0.00  0.00     0.009 C 
HETATM   21  C   UNK N   1      26.684  14.152   4.938  0.00  0.00     0.017 C 
HETATM   22  C   UNK N   1      28.819  13.600   2.931  0.00  0.00     0.041 C 
ENDROOT
BRANCH   1  23
HETATM   23  N   UNK N   1      33.638  15.916   9.859  0.00  0.00    -0.390 N 
HETATM   24  H   UNK N   1      33.425  15.471  10.710  0.00  0.00     0.159 HD
BRANCH  23  25
HETATM   25  C   UNK N   1      34.920  16.559   9.713  0.00  0.00     0.115 C 
HETATM   26  C   UNK N   1      35.695  16.450  11.009  0.00  0.00     0.026 C 
ENDBRANCH  23  25
ENDBRANCH   1  23
BRANCH   5  27
HETATM   27  O   UNK N   1      31.564  13.746   6.106  0.00  0.00    -0.360 OA
HETATM   28  H   UNK N   1      30.774  13.244   6.058  0.00  0.00     0.217 HD
ENDBRANCH   5  27
BRANCH  17  29
HETATM   29  O   UNK N   1      27.709  20.242   5.033  0.00  0.00    -0.392 OA
HETATM   30  H   UNK N   1      28.361  20.662   4.452  0.00  0.00     0.210 HD
ENDBRANCH  17  29
BRANCH  16  31
HETATM   31  O   UNK N   1      26.123  17.147   6.070  0.00  0.00    -0.385 OA
HETATM   32  H   UNK N   1      25.897  16.553   6.803  0.00  0.00     0.210 HD
ENDBRANCH  16  31
TORSDOF 5
ENDMDL
MODEL 8
REMARK VINA RESULT:      -6.8      4.139      7.515
REMARK  5 active torsions:
REMARK  status: ('A' for Active; 'I' for Inactive)
REMARK    1  A    between atoms: C_2  and  N_3 
REMARK    2  A    between atoms: N_3  and  C_4 
REMARK    3  A    between atoms: C_8  and  O_10 
REMARK    4  A    between atoms: C_20  and  O_26 
REMARK    5  A    between atoms: C_21  and  O_25 
ROOT
HETATM    1  C   UNK N   1      36.458  14.266  12.795  0.00  0.00     0.031 A 
HETATM    2  C   UNK N   1      35.919  15.341  12.095  0.00  0.00     0.041 A 
HETATM    3  C   UNK N   1      35.663  15.263  10.723  0.00  0.00    -0.015 A 
HETATM    4  C   UNK N   1      35.993  14.056  10.013  0.00  0.00     0.083 A 
HETATM    5  C   UNK N   1      36.496  12.957  10.750  0.00  0.00     0.085 A 
HETATM    6  C   UNK N   1      36.724  13.070  12.123  0.00  0.00     0.066 A 
HETATM    7  C   UNK N   1      35.868  13.953   8.520  0.00  0.00     0.297 C 
HETATM    8  O   UNK N   1      35.833  14.968   7.846  0.00  0.00    -0.259 OA
HETATM    9  O   UNK N   1      35.898  12.745   7.894  0.00  0.00    -0.312 OA
HETATM   10  C   UNK N   1      35.712  12.643   6.527  0.00  0.00     0.135 C 
HETATM   11  C   UNK N   1      34.276  13.047   6.147  0.00  0.00     0.033 C 
HETATM   12  C   UNK N   1      34.130  13.352   4.691  0.00  0.00    -0.016 C 
HETATM   13  C   UNK N   1      33.763  14.548   4.193  0.00  0.00     0.049 C 
HETATM   14  C   UNK N   1      33.430  15.801   4.932  0.00  0.00     0.180 C 
HETATM   15  O   UNK N   1      33.176  16.799   4.277  0.00  0.00    -0.290 OA
HETATM   16  C   UNK N   1      33.403  15.879   6.443  0.00  0.00     0.220 C 
HETATM   17  C   UNK N   1      33.325  17.316   7.011  0.00  0.00     0.158 C 
HETATM   18  C   UNK N   1      33.271  17.388   8.550  0.00  0.00     0.061 C 
HETATM   19  C   UNK N   1      34.005  16.267   9.218  0.00  0.00    -0.023 C 
HETATM   20  C   UNK N   1      34.978  16.436  10.119  0.00  0.00     0.009 C 
HETATM   21  C   UNK N   1      33.250  12.011   6.580  0.00  0.00     0.017 C 
HETATM   22  C   UNK N   1      36.083  11.248   6.043  0.00  0.00     0.041 C 
ENDROOT
BRANCH   1  23
HETATM   23  N   UNK N   1      36.749  14.411  14.175  0.00  0.00    -0.390 N 
HETATM   24  H   UNK N   1      36.932  15.311  14.528  0.00  0.00     0.159 HD
BRANCH  23  25
HETATM   25  C   UNK N   1      36.784  13.289  15.079  0.00  0.00     0.115 C 
HETATM   26  C   UNK N   1      35.439  13.140  15.758  0.00  0.00     0.026 C 
ENDBRANCH  23  25
ENDBRANCH   1  23
BRANCH   5  27
HETATM   27  O   UNK N   1      36.798  11.794  10.145  0.00  0.00    -0.360 OA
HETATM   28  H   UNK N   1      37.324  11.792   9.369  0.00  0.00     0.217 HD
ENDBRANCH   5  27
BRANCH  17  29
HETATM   29  O   UNK N   1      34.397  18.080   6.548  0.00  0.00    -0.392 OA
HETATM   30  H   UNK N   1      35.148  18.433   6.047  0.00  0.00     0.210 HD
ENDBRANCH  17  29
BRANCH  16  31
HETATM   31  O   UNK N   1      32.344  15.112   6.932  0.00  0.00    -0.385 OA
HETATM   32  H   UNK N   1      31.465  14.769   7.156  0.00  0.00     0.210 HD
ENDBRANCH  16  31
TORSDOF 5
ENDMDL
MODEL 9
REMARK VINA RESULT:      -6.7      6.585      9.734
REMARK  5 active torsions:
REMARK  status: ('A' for Active; 'I' for Inactive)
REMARK    1  A    between atoms: C_2  and  N_3 
REMARK    2  A    between atoms: N_3  and  C_4 
REMARK    3  A    between atoms: C_8  and  O_10 
REMARK    4  A    between atoms: C_20  and  O_26 
REMARK    5  A    between atoms: C_21  and  O_25 
ROOT
HETATM    1  C   UNK N   1      35.171  14.923   8.735  0.00  0.00     0.031 A 
HETATM    2  C   UNK N   1      35.069  13.545   8.895  0.00  0.00     0.041 A 
HETATM    3  C   UNK N   1      35.359  12.930  10.116  0.00  0.00    -0.015 A 
HETATM    4  C   UNK N   1      35.803  13.735  11.222  0.00  0.00     0.083 A 
HETATM    5  C   UNK N   1      35.854  15.140  11.054  0.00  0.00     0.085 A 
HETATM    6  C   UNK N   1      35.542  15.718   9.822  0.00  0.00     0.066 A 
HETATM    7  C   UNK N   1      36.257  13.126  12.517  0.00  0.00     0.297 C 
HETATM    8  O   UNK N   1      36.599  11.957  12.547  0.00  0.00    -0.259 OA
HETATM    9  O   UNK N   1      36.393  13.882  13.641  0.00  0.00    -0.312 OA
HETATM   10  C   UNK N   1      36.743  13.310  14.850  0.00  0.00     0.135 C 
HETATM   11  C   UNK N   1      35.622  12.382  15.351  0.00  0.00     0.033 C 
HETATM   12  C   UNK N   1      36.088  11.436  16.411  0.00  0.00    -0.016 C 
HETATM   13  C   UNK N   1      36.079  10.094  16.297  0.00  0.00     0.049 C 
HETATM   14  C   UNK N   1      35.625   9.262  15.145  0.00  0.00     0.180 C 
HETATM   15  O   UNK N   1      35.759   8.051  15.229  0.00  0.00    -0.290 OA
HETATM   16  C   UNK N   1      35.023   9.856  13.890  0.00  0.00     0.220 C 
HETATM   17  C   UNK N   1      34.890   8.865  12.710  0.00  0.00     0.158 C 
HETATM   18  C   UNK N   1      34.251   9.469  11.444  0.00  0.00     0.061 C 
HETATM   19  C   UNK N   1      34.538  10.930  11.278  0.00  0.00    -0.023 C 
HETATM   20  C   UNK N   1      35.097  11.467  10.190  0.00  0.00     0.009 C 
HETATM   21  C   UNK N   1      34.400  13.154  15.825  0.00  0.00     0.017 C 
HETATM   22  C   UNK N   1      37.115  14.387  15.860  0.00  0.00     0.041 C 
ENDROOT
BRANCH   1  23
HETATM   23  N   UNK N   1      34.916  15.495   7.462  0.00  0.00    -0.390 N 
HETATM   24  H   UNK N   1      35.629  15.480   6.785  0.00  0.00     0.159 HD
BRANCH  23  25
HETATM   25  C   UNK N   1      33.650  16.096   7.125  0.00  0.00     0.115 C 
HETATM   26  C   UNK N   1      33.831  17.586   6.928  0.00  0.00     0.026 C 
ENDBRANCH  23  25
ENDBRANCH   1  23
BRANCH   5  27
HETATM   27  O   UNK N   1      36.236  15.947  12.060  0.00  0.00    -0.360 OA
HETATM   28  H   UNK N   1      35.596  16.436  12.539  0.00  0.00     0.217 HD
ENDBRANCH   5  27
BRANCH  17  29
HETATM   29  O   UNK N   1      36.135   8.324  12.388  0.00  0.00    -0.392 OA
HETATM   30  H   UNK N   1      37.082   8.176  12.240  0.00  0.00     0.210 HD
ENDBRANCH  17  29
BRANCH  16  31
HETATM   31  O   UNK N   1      33.779  10.415  14.189  0.00  0.00    -0.385 OA
HETATM   32  H   UNK N   1      32.830  10.563  14.325  0.00  0.00     0.210 HD
ENDBRANCH  16  31
TORSDOF 5
ENDMDL
