MODEL 1
REMARK VINA RESULT:      -8.2      0.000      0.000
REMARK  19 active torsions:
REMARK  status: ('A' for Active; 'I' for Inactive)
REMARK    1  A    between atoms: C_21  and  C_8 
REMARK    2  A    between atoms: C_33  and  C_20 
REMARK    3  A    between atoms: O_61  and  C_22 
REMARK    4  A    between atoms: C_23  and  O_60 
REMARK    5  A    between atoms: C_26  and  C_25 
REMARK    6  A    between atoms: C_27  and  C_34 
REMARK    7  A    between atoms: O_59  and  C_28 
REMARK    8  A    between atoms: O_60  and  C_29 
REMARK    9  A    between atoms: C_35  and  C_32 
REMARK   10  A    between atoms: C_39  and  C_32 
REMARK   11  A    between atoms: C_32  and  N_46 
REMARK   12  A    between atoms: O_53  and  C_33 
REMARK   13  A    between atoms: C_34  and  O_54 
REMARK       I    between atoms: N_52  and  C_35 
REMARK   14  A    between atoms: C_40  and  C_36 
REMARK   15  A    between atoms: O_57  and  C_36 
REMARK   16  A    between atoms: N_48  and  C_37 
REMARK   17  A    between atoms: C_38  and  O_58 
REMARK   18  A    between atoms: O_61  and  C_38 
REMARK   19  A    between atoms: C_40  and  N_50 
ROOT
HETATM    1  C   UNK N   1      22.119  13.640   2.410  0.00  0.00     0.068 C 
HETATM    2  C   UNK N   1      23.751  14.814   3.821  0.00  0.00     0.159 C 
HETATM    3  C   UNK N   1      23.595  14.012   2.531  0.00  0.00     0.149 C 
HETATM    4  C   UNK N   1      21.410  14.244   3.607  0.00  0.00     0.164 C 
HETATM    5  C   UNK N   1      22.283  15.159   5.759  0.00  0.00     0.244 C 
HETATM    6  N   UNK N   1      22.468  14.733   4.466  0.00  0.00    -0.336 N 
HETATM    7  O   UNK N   1      23.226  15.680   6.350  0.00  0.00    -0.271 OA
ENDROOT
BRANCH   3   8
HETATM    8  O   UNK N   1      24.381  12.863   2.493  0.00  0.00    -0.343 OA
BRANCH   8   9
HETATM    9  C   UNK N   1      25.739  12.788   2.351  0.00  0.00     0.084 A 
HETATM   10  C   UNK N   1      26.575  13.821   2.780  0.00  0.00     0.069 A 
HETATM   11  C   UNK N   1      27.957  13.743   2.606  0.00  0.00     0.062 A 
HETATM   12  N   UNK N   1      28.501  12.644   2.017  0.00  0.00    -0.352 N 
HETATM   13  C   UNK N   1      27.724  11.619   1.558  0.00  0.00     0.066 A 
ATOM     14  HN  UNK N   1      29.514  12.584   1.914  1.00  0.00     0.166 HD
HETATM   15  C   UNK N   1      26.318  11.678   1.722  0.00  0.00     0.026 A 
HETATM   16  C   UNK N   1      28.314  10.523   0.899  0.00  0.00     0.071 A 
HETATM   17  C   UNK N   1      25.522  10.632   1.259  0.00  0.00     0.019 A 
HETATM   18  C   UNK N   1      26.100   9.549   0.607  0.00  0.00     0.039 A 
HETATM   19  C   UNK N   1      27.480   9.480   0.394  0.00  0.00     0.087 A 
HETATM   20 Br   UNK N   1      30.237  10.511   0.732  0.00  0.00    -0.046 Br
BRANCH  11  21
HETATM   21  C   UNK N   1      28.806  14.873   3.023  0.00  0.00     0.067 A 
HETATM   22  C   UNK N   1      30.186  14.905   2.736  0.00  0.00     0.085 A 
HETATM   23  S   UNK N   1      30.723  16.329   3.370  0.00  0.00    -0.063 SA
HETATM   24  C   UNK N   1      29.282  16.882   3.960  0.00  0.00     0.150 A 
HETATM   25  N   UNK N   1      28.314  15.964   3.715  0.00  0.00    -0.334 N 
ATOM     26  HN  UNK N   1      27.342  16.067   4.005  1.00  0.00     0.168 HD
BRANCH  24  27
HETATM   27  N   UNK N   1      29.035  18.134   4.595  0.00  0.00    -0.321 N 
HETATM   28  C   UNK N   1      27.946  18.824   4.464  0.00  0.00     0.120 C 
ATOM     29  HN  UNK N   1      29.767  18.514   5.196  1.00  0.00     0.169 HD
BRANCH  28  30
HETATM   30  C   UNK N   1      27.810  20.139   5.173  0.00  0.00     0.052 C 
HETATM   31  C   UNK N   1      27.769  19.970   6.685  0.00  0.00     0.018 C 
HETATM   32  C   UNK N   1      26.540  20.835   4.725  0.00  0.00     0.018 C 
ENDBRANCH  28  30
BRANCH  28  33
HETATM   33  O   UNK N   1      26.917  18.362   3.724  0.00  0.00    -0.349 OA
HETATM   34  H   UNK N   1      26.424  18.888   3.127  0.00  0.00     0.219 HD
ENDBRANCH  28  33
ENDBRANCH  24  27
ENDBRANCH  11  21
BRANCH  19  35
HETATM   35  O   UNK N   1      27.932   8.410  -0.309  0.00  0.00    -0.355 OA
HETATM   36  C   UNK N   1      28.146   8.379  -1.665  0.00  0.00     0.210 C 
ENDBRANCH  19  35
ENDBRANCH   8   9
ENDBRANCH   3   8
BRANCH   4  37
HETATM   37  C   UNK N   1      20.603  15.443   3.182  0.00  0.00     0.136 C 
HETATM   38  N   UNK N   1      21.191  16.473   2.661  0.00  0.00    -0.353 N 
ATOM     39  HN  UNK N   1      22.210  16.473   2.704  1.00  0.00     0.162 HD
BRANCH  38  40
HETATM   40  C   UNK N   1      20.577  17.641   2.018  0.00  0.00     0.125 A 
HETATM   41  C   UNK N   1      19.773  18.544   2.936  0.00  0.00     0.054 A 
HETATM   42  C   UNK N   1      21.046  19.075   2.299  0.00  0.00     0.049 A 
BRANCH  42  43
HETATM   43  C   UNK N   1      21.995  19.346   3.417  0.00  0.00    -0.029 C 
HETATM   44  C   UNK N   1      23.115  20.024   3.195  0.00  0.00     0.007 C 
ENDBRANCH  42  43
BRANCH  40  45
HETATM   45  C   UNK N   1      19.867  17.352   0.721  0.00  0.00     0.170 C 
HETATM   46  O   UNK N   1      20.481  17.301  -0.335  0.00  0.00    -0.648 OA
BRANCH  45  47
HETATM   47  O   UNK N   1      18.533  17.175   0.722  0.00  0.00    -0.774 OA
HETATM   48  H   UNK N   1      17.651  17.341   0.456  0.00  0.00     0.167 HD
ENDBRANCH  45  47
ENDBRANCH  40  45
ENDBRANCH  38  40
BRANCH  37  49
HETATM   49  O   UNK N   1      19.258  15.377   3.288  0.00  0.00    -0.348 OA
HETATM   50  H   UNK N   1      18.422  15.752   3.091  0.00  0.00     0.219 HD
ENDBRANCH  37  49
ENDBRANCH   4  37
BRANCH   5  51
HETATM   51  C   UNK N   1      20.978  14.949   6.530  0.00  0.00     0.185 C 
BRANCH  51  52
HETATM   52  C   UNK N   1      20.302  16.285   6.983  0.00  0.00    -0.022 C 
HETATM   53  C   UNK N   1      18.821  16.292   6.630  0.00  0.00     0.017 C 
HETATM   54  C   UNK N   1      20.923  17.486   6.316  0.00  0.00     0.017 C 
HETATM   55  C   UNK N   1      20.415  16.495   8.485  0.00  0.00     0.017 C 
ENDBRANCH  51  52
BRANCH  51  56
HETATM   56  N   UNK N   1      21.309  14.197   7.724  0.00  0.00    -0.337 N 
HETATM   57  C   UNK N   1      21.153  12.930   7.877  0.00  0.00     0.259 C 
ATOM     58  HN  UNK N   1      21.698  14.717   8.511  1.00  0.00     0.164 HD
BRANCH  57  59
HETATM   59  O   UNK N   1      20.770  12.142   6.848  0.00  0.00    -0.327 OA
HETATM   60  H   UNK N   1      20.258  11.418   6.550  0.00  0.00     0.221 HD
ENDBRANCH  57  59
BRANCH  57  61
HETATM   61  O   UNK N   1      21.208  12.428   9.121  0.00  0.00    -0.311 OA
BRANCH  61  62
HETATM   62  C   UNK N   1      22.281  12.769   9.907  0.00  0.00     0.132 C 
HETATM   63  C   UNK N   1      23.562  12.249   9.289  0.00  0.00     0.032 C 
HETATM   64  C   UNK N   1      24.491  11.968  10.454  0.00  0.00     0.002 C 
HETATM   65  C   UNK N   1      23.656  12.115  11.718  0.00  0.00     0.002 C 
HETATM   66  C   UNK N   1      22.210  12.135  11.267  0.00  0.00     0.032 C 
ENDBRANCH  61  62
ENDBRANCH  57  61
ENDBRANCH  51  56
ENDBRANCH   5  51
TORSDOF 19
ENDMDL
MODEL 2
REMARK VINA RESULT:      -8.2      3.359      9.580
REMARK  19 active torsions:
REMARK  status: ('A' for Active; 'I' for Inactive)
REMARK    1  A    between atoms: C_21  and  C_8 
REMARK    2  A    between atoms: C_33  and  C_20 
REMARK    3  A    between atoms: O_61  and  C_22 
REMARK    4  A    between atoms: C_23  and  O_60 
REMARK    5  A    between atoms: C_26  and  C_25 
REMARK    6  A    between atoms: C_27  and  C_34 
REMARK    7  A    between atoms: O_59  and  C_28 
REMARK    8  A    between atoms: O_60  and  C_29 
REMARK    9  A    between atoms: C_35  and  C_32 
REMARK   10  A    between atoms: C_39  and  C_32 
REMARK   11  A    between atoms: C_32  and  N_46 
REMARK   12  A    between atoms: O_53  and  C_33 
REMARK   13  A    between atoms: C_34  and  O_54 
REMARK       I    between atoms: N_52  and  C_35 
REMARK   14  A    between atoms: C_40  and  C_36 
REMARK   15  A    between atoms: O_57  and  C_36 
REMARK   16  A    between atoms: N_48  and  C_37 
REMARK   17  A    between atoms: C_38  and  O_58 
REMARK   18  A    between atoms: O_61  and  C_38 
REMARK   19  A    between atoms: C_40  and  N_50 
ROOT
HETATM    1  C   UNK N   1      27.676  16.877   5.937  0.00  0.00     0.068 C 
HETATM    2  C   UNK N   1      27.183  17.209   3.555  0.00  0.00     0.159 C 
HETATM    3  C   UNK N   1      27.259  17.921   4.903  0.00  0.00     0.149 C 
HETATM    4  C   UNK N   1      27.870  15.570   5.195  0.00  0.00     0.164 C 
HETATM    5  C   UNK N   1      27.155  14.838   2.918  0.00  0.00     0.244 C 
HETATM    6  N   UNK N   1      27.371  15.816   3.858  0.00  0.00    -0.336 N 
HETATM    7  O   UNK N   1      26.858  15.173   1.774  0.00  0.00    -0.271 OA
ENDROOT
BRANCH   3   8
HETATM    8  O   UNK N   1      26.060  18.517   5.284  0.00  0.00    -0.343 OA
BRANCH   8   9
HETATM    9  C   UNK N   1      24.793  18.054   5.062  0.00  0.00     0.084 A 
HETATM   10  C   UNK N   1      24.362  16.832   5.582  0.00  0.00     0.069 A 
HETATM   11  C   UNK N   1      23.074  16.358   5.326  0.00  0.00     0.062 A 
HETATM   12  N   UNK N   1      22.223  17.099   4.568  0.00  0.00    -0.352 N 
HETATM   13  C   UNK N   1      22.605  18.289   4.017  0.00  0.00     0.066 A 
ATOM     14  HN  UNK N   1      21.276  16.758   4.405  1.00  0.00     0.166 HD
HETATM   15  C   UNK N   1      23.908  18.788   4.261  0.00  0.00     0.026 A 
HETATM   16  C   UNK N   1      21.718  19.003   3.187  0.00  0.00     0.071 A 
HETATM   17  C   UNK N   1      24.300  20.004   3.705  0.00  0.00     0.019 A 
HETATM   18  C   UNK N   1      23.429  20.711   2.884  0.00  0.00     0.039 A 
HETATM   19  C   UNK N   1      22.150  20.226   2.592  0.00  0.00     0.087 A 
HETATM   20 Br   UNK N   1      19.955  18.263   2.919  0.00  0.00    -0.046 Br
BRANCH  11  21
HETATM   21  C   UNK N   1      22.669  15.040   5.846  0.00  0.00     0.067 A 
HETATM   22  C   UNK N   1      21.733  14.234   5.165  0.00  0.00     0.085 A 
HETATM   23  S   UNK N   1      21.591  12.873   6.085  0.00  0.00    -0.063 SA
HETATM   24  C   UNK N   1      22.669  13.276   7.271  0.00  0.00     0.150 A 
HETATM   25  N   UNK N   1      23.172  14.510   7.020  0.00  0.00    -0.334 N 
ATOM     26  HN  UNK N   1      23.841  14.989   7.623  1.00  0.00     0.168 HD
BRANCH  24  27
HETATM   27  N   UNK N   1      23.071  12.474   8.379  0.00  0.00    -0.321 N 
HETATM   28  C   UNK N   1      22.794  12.738   9.617  0.00  0.00     0.120 C 
ATOM     29  HN  UNK N   1      23.613  11.633   8.183  1.00  0.00     0.169 HD
BRANCH  28  30
HETATM   30  C   UNK N   1      23.288  11.823  10.699  0.00  0.00     0.052 C 
HETATM   31  C   UNK N   1      22.520  12.010  11.998  0.00  0.00     0.018 C 
HETATM   32  C   UNK N   1      24.759  12.083  10.959  0.00  0.00     0.018 C 
ENDBRANCH  28  30
BRANCH  28  33
HETATM   33  O   UNK N   1      22.041  13.806   9.947  0.00  0.00    -0.349 OA
HETATM   34  H   UNK N   1      22.298  14.457  10.570  0.00  0.00     0.219 HD
ENDBRANCH  28  33
ENDBRANCH  24  27
ENDBRANCH  11  21
BRANCH  19  35
HETATM   35  O   UNK N   1      21.405  20.964   1.729  0.00  0.00    -0.355 OA
HETATM   36  C   UNK N   1      21.010  20.567   0.475  0.00  0.00     0.210 C 
ENDBRANCH  19  35
ENDBRANCH   8   9
ENDBRANCH   3   8
BRANCH   4  37
HETATM   37  C   UNK N   1      29.339  15.261   5.062  0.00  0.00     0.136 C 
HETATM   38  N   UNK N   1      30.158  16.167   4.626  0.00  0.00    -0.353 N 
ATOM     39  HN  UNK N   1      29.728  17.011   4.250  1.00  0.00     0.162 HD
BRANCH  38  40
HETATM   40  C   UNK N   1      31.625  16.129   4.605  0.00  0.00     0.125 A 
HETATM   41  C   UNK N   1      32.315  17.480   4.646  0.00  0.00     0.054 A 
HETATM   42  C   UNK N   1      32.475  16.529   5.820  0.00  0.00     0.049 A 
BRANCH  42  43
HETATM   43  C   UNK N   1      31.837  17.195   6.992  0.00  0.00    -0.029 C 
HETATM   44  C   UNK N   1      32.587  17.708   7.960  0.00  0.00     0.007 C 
ENDBRANCH  42  43
BRANCH  40  45
HETATM   45  C   UNK N   1      32.222  15.204   3.577  0.00  0.00     0.170 C 
HETATM   46  O   UNK N   1      32.111  13.991   3.681  0.00  0.00    -0.648 OA
BRANCH  45  47
HETATM   47  O   UNK N   1      32.912  15.721   2.544  0.00  0.00    -0.774 OA
HETATM   48  H   UNK N   1      33.494  16.321   2.122  0.00  0.00     0.167 HD
ENDBRANCH  45  47
ENDBRANCH  40  45
ENDBRANCH  38  40
BRANCH  37  49
HETATM   49  O   UNK N   1      29.779  14.055   5.480  0.00  0.00    -0.348 OA
HETATM   50  H   UNK N   1      30.398  13.357   5.395  0.00  0.00     0.219 HD
ENDBRANCH  37  49
ENDBRANCH   4  37
BRANCH   5  51
HETATM   51  C   UNK N   1      27.193  13.343   3.243  0.00  0.00     0.185 C 
BRANCH  51  52
HETATM   52  C   UNK N   1      28.272  12.557   2.427  0.00  0.00    -0.022 C 
HETATM   53  C   UNK N   1      29.293  13.508   1.818  0.00  0.00     0.017 C 
HETATM   54  C   UNK N   1      27.662  11.774   1.293  0.00  0.00     0.017 C 
HETATM   55  C   UNK N   1      29.032  11.570   3.299  0.00  0.00     0.017 C 
ENDBRANCH  51  52
BRANCH  51  56
HETATM   56  N   UNK N   1      25.895  12.801   2.893  0.00  0.00    -0.337 N 
HETATM   57  C   UNK N   1      24.938  12.562   3.716  0.00  0.00     0.259 C 
ATOM     58  HN  UNK N   1      25.728  12.590   1.909  1.00  0.00     0.164 HD
BRANCH  57  59
HETATM   59  O   UNK N   1      25.021  12.931   5.013  0.00  0.00    -0.327 OA
HETATM   60  H   UNK N   1      25.267  13.582   5.640  0.00  0.00     0.221 HD
ENDBRANCH  57  59
BRANCH  57  61
HETATM   61  O   UNK N   1      23.924  11.782   3.305  0.00  0.00    -0.311 OA
BRANCH  61  62
HETATM   62  C   UNK N   1      23.167  12.215   2.244  0.00  0.00     0.132 C 
HETATM   63  C   UNK N   1      23.673  11.595   0.959  0.00  0.00     0.032 C 
HETATM   64  C   UNK N   1      23.376  12.611  -0.127  0.00  0.00     0.002 C 
HETATM   65  C   UNK N   1      22.917  13.877   0.580  0.00  0.00     0.002 C 
HETATM   66  C   UNK N   1      23.277  13.699   2.040  0.00  0.00     0.032 C 
ENDBRANCH  61  62
ENDBRANCH  57  61
ENDBRANCH  51  56
ENDBRANCH   5  51
TORSDOF 19
ENDMDL
MODEL 3
REMARK VINA RESULT:      -8.0      2.261      2.746
REMARK  19 active torsions:
REMARK  status: ('A' for Active; 'I' for Inactive)
REMARK    1  A    between atoms: C_21  and  C_8 
REMARK    2  A    between atoms: C_33  and  C_20 
REMARK    3  A    between atoms: O_61  and  C_22 
REMARK    4  A    between atoms: C_23  and  O_60 
REMARK    5  A    between atoms: C_26  and  C_25 
REMARK    6  A    between atoms: C_27  and  C_34 
REMARK    7  A    between atoms: O_59  and  C_28 
REMARK    8  A    between atoms: O_60  and  C_29 
REMARK    9  A    between atoms: C_35  and  C_32 
REMARK   10  A    between atoms: C_39  and  C_32 
REMARK   11  A    between atoms: C_32  and  N_46 
REMARK   12  A    between atoms: O_53  and  C_33 
REMARK   13  A    between atoms: C_34  and  O_54 
REMARK       I    between atoms: N_52  and  C_35 
REMARK   14  A    between atoms: C_40  and  C_36 
REMARK   15  A    between atoms: O_57  and  C_36 
REMARK   16  A    between atoms: N_48  and  C_37 
REMARK   17  A    between atoms: C_38  and  O_58 
REMARK   18  A    between atoms: O_61  and  C_38 
REMARK   19  A    between atoms: C_40  and  N_50 
ROOT
HETATM    1  C   UNK N   1      22.626  13.997   2.554  0.00  0.00     0.068 C 
HETATM    2  C   UNK N   1      23.843  15.394   4.165  0.00  0.00     0.159 C 
HETATM    3  C   UNK N   1      23.990  14.609   2.864  0.00  0.00     0.149 C 
HETATM    4  C   UNK N   1      21.679  14.444   3.651  0.00  0.00     0.164 C 
HETATM    5  C   UNK N   1      22.105  15.439   5.900  0.00  0.00     0.244 C 
HETATM    6  N   UNK N   1      22.522  15.083   4.640  0.00  0.00    -0.336 N 
HETATM    7  O   UNK N   1      22.864  16.097   6.609  0.00  0.00    -0.271 OA
ENDROOT
BRANCH   3   8
HETATM    8  O   UNK N   1      24.958  13.609   2.925  0.00  0.00    -0.343 OA
BRANCH   8   9
HETATM    9  C   UNK N   1      26.290  13.757   3.195  0.00  0.00     0.084 A 
HETATM   10  C   UNK N   1      26.748  14.713   4.104  0.00  0.00     0.069 A 
HETATM   11  C   UNK N   1      28.112  14.871   4.352  0.00  0.00     0.062 A 
HETATM   12  N   UNK N   1      29.010  14.079   3.706  0.00  0.00    -0.352 N 
HETATM   13  C   UNK N   1      28.613  13.146   2.790  0.00  0.00     0.066 A 
ATOM     14  HN  UNK N   1      30.003  14.183   3.909  1.00  0.00     0.166 HD
HETATM   15  C   UNK N   1      27.234  12.970   2.521  0.00  0.00     0.026 A 
HETATM   16  C   UNK N   1      29.572  12.383   2.095  0.00  0.00     0.071 A 
HETATM   17  C   UNK N   1      26.825  12.017   1.590  0.00  0.00     0.019 A 
HETATM   18  C   UNK N   1      27.768  11.263   0.902  0.00  0.00     0.039 A 
HETATM   19  C   UNK N   1      29.138  11.440   1.115  0.00  0.00     0.087 A 
HETATM   20 Br   UNK N   1      31.431  12.671   2.533  0.00  0.00    -0.046 Br
BRANCH  11  21
HETATM   21  C   UNK N   1      28.565  15.924   5.277  0.00  0.00     0.067 A 
HETATM   22  C   UNK N   1      27.827  17.110   5.465  0.00  0.00     0.085 A 
HETATM   23  S   UNK N   1      28.686  17.979   6.572  0.00  0.00    -0.063 SA
HETATM   24  C   UNK N   1      29.916  16.902   6.813  0.00  0.00     0.150 A 
HETATM   25  N   UNK N   1      29.730  15.821   6.016  0.00  0.00    -0.334 N 
ATOM     26  HN  UNK N   1      30.371  15.029   5.967  1.00  0.00     0.168 HD
BRANCH  24  27
HETATM   27  N   UNK N   1      31.001  17.025   7.731  0.00  0.00    -0.321 N 
HETATM   28  C   UNK N   1      32.237  17.207   7.388  0.00  0.00     0.120 C 
ATOM     29  HN  UNK N   1      30.789  16.966   8.726  1.00  0.00     0.169 HD
BRANCH  28  30
HETATM   30  C   UNK N   1      33.295  17.305   8.448  0.00  0.00     0.052 C 
HETATM   31  C   UNK N   1      34.324  18.378   8.128  0.00  0.00     0.018 C 
HETATM   32  C   UNK N   1      34.004  15.973   8.589  0.00  0.00     0.018 C 
ENDBRANCH  28  30
BRANCH  28  33
HETATM   33  O   UNK N   1      32.586  17.343   6.092  0.00  0.00    -0.349 OA
HETATM   34  H   UNK N   1      33.463  17.485   5.798  0.00  0.00     0.219 HD
ENDBRANCH  28  33
ENDBRANCH  24  27
ENDBRANCH  11  21
BRANCH  19  35
HETATM   35  O   UNK N   1      29.973  10.698   0.344  0.00  0.00    -0.355 OA
HETATM   36  C   UNK N   1      30.406  11.033  -0.916  0.00  0.00     0.210 C 
ENDBRANCH  19  35
ENDBRANCH   8   9
ENDBRANCH   3   8
BRANCH   4  37
HETATM   37  C   UNK N   1      20.740  15.499   3.129  0.00  0.00     0.136 C 
HETATM   38  N   UNK N   1      21.204  16.635   2.710  0.00  0.00    -0.353 N 
ATOM     39  HN  UNK N   1      22.191  16.809   2.899  1.00  0.00     0.162 HD
BRANCH  38  40
HETATM   40  C   UNK N   1      20.489  17.701   2.000  0.00  0.00     0.125 A 
HETATM   41  C   UNK N   1      19.575  18.558   2.856  0.00  0.00     0.054 A 
HETATM   42  C   UNK N   1      20.802  19.188   2.220  0.00  0.00     0.049 A 
BRANCH  42  43
HETATM   43  C   UNK N   1      21.690  19.607   3.342  0.00  0.00    -0.029 C 
HETATM   44  C   UNK N   1      22.862  20.180   3.090  0.00  0.00     0.007 C 
ENDBRANCH  42  43
BRANCH  40  45
HETATM   45  C   UNK N   1      19.844  17.281   0.705  0.00  0.00     0.170 C 
HETATM   46  O   UNK N   1      20.491  17.224  -0.331  0.00  0.00    -0.648 OA
BRANCH  45  47
HETATM   47  O   UNK N   1      18.531  16.991   0.683  0.00  0.00    -0.774 OA
HETATM   48  H   UNK N   1      17.680  16.862   1.052  0.00  0.00     0.167 HD
ENDBRANCH  45  47
ENDBRANCH  40  45
ENDBRANCH  38  40
BRANCH  37  49
HETATM   49  O   UNK N   1      19.427  15.198   3.040  0.00  0.00    -0.348 OA
HETATM   50  H   UNK N   1      18.543  15.497   2.946  0.00  0.00     0.219 HD
ENDBRANCH  37  49
ENDBRANCH   4  37
BRANCH   5  51
HETATM   51  C   UNK N   1      20.768  14.994   6.496  0.00  0.00     0.185 C 
BRANCH  51  52
HETATM   52  C   UNK N   1      19.811  16.185   6.833  0.00  0.00    -0.022 C 
HETATM   53  C   UNK N   1      19.589  16.296   8.335  0.00  0.00     0.017 C 
HETATM   54  C   UNK N   1      18.456  16.018   6.194  0.00  0.00     0.017 C 
HETATM   55  C   UNK N   1      20.373  17.515   6.356  0.00  0.00     0.017 C 
ENDBRANCH  51  52
BRANCH  51  56
HETATM   56  N   UNK N   1      21.067  14.305   7.736  0.00  0.00    -0.337 N 
HETATM   57  C   UNK N   1      21.050  13.031   7.906  0.00  0.00     0.259 C 
ATOM     58  HN  UNK N   1      21.309  14.881   8.543  1.00  0.00     0.164 HD
BRANCH  57  59
HETATM   59  O   UNK N   1      20.869  12.188   6.866  0.00  0.00    -0.327 OA
HETATM   60  H   UNK N   1      20.696  11.317   6.570  0.00  0.00     0.221 HD
ENDBRANCH  57  59
BRANCH  57  61
HETATM   61  O   UNK N   1      21.040  12.557   9.163  0.00  0.00    -0.311 OA
BRANCH  61  62
HETATM   62  C   UNK N   1      22.101  12.870   9.977  0.00  0.00     0.132 C 
HETATM   63  C   UNK N   1      23.396  12.412   9.341  0.00  0.00     0.032 C 
HETATM   64  C   UNK N   1      24.320  12.079  10.496  0.00  0.00     0.002 C 
HETATM   65  C   UNK N   1      23.473  12.135  11.759  0.00  0.00     0.002 C 
HETATM   66  C   UNK N   1      22.030  12.156  11.296  0.00  0.00     0.032 C 
ENDBRANCH  61  62
ENDBRANCH  57  61
ENDBRANCH  51  56
ENDBRANCH   5  51
TORSDOF 19
ENDMDL
MODEL 4
REMARK VINA RESULT:      -7.8      3.608      9.261
REMARK  19 active torsions:
REMARK  status: ('A' for Active; 'I' for Inactive)
REMARK    1  A    between atoms: C_21  and  C_8 
REMARK    2  A    between atoms: C_33  and  C_20 
REMARK    3  A    between atoms: O_61  and  C_22 
REMARK    4  A    between atoms: C_23  and  O_60 
REMARK    5  A    between atoms: C_26  and  C_25 
REMARK    6  A    between atoms: C_27  and  C_34 
REMARK    7  A    between atoms: O_59  and  C_28 
REMARK    8  A    between atoms: O_60  and  C_29 
REMARK    9  A    between atoms: C_35  and  C_32 
REMARK   10  A    between atoms: C_39  and  C_32 
REMARK   11  A    between atoms: C_32  and  N_46 
REMARK   12  A    between atoms: O_53  and  C_33 
REMARK   13  A    between atoms: C_34  and  O_54 
REMARK       I    between atoms: N_52  and  C_35 
REMARK   14  A    between atoms: C_40  and  C_36 
REMARK   15  A    between atoms: O_57  and  C_36 
REMARK   16  A    between atoms: N_48  and  C_37 
REMARK   17  A    between atoms: C_38  and  O_58 
REMARK   18  A    between atoms: O_61  and  C_38 
REMARK   19  A    between atoms: C_40  and  N_50 
ROOT
HETATM    1  C   UNK N   1      27.500  16.740   5.941  0.00  0.00     0.068 C 
HETATM    2  C   UNK N   1      26.611  16.720   3.652  0.00  0.00     0.159 C 
HETATM    3  C   UNK N   1      26.825  17.604   4.879  0.00  0.00     0.149 C 
HETATM    4  C   UNK N   1      27.705  15.367   5.332  0.00  0.00     0.164 C 
HETATM    5  C   UNK N   1      26.720  14.291   3.306  0.00  0.00     0.244 C 
HETATM    6  N   UNK N   1      26.981  15.397   4.078  0.00  0.00    -0.336 N 
HETATM    7  O   UNK N   1      26.216  14.451   2.197  0.00  0.00    -0.271 OA
ENDROOT
BRANCH   3   8
HETATM    8  O   UNK N   1      25.646  18.147   5.384  0.00  0.00    -0.343 OA
BRANCH   8   9
HETATM    9  C   UNK N   1      24.364  17.783   5.078  0.00  0.00     0.084 A 
HETATM   10  C   UNK N   1      23.821  16.578   5.530  0.00  0.00     0.069 A 
HETATM   11  C   UNK N   1      22.520  16.206   5.190  0.00  0.00     0.062 A 
HETATM   12  N   UNK N   1      21.765  17.030   4.414  0.00  0.00    -0.352 N 
HETATM   13  C   UNK N   1      22.259  18.207   3.928  0.00  0.00     0.066 A 
ATOM     14  HN  UNK N   1      20.807  16.763   4.189  1.00  0.00     0.166 HD
HETATM   15  C   UNK N   1      23.578  18.604   4.258  0.00  0.00     0.026 A 
HETATM   16  C   UNK N   1      21.471  19.009   3.078  0.00  0.00     0.071 A 
HETATM   17  C   UNK N   1      24.084  19.806   3.768  0.00  0.00     0.019 A 
HETATM   18  C   UNK N   1      23.311  20.599   2.929  0.00  0.00     0.039 A 
HETATM   19  C   UNK N   1      22.020  20.217   2.551  0.00  0.00     0.087 A 
HETATM   20 Br   UNK N   1      19.678  18.406   2.691  0.00  0.00    -0.046 Br
BRANCH  11  21
HETATM   21  C   UNK N   1      21.996  14.904   5.639  0.00  0.00     0.067 A 
HETATM   22  C   UNK N   1      21.222  14.087   4.790  0.00  0.00     0.085 A 
HETATM   23  S   UNK N   1      20.866  12.751   5.689  0.00  0.00    -0.063 SA
HETATM   24  C   UNK N   1      21.665  13.178   7.071  0.00  0.00     0.150 A 
HETATM   25  N   UNK N   1      22.226  14.402   6.907  0.00  0.00    -0.334 N 
ATOM     26  HN  UNK N   1      22.753  14.892   7.630  1.00  0.00     0.168 HD
BRANCH  24  27
HETATM   27  N   UNK N   1      21.807  12.401   8.258  0.00  0.00    -0.321 N 
HETATM   28  C   UNK N   1      21.709  12.873   9.461  0.00  0.00     0.120 C 
ATOM     29  HN  UNK N   1      21.998  11.405   8.153  1.00  0.00     0.169 HD
BRANCH  28  30
HETATM   30  C   UNK N   1      21.894  11.956  10.635  0.00  0.00     0.052 C 
HETATM   31  C   UNK N   1      20.794  12.128  11.672  0.00  0.00     0.018 C 
HETATM   32  C   UNK N   1      23.233  12.229  11.293  0.00  0.00     0.018 C 
ENDBRANCH  28  30
BRANCH  28  33
HETATM   33  O   UNK N   1      21.411  14.170   9.677  0.00  0.00    -0.349 OA
HETATM   34  H   UNK N   1      20.713  14.625   9.250  0.00  0.00     0.219 HD
ENDBRANCH  28  33
ENDBRANCH  24  27
ENDBRANCH  11  21
BRANCH  19  35
HETATM   35  O   UNK N   1      21.377  21.033   1.677  0.00  0.00    -0.355 OA
HETATM   36  C   UNK N   1      21.030  20.708   0.389  0.00  0.00     0.210 C 
ENDBRANCH  19  35
ENDBRANCH   8   9
ENDBRANCH   3   8
BRANCH   4  37
HETATM   37  C   UNK N   1      29.159  15.162   4.992  0.00  0.00     0.136 C 
HETATM   38  N   UNK N   1      29.916  16.180   4.729  0.00  0.00    -0.353 N 
ATOM     39  HN  UNK N   1      29.438  17.074   4.622  1.00  0.00     0.162 HD
BRANCH  38  40
HETATM   40  C   UNK N   1      31.374  16.208   4.565  0.00  0.00     0.125 A 
HETATM   41  C   UNK N   1      32.065  17.462   5.072  0.00  0.00     0.054 A 
HETATM   42  C   UNK N   1      32.337  16.135   5.760  0.00  0.00     0.049 A 
BRANCH  42  43
HETATM   43  C   UNK N   1      31.814  16.266   7.150  0.00  0.00    -0.029 C 
HETATM   44  C   UNK N   1      32.107  17.338   7.877  0.00  0.00     0.007 C 
ENDBRANCH  42  43
BRANCH  40  45
HETATM   45  C   UNK N   1      31.870  15.782   3.209  0.00  0.00     0.170 C 
HETATM   46  O   UNK N   1      32.275  16.603   2.399  0.00  0.00    -0.648 OA
BRANCH  45  47
HETATM   47  O   UNK N   1      31.842  14.479   2.874  0.00  0.00    -0.774 OA
HETATM   48  H   UNK N   1      32.211  13.641   2.676  0.00  0.00     0.167 HD
ENDBRANCH  45  47
ENDBRANCH  40  45
ENDBRANCH  38  40
BRANCH  37  49
HETATM   49  O   UNK N   1      29.657  13.908   5.046  0.00  0.00    -0.348 OA
HETATM   50  H   UNK N   1      29.820  13.094   4.611  0.00  0.00     0.219 HD
ENDBRANCH  37  49
ENDBRANCH   4  37
BRANCH   5  51
HETATM   51  C   UNK N   1      26.957  12.859   3.790  0.00  0.00     0.185 C 
BRANCH  51  52
HETATM   52  C   UNK N   1      27.715  11.970   2.750  0.00  0.00    -0.022 C 
HETATM   53  C   UNK N   1      28.367  10.773   3.429  0.00  0.00     0.017 C 
HETATM   54  C   UNK N   1      28.809  12.732   2.046  0.00  0.00     0.017 C 
HETATM   55  C   UNK N   1      26.779  11.432   1.678  0.00  0.00     0.017 C 
ENDBRANCH  51  52
BRANCH  51  56
HETATM   56  N   UNK N   1      25.653  12.265   4.009  0.00  0.00    -0.337 N 
HETATM   57  C   UNK N   1      25.064  12.152   5.146  0.00  0.00     0.259 C 
ATOM     58  HN  UNK N   1      25.161  11.905   3.191  1.00  0.00     0.164 HD
BRANCH  57  59
HETATM   59  O   UNK N   1      25.579  12.717   6.260  0.00  0.00    -0.327 OA
HETATM   60  H   UNK N   1      25.497  12.882   7.178  0.00  0.00     0.221 HD
ENDBRANCH  57  59
BRANCH  57  61
HETATM   61  O   UNK N   1      24.018  11.315   5.241  0.00  0.00    -0.311 OA
BRANCH  61  62
HETATM   62  C   UNK N   1      24.144  10.217   6.057  0.00  0.00     0.132 C 
HETATM   63  C   UNK N   1      25.033   9.182   5.400  0.00  0.00     0.032 C 
HETATM   64  C   UNK N   1      24.531   7.841   5.899  0.00  0.00     0.002 C 
HETATM   65  C   UNK N   1      23.234   8.114   6.646  0.00  0.00     0.002 C 
HETATM   66  C   UNK N   1      22.829   9.528   6.281  0.00  0.00     0.032 C 
ENDBRANCH  61  62
ENDBRANCH  57  61
ENDBRANCH  51  56
ENDBRANCH   5  51
TORSDOF 19
ENDMDL
MODEL 5
REMARK VINA RESULT:      -7.8      8.693     13.550
REMARK  19 active torsions:
REMARK  status: ('A' for Active; 'I' for Inactive)
REMARK    1  A    between atoms: C_21  and  C_8 
REMARK    2  A    between atoms: C_33  and  C_20 
REMARK    3  A    between atoms: O_61  and  C_22 
REMARK    4  A    between atoms: C_23  and  O_60 
REMARK    5  A    between atoms: C_26  and  C_25 
REMARK    6  A    between atoms: C_27  and  C_34 
REMARK    7  A    between atoms: O_59  and  C_28 
REMARK    8  A    between atoms: O_60  and  C_29 
REMARK    9  A    between atoms: C_35  and  C_32 
REMARK   10  A    between atoms: C_39  and  C_32 
REMARK   11  A    between atoms: C_32  and  N_46 
REMARK   12  A    between atoms: O_53  and  C_33 
REMARK   13  A    between atoms: C_34  and  O_54 
REMARK       I    between atoms: N_52  and  C_35 
REMARK   14  A    between atoms: C_40  and  C_36 
REMARK   15  A    between atoms: O_57  and  C_36 
REMARK   16  A    between atoms: N_48  and  C_37 
REMARK   17  A    between atoms: C_38  and  O_58 
REMARK   18  A    between atoms: O_61  and  C_38 
REMARK   19  A    between atoms: C_40  and  N_50 
ROOT
HETATM    1  C   UNK N   1      34.538  15.210  10.949  0.00  0.00     0.068 C 
HETATM    2  C   UNK N   1      36.767  14.871   9.975  0.00  0.00     0.159 C 
HETATM    3  C   UNK N   1      35.729  15.935  10.328  0.00  0.00     0.149 C 
HETATM    4  C   UNK N   1      34.886  13.735  10.986  0.00  0.00     0.164 C 
HETATM    5  C   UNK N   1      36.658  12.423   9.816  0.00  0.00     0.244 C 
HETATM    6  N   UNK N   1      36.110  13.616  10.221  0.00  0.00    -0.336 N 
HETATM    7  O   UNK N   1      37.768  12.433   9.289  0.00  0.00    -0.271 OA
ENDROOT
BRANCH   3   8
HETATM    8  O   UNK N   1      35.312  16.688   9.232  0.00  0.00    -0.343 OA
BRANCH   8   9
HETATM    9  C   UNK N   1      34.234  16.454   8.425  0.00  0.00     0.084 A 
HETATM   10  C   UNK N   1      32.972  16.971   8.724  0.00  0.00     0.069 A 
HETATM   11  C   UNK N   1      31.875  16.704   7.905  0.00  0.00     0.062 A 
HETATM   12  N   UNK N   1      32.035  15.935   6.795  0.00  0.00    -0.352 N 
HETATM   13  C   UNK N   1      33.243  15.386   6.472  0.00  0.00     0.066 A 
ATOM     14  HN  UNK N   1      31.234  15.764   6.188  1.00  0.00     0.166 HD
HETATM   15  C   UNK N   1      34.371  15.642   7.290  0.00  0.00     0.026 A 
HETATM   16  C   UNK N   1      33.362  14.546   5.347  0.00  0.00     0.071 A 
HETATM   17  C   UNK N   1      35.606  15.088   6.962  0.00  0.00     0.019 A 
HETATM   18  C   UNK N   1      35.727  14.257   5.854  0.00  0.00     0.039 A 
HETATM   19  C   UNK N   1      34.626  13.953   5.049  0.00  0.00     0.087 A 
HETATM   20 Br   UNK N   1      31.782  14.262   4.274  0.00  0.00    -0.046 Br
BRANCH  11  21
HETATM   21  C   UNK N   1      30.547  17.222   8.278  0.00  0.00     0.067 A 
HETATM   22  C   UNK N   1      29.966  16.933   9.530  0.00  0.00     0.085 A 
HETATM   23  S   UNK N   1      28.512  17.710   9.517  0.00  0.00    -0.063 SA
HETATM   24  C   UNK N   1      28.621  18.389   8.015  0.00  0.00     0.150 A 
HETATM   25  N   UNK N   1      29.790  18.017   7.437  0.00  0.00    -0.334 N 
ATOM     26  HN  UNK N   1      30.076  18.290   6.497  1.00  0.00     0.168 HD
BRANCH  24  27
HETATM   27  N   UNK N   1      27.682  19.266   7.396  0.00  0.00    -0.321 N 
HETATM   28  C   UNK N   1      27.451  19.315   6.123  0.00  0.00     0.120 C 
ATOM     29  HN  UNK N   1      27.155  19.898   7.999  1.00  0.00     0.169 HD
BRANCH  28  30
HETATM   30  C   UNK N   1      26.447  20.295   5.588  0.00  0.00     0.052 C 
HETATM   31  C   UNK N   1      26.551  20.450   4.078  0.00  0.00     0.018 C 
HETATM   32  C   UNK N   1      26.660  21.650   6.234  0.00  0.00     0.018 C 
ENDBRANCH  28  30
BRANCH  28  33
HETATM   33  O   UNK N   1      28.074  18.476   5.270  0.00  0.00    -0.349 OA
HETATM   34  H   UNK N   1      28.981  18.536   5.045  0.00  0.00     0.219 HD
ENDBRANCH  28  33
ENDBRANCH  24  27
ENDBRANCH  11  21
BRANCH  19  35
HETATM   35  O   UNK N   1      34.841  13.081   4.031  0.00  0.00    -0.355 OA
HETATM   36  C   UNK N   1      35.265  13.417   2.768  0.00  0.00     0.210 C 
ENDBRANCH  19  35
ENDBRANCH   8   9
ENDBRANCH   3   8
BRANCH   4  37
HETATM   37  C   UNK N   1      35.209  13.313  12.395  0.00  0.00     0.136 C 
HETATM   38  N   UNK N   1      34.413  12.514  13.035  0.00  0.00    -0.353 N 
ATOM     39  HN  UNK N   1      33.516  12.327  12.587  1.00  0.00     0.162 HD
BRANCH  38  40
HETATM   40  C   UNK N   1      34.640  11.845  14.321  0.00  0.00     0.125 A 
HETATM   41  C   UNK N   1      33.676  10.720  14.652  0.00  0.00     0.054 A 
HETATM   42  C   UNK N   1      35.142  10.396  14.417  0.00  0.00     0.049 A 
BRANCH  42  43
HETATM   43  C   UNK N   1      35.194   9.541  13.196  0.00  0.00    -0.029 C 
HETATM   44  C   UNK N   1      35.441   8.240  13.301  0.00  0.00     0.007 C 
ENDBRANCH  42  43
BRANCH  40  45
HETATM   45  C   UNK N   1      34.873  12.770  15.486  0.00  0.00     0.170 C 
HETATM   46  O   UNK N   1      33.937  13.209  16.139  0.00  0.00    -0.648 OA
BRANCH  45  47
HETATM   47  O   UNK N   1      36.129  13.139  15.797  0.00  0.00    -0.774 OA
HETATM   48  H   UNK N   1      36.878  13.234  16.352  0.00  0.00     0.167 HD
ENDBRANCH  45  47
ENDBRANCH  40  45
ENDBRANCH  38  40
BRANCH  37  49
HETATM   49  O   UNK N   1      36.376  13.726  12.935  0.00  0.00    -0.348 OA
HETATM   50  H   UNK N   1      37.001  14.414  13.055  0.00  0.00     0.219 HD
ENDBRANCH  37  49
ENDBRANCH   4  37
BRANCH   5  51
HETATM   51  C   UNK N   1      35.922  11.086   9.921  0.00  0.00     0.185 C 
BRANCH  51  52
HETATM   52  C   UNK N   1      36.830   9.851   9.606  0.00  0.00    -0.022 C 
HETATM   53  C   UNK N   1      36.037   8.555   9.705  0.00  0.00     0.017 C 
HETATM   54  C   UNK N   1      37.986   9.740  10.568  0.00  0.00     0.017 C 
HETATM   55  C   UNK N   1      37.415   9.922   8.204  0.00  0.00     0.017 C 
ENDBRANCH  51  52
BRANCH  51  56
HETATM   56  N   UNK N   1      34.858  11.111   8.937  0.00  0.00    -0.337 N 
HETATM   57  C   UNK N   1      33.606  10.950   9.185  0.00  0.00     0.259 C 
ATOM     58  HN  UNK N   1      35.124  11.269   7.965  1.00  0.00     0.164 HD
BRANCH  57  59
HETATM   59  O   UNK N   1      33.149  10.867  10.453  0.00  0.00    -0.327 OA
HETATM   60  H   UNK N   1      33.285  10.567  11.329  0.00  0.00     0.221 HD
ENDBRANCH  57  59
BRANCH  57  61
HETATM   61  O   UNK N   1      32.782  10.690   8.157  0.00  0.00    -0.311 OA
BRANCH  61  62
HETATM   62  C   UNK N   1      33.336  10.229   6.988  0.00  0.00     0.132 C 
HETATM   63  C   UNK N   1      32.636  10.855   5.800  0.00  0.00     0.032 C 
HETATM   64  C   UNK N   1      32.717   9.824   4.691  0.00  0.00     0.002 C 
HETATM   65  C   UNK N   1      33.256   8.550   5.324  0.00  0.00     0.002 C 
HETATM   66  C   UNK N   1      33.154   8.748   6.822  0.00  0.00     0.032 C 
ENDBRANCH  61  62
ENDBRANCH  57  61
ENDBRANCH  51  56
ENDBRANCH   5  51
TORSDOF 19
ENDMDL
MODEL 6
REMARK VINA RESULT:      -7.6      8.115     12.156
REMARK  19 active torsions:
REMARK  status: ('A' for Active; 'I' for Inactive)
REMARK    1  A    between atoms: C_21  and  C_8 
REMARK    2  A    between atoms: C_33  and  C_20 
REMARK    3  A    between atoms: O_61  and  C_22 
REMARK    4  A    between atoms: C_23  and  O_60 
REMARK    5  A    between atoms: C_26  and  C_25 
REMARK    6  A    between atoms: C_27  and  C_34 
REMARK    7  A    between atoms: O_59  and  C_28 
REMARK    8  A    between atoms: O_60  and  C_29 
REMARK    9  A    between atoms: C_35  and  C_32 
REMARK   10  A    between atoms: C_39  and  C_32 
REMARK   11  A    between atoms: C_32  and  N_46 
REMARK   12  A    between atoms: O_53  and  C_33 
REMARK   13  A    between atoms: C_34  and  O_54 
REMARK       I    between atoms: N_52  and  C_35 
REMARK   14  A    between atoms: C_40  and  C_36 
REMARK   15  A    between atoms: O_57  and  C_36 
REMARK   16  A    between atoms: N_48  and  C_37 
REMARK   17  A    between atoms: C_38  and  O_58 
REMARK   18  A    between atoms: O_61  and  C_38 
REMARK   19  A    between atoms: C_40  and  N_50 
ROOT
HETATM    1  C   UNK N   1      32.863  17.158   8.537  0.00  0.00     0.068 C 
HETATM    2  C   UNK N   1      32.571  14.733   8.285  0.00  0.00     0.159 C 
HETATM    3  C   UNK N   1      33.264  15.806   9.122  0.00  0.00     0.149 C 
HETATM    4  C   UNK N   1      31.919  16.880   7.383  0.00  0.00     0.164 C 
HETATM    5  C   UNK N   1      31.434  14.789   6.110  0.00  0.00     0.244 C 
HETATM    6  N   UNK N   1      31.969  15.446   7.191  0.00  0.00    -0.336 N 
HETATM    7  O   UNK N   1      31.415  13.561   6.115  0.00  0.00    -0.271 OA
ENDROOT
BRANCH   3   8
HETATM    8  O   UNK N   1      34.652  15.687   9.139  0.00  0.00    -0.343 OA
BRANCH   8   9
HETATM    9  C   UNK N   1      35.387  14.541   9.268  0.00  0.00     0.084 A 
HETATM   10  C   UNK N   1      35.435  13.838  10.473  0.00  0.00     0.069 A 
HETATM   11  C   UNK N   1      36.209  12.684  10.599  0.00  0.00     0.062 A 
HETATM   12  N   UNK N   1      36.922  12.232   9.533  0.00  0.00    -0.352 N 
HETATM   13  C   UNK N   1      36.926  12.897   8.340  0.00  0.00     0.066 A 
ATOM     14  HN  UNK N   1      37.467  11.375   9.625  1.00  0.00     0.166 HD
HETATM   15  C   UNK N   1      36.150  14.072   8.190  0.00  0.00     0.026 A 
HETATM   16  C   UNK N   1      37.722  12.434   7.273  0.00  0.00     0.071 A 
HETATM   17  C   UNK N   1      36.148  14.752   6.973  0.00  0.00     0.019 A 
HETATM   18  C   UNK N   1      36.932  14.299   5.919  0.00  0.00     0.039 A 
HETATM   19  C   UNK N   1      37.741  13.166   6.048  0.00  0.00     0.087 A 
HETATM   20 Br   UNK N   1      38.737  10.816   7.553  0.00  0.00    -0.046 Br
BRANCH  11  21
HETATM   21  C   UNK N   1      36.280  11.995  11.900  0.00  0.00     0.067 A 
HETATM   22  C   UNK N   1      37.090  10.857  12.090  0.00  0.00     0.085 A 
HETATM   23  S   UNK N   1      36.870  10.433  13.668  0.00  0.00    -0.063 SA
HETATM   24  C   UNK N   1      35.821  11.637  14.091  0.00  0.00     0.150 A 
HETATM   25  N   UNK N   1      35.568  12.414  13.009  0.00  0.00    -0.334 N 
ATOM     26  HN  UNK N   1      34.930  13.210  13.012  1.00  0.00     0.168 HD
BRANCH  24  27
HETATM   27  N   UNK N   1      35.272  11.887  15.383  0.00  0.00    -0.321 N 
HETATM   28  C   UNK N   1      35.600  12.886  16.141  0.00  0.00     0.120 C 
ATOM     29  HN  UNK N   1      34.572  11.234  15.736  1.00  0.00     0.169 HD
BRANCH  28  30
HETATM   30  C   UNK N   1      34.963  13.034  17.492  0.00  0.00     0.052 C 
HETATM   31  C   UNK N   1      35.395  14.315  18.188  0.00  0.00     0.018 C 
HETATM   32  C   UNK N   1      35.336  11.852  18.366  0.00  0.00     0.018 C 
ENDBRANCH  28  30
BRANCH  28  33
HETATM   33  O   UNK N   1      36.483  13.816  15.721  0.00  0.00    -0.349 OA
HETATM   34  H   UNK N   1      36.514  14.152  14.848  0.00  0.00     0.219 HD
ENDBRANCH  28  33
ENDBRANCH  24  27
ENDBRANCH  11  21
BRANCH  19  35
HETATM   35  O   UNK N   1      38.515  12.849   4.978  0.00  0.00    -0.355 OA
HETATM   36  C   UNK N   1      39.154  13.748   4.160  0.00  0.00     0.210 C 
ENDBRANCH  19  35
ENDBRANCH   8   9
ENDBRANCH   3   8
BRANCH   4  37
HETATM   37  C   UNK N   1      30.505  17.220   7.776  0.00  0.00     0.136 C 
HETATM   38  N   UNK N   1      29.768  17.946   6.994  0.00  0.00    -0.353 N 
ATOM     39  HN  UNK N   1      30.248  18.378   6.205  1.00  0.00     0.162 HD
BRANCH  38  40
HETATM   40  C   UNK N   1      28.331  18.224   7.102  0.00  0.00     0.125 A 
HETATM   41  C   UNK N   1      27.943  19.690   7.036  0.00  0.00     0.054 A 
HETATM   42  C   UNK N   1      27.506  18.755   5.921  0.00  0.00     0.049 A 
BRANCH  42  43
HETATM   43  C   UNK N   1      28.191  19.227   4.683  0.00  0.00    -0.029 C 
HETATM   44  C   UNK N   1      27.515  19.904   3.762  0.00  0.00     0.007 C 
ENDBRANCH  42  43
BRANCH  40  45
HETATM   45  C   UNK N   1      27.622  17.485   8.206  0.00  0.00     0.170 C 
HETATM   46  O   UNK N   1      27.152  16.372   8.019  0.00  0.00    -0.648 OA
BRANCH  45  47
HETATM   47  O   UNK N   1      27.480  18.071   9.410  0.00  0.00    -0.774 OA
HETATM   48  H   UNK N   1      27.602  18.743  10.051  0.00  0.00     0.167 HD
ENDBRANCH  45  47
ENDBRANCH  40  45
ENDBRANCH  38  40
BRANCH  37  49
HETATM   49  O   UNK N   1      30.013  16.687   8.915  0.00  0.00    -0.348 OA
HETATM   50  H   UNK N   1      29.737  16.812   9.801  0.00  0.00     0.219 HD
ENDBRANCH  37  49
ENDBRANCH   4  37
BRANCH   5  51
HETATM   51  C   UNK N   1      30.924  15.511   4.861  0.00  0.00     0.185 C 
BRANCH  51  52
HETATM   52  C   UNK N   1      29.496  15.053   4.416  0.00  0.00    -0.022 C 
HETATM   53  C   UNK N   1      29.556  13.721   3.681  0.00  0.00     0.017 C 
HETATM   54  C   UNK N   1      28.849  16.046   3.485  0.00  0.00     0.017 C 
HETATM   55  C   UNK N   1      28.564  14.877   5.605  0.00  0.00     0.017 C 
ENDBRANCH  51  52
BRANCH  51  56
HETATM   56  N   UNK N   1      31.843  15.193   3.785  0.00  0.00    -0.337 N 
HETATM   57  C   UNK N   1      32.965  15.780   3.562  0.00  0.00     0.259 C 
ATOM     58  HN  UNK N   1      31.575  14.441   3.150  1.00  0.00     0.164 HD
BRANCH  57  59
HETATM   59  O   UNK N   1      33.461  16.693   4.425  0.00  0.00    -0.327 OA
HETATM   60  H   UNK N   1      33.775  16.885   5.286  0.00  0.00     0.221 HD
ENDBRANCH  57  59
BRANCH  57  61
HETATM   61  O   UNK N   1      33.553  15.596   2.369  0.00  0.00    -0.311 OA
BRANCH  61  62
HETATM   62  C   UNK N   1      34.027  14.342   2.070  0.00  0.00     0.132 C 
HETATM   63  C   UNK N   1      34.572  13.683   3.319  0.00  0.00     0.032 C 
HETATM   64  C   UNK N   1      35.683  12.768   2.844  0.00  0.00     0.002 C 
HETATM   65  C   UNK N   1      35.906  13.085   1.373  0.00  0.00     0.002 C 
HETATM   66  C   UNK N   1      35.181  14.389   1.110  0.00  0.00     0.032 C 
ENDBRANCH  61  62
ENDBRANCH  57  61
ENDBRANCH  51  56
ENDBRANCH   5  51
TORSDOF 19
ENDMDL
MODEL 7
REMARK VINA RESULT:      -7.6      3.104      8.437
REMARK  19 active torsions:
REMARK  status: ('A' for Active; 'I' for Inactive)
REMARK    1  A    between atoms: C_21  and  C_8 
REMARK    2  A    between atoms: C_33  and  C_20 
REMARK    3  A    between atoms: O_61  and  C_22 
REMARK    4  A    between atoms: C_23  and  O_60 
REMARK    5  A    between atoms: C_26  and  C_25 
REMARK    6  A    between atoms: C_27  and  C_34 
REMARK    7  A    between atoms: O_59  and  C_28 
REMARK    8  A    between atoms: O_60  and  C_29 
REMARK    9  A    between atoms: C_35  and  C_32 
REMARK   10  A    between atoms: C_39  and  C_32 
REMARK   11  A    between atoms: C_32  and  N_46 
REMARK   12  A    between atoms: O_53  and  C_33 
REMARK   13  A    between atoms: C_34  and  O_54 
REMARK       I    between atoms: N_52  and  C_35 
REMARK   14  A    between atoms: C_40  and  C_36 
REMARK   15  A    between atoms: O_57  and  C_36 
REMARK   16  A    between atoms: N_48  and  C_37 
REMARK   17  A    between atoms: C_38  and  O_58 
REMARK   18  A    between atoms: O_61  and  C_38 
REMARK   19  A    between atoms: C_40  and  N_50 
ROOT
HETATM    1  C   UNK N   1      28.056  13.984   3.106  0.00  0.00     0.068 C 
HETATM    2  C   UNK N   1      27.598  14.081   5.516  0.00  0.00     0.159 C 
HETATM    3  C   UNK N   1      27.869  13.127   4.355  0.00  0.00     0.149 C 
HETATM    4  C   UNK N   1      27.924  15.432   3.536  0.00  0.00     0.164 C 
HETATM    5  C   UNK N   1      27.004  16.462   5.616  0.00  0.00     0.244 C 
HETATM    6  N   UNK N   1      27.463  15.378   4.908  0.00  0.00    -0.336 N 
HETATM    7  O   UNK N   1      26.766  16.328   6.814  0.00  0.00    -0.271 OA
ENDROOT
BRANCH   3   8
HETATM    8  O   UNK N   1      26.850  12.200   4.150  0.00  0.00    -0.343 OA
BRANCH   8   9
HETATM    9  C   UNK N   1      25.532  12.455   3.895  0.00  0.00     0.084 A 
HETATM   10  C   UNK N   1      24.699  13.023   4.860  0.00  0.00     0.069 A 
HETATM   11  C   UNK N   1      23.349  13.256   4.596  0.00  0.00     0.062 A 
HETATM   12  N   UNK N   1      22.836  12.932   3.378  0.00  0.00    -0.352 N 
HETATM   13  C   UNK N   1      23.604  12.352   2.409  0.00  0.00     0.066 A 
ATOM     14  HN  UNK N   1      21.854  13.126   3.183  1.00  0.00     0.166 HD
HETATM   15  C   UNK N   1      24.976  12.105   2.656  0.00  0.00     0.026 A 
HETATM   16  C   UNK N   1      23.028  11.975   1.179  0.00  0.00     0.071 A 
HETATM   17  C   UNK N   1      25.765  11.518   1.668  0.00  0.00     0.019 A 
HETATM   18  C   UNK N   1      25.200  11.143   0.455  0.00  0.00     0.039 A 
HETATM   19  C   UNK N   1      23.840  11.337   0.194  0.00  0.00     0.087 A 
HETATM   20 Br   UNK N   1      21.155  12.363   0.915  0.00  0.00    -0.046 Br
BRANCH  11  21
HETATM   21  C   UNK N   1      22.485  13.808   5.654  0.00  0.00     0.067 A 
HETATM   22  C   UNK N   1      21.425  14.689   5.358  0.00  0.00     0.085 A 
HETATM   23  S   UNK N   1      20.739  15.039   6.816  0.00  0.00    -0.063 SA
HETATM   24  C   UNK N   1      21.720  14.110   7.767  0.00  0.00     0.150 A 
HETATM   25  N   UNK N   1      22.653  13.503   6.993  0.00  0.00    -0.334 N 
ATOM     26  HN  UNK N   1      23.389  12.895   7.353  1.00  0.00     0.168 HD
BRANCH  24  27
HETATM   27  N   UNK N   1      21.619  13.913   9.176  0.00  0.00    -0.321 N 
HETATM   28  C   UNK N   1      21.895  12.803   9.785  0.00  0.00     0.120 C 
ATOM     29  HN  UNK N   1      21.308  14.700   9.744  1.00  0.00     0.169 HD
BRANCH  28  30
HETATM   30  C   UNK N   1      21.733  12.713  11.274  0.00  0.00     0.052 C 
HETATM   31  C   UNK N   1      22.839  11.891  11.919  0.00  0.00     0.018 C 
HETATM   32  C   UNK N   1      20.396  12.081  11.607  0.00  0.00     0.018 C 
ENDBRANCH  28  30
BRANCH  28  33
HETATM   33  O   UNK N   1      22.358  11.734   9.105  0.00  0.00    -0.349 OA
HETATM   34  H   UNK N   1      21.944  11.378   8.344  0.00  0.00     0.219 HD
ENDBRANCH  28  33
ENDBRANCH  24  27
ENDBRANCH  11  21
BRANCH  19  35
HETATM   35  O   UNK N   1      23.379  10.876  -0.997  0.00  0.00    -0.355 OA
HETATM   36  C   UNK N   1      23.332   9.557  -1.379  0.00  0.00     0.210 C 
ENDBRANCH  19  35
ENDBRANCH   8   9
ENDBRANCH   3   8
BRANCH   4  37
HETATM   37  C   UNK N   1      29.277  16.094   3.555  0.00  0.00     0.136 C 
HETATM   38  N   UNK N   1      30.199  15.668   4.361  0.00  0.00    -0.353 N 
ATOM     39  HN  UNK N   1      29.901  14.986   5.057  1.00  0.00     0.162 HD
BRANCH  38  40
HETATM   40  C   UNK N   1      31.617  16.046   4.397  0.00  0.00     0.125 A 
HETATM   41  C   UNK N   1      31.903  17.469   4.842  0.00  0.00     0.054 A 
HETATM   42  C   UNK N   1      32.363  16.312   5.713  0.00  0.00     0.049 A 
BRANCH  42  43
HETATM   43  C   UNK N   1      31.605  16.421   6.993  0.00  0.00    -0.029 C 
HETATM   44  C   UNK N   1      31.829  17.437   7.818  0.00  0.00     0.007 C 
ENDBRANCH  42  43
BRANCH  40  45
HETATM   45  C   UNK N   1      32.412  15.647   3.182  0.00  0.00     0.170 C 
HETATM   46  O   UNK N   1      32.533  14.472   2.866  0.00  0.00    -0.648 OA
BRANCH  45  47
HETATM   47  O   UNK N   1      33.021  16.597   2.449  0.00  0.00    -0.774 OA
HETATM   48  H   UNK N   1      33.092  17.227   1.760  0.00  0.00     0.167 HD
ENDBRANCH  45  47
ENDBRANCH  40  45
ENDBRANCH  38  40
BRANCH  37  49
HETATM   49  O   UNK N   1      29.518  17.079   2.664  0.00  0.00    -0.348 OA
HETATM   50  H   UNK N   1      30.140  17.638   2.240  0.00  0.00     0.219 HD
ENDBRANCH  37  49
ENDBRANCH   4  37
BRANCH   5  51
HETATM   51  C   UNK N   1      26.702  17.815   4.969  0.00  0.00     0.185 C 
BRANCH  51  52
HETATM   52  C   UNK N   1      27.560  18.987   5.549  0.00  0.00    -0.022 C 
HETATM   53  C   UNK N   1      28.304  19.718   4.439  0.00  0.00     0.017 C 
HETATM   54  C   UNK N   1      28.595  18.497   6.530  0.00  0.00     0.017 C 
HETATM   55  C   UNK N   1      26.701  20.011   6.275  0.00  0.00     0.017 C 
ENDBRANCH  51  52
BRANCH  51  56
HETATM   56  N   UNK N   1      25.309  18.113   5.242  0.00  0.00    -0.337 N 
HETATM   57  C   UNK N   1      24.311  17.747   4.520  0.00  0.00     0.259 C 
ATOM     58  HN  UNK N   1      25.105  18.660   6.079  1.00  0.00     0.164 HD
BRANCH  57  59
HETATM   59  O   UNK N   1      24.474  16.912   3.471  0.00  0.00    -0.327 OA
HETATM   60  H   UNK N   1      24.901  16.160   3.113  0.00  0.00     0.221 HD
ENDBRANCH  57  59
BRANCH  57  61
HETATM   61  O   UNK N   1      23.127  18.349   4.720  0.00  0.00    -0.311 OA
BRANCH  61  62
HETATM   62  C   UNK N   1      22.279  18.475   3.647  0.00  0.00     0.132 C 
HETATM   63  C   UNK N   1      22.293  19.901   3.139  0.00  0.00     0.032 C 
HETATM   64  C   UNK N   1      20.909  20.143   2.568  0.00  0.00     0.002 C 
HETATM   65  C   UNK N   1      20.064  18.940   2.959  0.00  0.00     0.002 C 
HETATM   66  C   UNK N   1      20.851  18.199   4.020  0.00  0.00     0.032 C 
ENDBRANCH  61  62
ENDBRANCH  57  61
ENDBRANCH  51  56
ENDBRANCH   5  51
TORSDOF 19
ENDMDL
MODEL 8
REMARK VINA RESULT:      -7.6      4.186      6.752
REMARK  19 active torsions:
REMARK  status: ('A' for Active; 'I' for Inactive)
REMARK    1  A    between atoms: C_21  and  C_8 
REMARK    2  A    between atoms: C_33  and  C_20 
REMARK    3  A    between atoms: O_61  and  C_22 
REMARK    4  A    between atoms: C_23  and  O_60 
REMARK    5  A    between atoms: C_26  and  C_25 
REMARK    6  A    between atoms: C_27  and  C_34 
REMARK    7  A    between atoms: O_59  and  C_28 
REMARK    8  A    between atoms: O_60  and  C_29 
REMARK    9  A    between atoms: C_35  and  C_32 
REMARK   10  A    between atoms: C_39  and  C_32 
REMARK   11  A    between atoms: C_32  and  N_46 
REMARK   12  A    between atoms: O_53  and  C_33 
REMARK   13  A    between atoms: C_34  and  O_54 
REMARK       I    between atoms: N_52  and  C_35 
REMARK   14  A    between atoms: C_40  and  C_36 
REMARK   15  A    between atoms: O_57  and  C_36 
REMARK   16  A    between atoms: N_48  and  C_37 
REMARK   17  A    between atoms: C_38  and  O_58 
REMARK   18  A    between atoms: O_61  and  C_38 
REMARK   19  A    between atoms: C_40  and  N_50 
ROOT
HETATM    1  C   UNK N   1      26.457  18.320   3.851  0.00  0.00     0.068 C 
HETATM    2  C   UNK N   1      27.066  17.192   5.946  0.00  0.00     0.159 C 
HETATM    3  C   UNK N   1      27.491  18.291   4.974  0.00  0.00     0.149 C 
HETATM    4  C   UNK N   1      25.417  17.265   4.178  0.00  0.00     0.164 C 
HETATM    5  C   UNK N   1      25.448  15.353   5.781  0.00  0.00     0.244 C 
HETATM    6  N   UNK N   1      25.962  16.533   5.302  0.00  0.00    -0.336 N 
HETATM    7  O   UNK N   1      25.907  14.888   6.822  0.00  0.00    -0.271 OA
ENDROOT
BRANCH   3   8
HETATM    8  O   UNK N   1      28.765  18.100   4.444  0.00  0.00    -0.343 OA
BRANCH   8   9
HETATM    9  C   UNK N   1      29.654  17.107   4.751  0.00  0.00     0.084 A 
HETATM   10  C   UNK N   1      30.643  17.288   5.720  0.00  0.00     0.069 A 
HETATM   11  C   UNK N   1      31.560  16.276   6.006  0.00  0.00     0.062 A 
HETATM   12  N   UNK N   1      31.487  15.093   5.339  0.00  0.00    -0.352 N 
HETATM   13  C   UNK N   1      30.553  14.876   4.366  0.00  0.00     0.066 A 
ATOM     14  HN  UNK N   1      32.145  14.350   5.569  1.00  0.00     0.166 HD
HETATM   15  C   UNK N   1      29.614  15.890   4.057  0.00  0.00     0.026 A 
HETATM   16  C   UNK N   1      30.543  13.661   3.652  0.00  0.00     0.071 A 
HETATM   17  C   UNK N   1      28.657  15.671   3.068  0.00  0.00     0.019 A 
HETATM   18  C   UNK N   1      28.644  14.475   2.361  0.00  0.00     0.039 A 
HETATM   19  C   UNK N   1      29.582  13.470   2.614  0.00  0.00     0.087 A 
HETATM   20 Br   UNK N   1      31.845  12.324   4.146  0.00  0.00    -0.046 Br
BRANCH  11  21
HETATM   21  C   UNK N   1      32.624  16.518   6.996  0.00  0.00     0.067 A 
HETATM   22  C   UNK N   1      33.032  17.824   7.337  0.00  0.00     0.085 A 
HETATM   23  S   UNK N   1      34.216  17.621   8.467  0.00  0.00    -0.063 SA
HETATM   24  C   UNK N   1      34.199  15.970   8.532  0.00  0.00     0.150 A 
HETATM   25  N   UNK N   1      33.284  15.495   7.651  0.00  0.00    -0.334 N 
ATOM     26  HN  UNK N   1      33.105  14.504   7.490  1.00  0.00     0.168 HD
BRANCH  24  27
HETATM   27  N   UNK N   1      34.972  15.134   9.390  0.00  0.00    -0.321 N 
HETATM   28  C   UNK N   1      34.571  14.688  10.539  0.00  0.00     0.120 C 
ATOM     29  HN  UNK N   1      35.905  14.867   9.078  1.00  0.00     0.169 HD
BRANCH  28  30
HETATM   30  C   UNK N   1      35.485  13.826  11.361  0.00  0.00     0.052 C 
HETATM   31  C   UNK N   1      34.868  12.469  11.665  0.00  0.00     0.018 C 
HETATM   32  C   UNK N   1      35.807  14.521  12.669  0.00  0.00     0.018 C 
ENDBRANCH  28  30
BRANCH  28  33
HETATM   33  O   UNK N   1      33.332  14.960  10.996  0.00  0.00    -0.349 OA
HETATM   34  H   UNK N   1      32.548  14.816  10.503  0.00  0.00     0.219 HD
ENDBRANCH  28  33
ENDBRANCH  24  27
ENDBRANCH  11  21
BRANCH  19  35
HETATM   35  O   UNK N   1      29.519  12.369   1.822  0.00  0.00    -0.355 OA
HETATM   36  C   UNK N   1      30.158  12.214   0.616  0.00  0.00     0.210 C 
ENDBRANCH  19  35
ENDBRANCH   8   9
ENDBRANCH   3   8
BRANCH   4  37
HETATM   37  C   UNK N   1      24.147  17.919   4.656  0.00  0.00     0.136 C 
HETATM   38  N   UNK N   1      23.004  17.562   4.160  0.00  0.00    -0.353 N 
ATOM     39  HN  UNK N   1      23.044  16.945   3.348  1.00  0.00     0.162 HD
BRANCH  38  40
HETATM   40  C   UNK N   1      21.660  17.934   4.617  0.00  0.00     0.125 A 
HETATM   41  C   UNK N   1      21.152  19.279   4.130  0.00  0.00     0.054 A 
HETATM   42  C   UNK N   1      20.459  18.010   3.663  0.00  0.00     0.049 A 
BRANCH  42  43
HETATM   43  C   UNK N   1      20.669  17.932   2.189  0.00  0.00    -0.029 C 
HETATM   44  C   UNK N   1      19.994  17.048   1.463  0.00  0.00     0.007 C 
ENDBRANCH  42  43
BRANCH  40  45
HETATM   45  C   UNK N   1      21.406  17.716   6.085  0.00  0.00     0.170 C 
HETATM   46  O   UNK N   1      21.313  18.661   6.856  0.00  0.00    -0.648 OA
BRANCH  45  47
HETATM   47  O   UNK N   1      21.306  16.461   6.561  0.00  0.00    -0.774 OA
HETATM   48  H   UNK N   1      21.362  15.527   6.521  0.00  0.00     0.167 HD
ENDBRANCH  45  47
ENDBRANCH  40  45
ENDBRANCH  38  40
BRANCH  37  49
HETATM   49  O   UNK N   1      24.230  18.821   5.657  0.00  0.00    -0.348 OA
HETATM   50  H   UNK N   1      23.842  19.534   6.125  0.00  0.00     0.219 HD
ENDBRANCH  37  49
ENDBRANCH   4  37
BRANCH   5  51
HETATM   51  C   UNK N   1      24.380  14.544   5.041  0.00  0.00     0.185 C 
BRANCH  51  52
HETATM   52  C   UNK N   1      23.798  13.364   5.886  0.00  0.00    -0.022 C 
HETATM   53  C   UNK N   1      22.527  12.816   5.252  0.00  0.00     0.017 C 
HETATM   54  C   UNK N   1      23.446  13.792   7.288  0.00  0.00     0.017 C 
HETATM   55  C   UNK N   1      24.784  12.211   6.001  0.00  0.00     0.017 C 
ENDBRANCH  51  52
BRANCH  51  56
HETATM   56  N   UNK N   1      25.017  13.975   3.870  0.00  0.00    -0.337 N 
HETATM   57  C   UNK N   1      24.633  14.141   2.654  0.00  0.00     0.259 C 
ATOM     58  HN  UNK N   1      25.840  13.391   4.024  1.00  0.00     0.164 HD
BRANCH  57  59
HETATM   59  O   UNK N   1      23.638  15.000   2.346  0.00  0.00    -0.327 OA
HETATM   60  H   UNK N   1      22.744  15.125   2.098  0.00  0.00     0.221 HD
ENDBRANCH  57  59
BRANCH  57  61
HETATM   61  O   UNK N   1      25.121  13.315   1.714  0.00  0.00    -0.311 OA
BRANCH  61  62
HETATM   62  C   UNK N   1      24.351  12.242   1.337  0.00  0.00     0.132 C 
HETATM   63  C   UNK N   1      25.208  10.997   1.245  0.00  0.00     0.032 C 
HETATM   64  C   UNK N   1      24.567  10.142   0.170  0.00  0.00     0.002 C 
HETATM   65  C   UNK N   1      23.498  11.002  -0.488  0.00  0.00     0.002 C 
HETATM   66  C   UNK N   1      23.763  12.422  -0.032  0.00  0.00     0.032 C 
ENDBRANCH  61  62
ENDBRANCH  57  61
ENDBRANCH  51  56
ENDBRANCH   5  51
TORSDOF 19
ENDMDL
MODEL 9
REMARK VINA RESULT:      -7.4      9.270     14.690
REMARK  19 active torsions:
REMARK  status: ('A' for Active; 'I' for Inactive)
REMARK    1  A    between atoms: C_21  and  C_8 
REMARK    2  A    between atoms: C_33  and  C_20 
REMARK    3  A    between atoms: O_61  and  C_22 
REMARK    4  A    between atoms: C_23  and  O_60 
REMARK    5  A    between atoms: C_26  and  C_25 
REMARK    6  A    between atoms: C_27  and  C_34 
REMARK    7  A    between atoms: O_59  and  C_28 
REMARK    8  A    between atoms: O_60  and  C_29 
REMARK    9  A    between atoms: C_35  and  C_32 
REMARK   10  A    between atoms: C_39  and  C_32 
REMARK   11  A    between atoms: C_32  and  N_46 
REMARK   12  A    between atoms: O_53  and  C_33 
REMARK   13  A    between atoms: C_34  and  O_54 
REMARK       I    between atoms: N_52  and  C_35 
REMARK   14  A    between atoms: C_40  and  C_36 
REMARK   15  A    between atoms: O_57  and  C_36 
REMARK   16  A    between atoms: N_48  and  C_37 
REMARK   17  A    between atoms: C_38  and  O_58 
REMARK   18  A    between atoms: O_61  and  C_38 
REMARK   19  A    between atoms: C_40  and  N_50 
ROOT
HETATM    1  C   UNK N   1      33.830  15.395  10.721  0.00  0.00     0.068 C 
HETATM    2  C   UNK N   1      36.142  16.038  10.201  0.00  0.00     0.159 C 
HETATM    3  C   UNK N   1      34.739  16.590  10.441  0.00  0.00     0.149 C 
HETATM    4  C   UNK N   1      34.700  14.154  10.673  0.00  0.00     0.164 C 
HETATM    5  C   UNK N   1      36.994  13.777   9.764  0.00  0.00     0.244 C 
HETATM    6  N   UNK N   1      35.980  14.609  10.170  0.00  0.00    -0.336 N 
HETATM    7  O   UNK N   1      38.085  14.268   9.483  0.00  0.00    -0.271 OA
ENDROOT
BRANCH   3   8
HETATM    8  O   UNK N   1      34.241  17.327   9.370  0.00  0.00    -0.343 OA
BRANCH   8   9
HETATM    9  C   UNK N   1      33.565  16.856   8.278  0.00  0.00     0.084 A 
HETATM   10  C   UNK N   1      34.206  16.107   7.291  0.00  0.00     0.069 A 
HETATM   11  C   UNK N   1      33.511  15.654   6.169  0.00  0.00     0.062 A 
HETATM   12  N   UNK N   1      32.187  15.939   6.038  0.00  0.00    -0.352 N 
HETATM   13  C   UNK N   1      31.521  16.689   6.964  0.00  0.00     0.066 A 
ATOM     14  HN  UNK N   1      31.680  15.585   5.227  1.00  0.00     0.166 HD
HETATM   15  C   UNK N   1      32.207  17.161   8.109  0.00  0.00     0.026 A 
HETATM   16  C   UNK N   1      30.164  17.016   6.768  0.00  0.00     0.071 A 
HETATM   17  C   UNK N   1      31.530  17.923   9.059  0.00  0.00     0.019 A 
HETATM   18  C   UNK N   1      30.192  18.249   8.869  0.00  0.00     0.039 A 
HETATM   19  C   UNK N   1      29.497  17.832   7.730  0.00  0.00     0.087 A 
HETATM   20 Br   UNK N   1      29.297  16.319   5.190  0.00  0.00    -0.046 Br
BRANCH  11  21
HETATM   21  C   UNK N   1      34.229  14.910   5.120  0.00  0.00     0.067 A 
HETATM   22  C   UNK N   1      33.641  14.647   3.866  0.00  0.00     0.085 A 
HETATM   23  S   UNK N   1      34.786  13.814   3.021  0.00  0.00    -0.063 SA
HETATM   24  C   UNK N   1      35.968  13.803   4.175  0.00  0.00     0.150 A 
HETATM   25  N   UNK N   1      35.514  14.427   5.290  0.00  0.00    -0.334 N 
ATOM     26  HN  UNK N   1      36.054  14.527   6.150  1.00  0.00     0.168 HD
BRANCH  24  27
HETATM   27  N   UNK N   1      37.286  13.273   4.053  0.00  0.00    -0.321 N 
HETATM   28  C   UNK N   1      38.347  13.813   4.565  0.00  0.00     0.120 C 
ATOM     29  HN  UNK N   1      37.402  12.407   3.527  1.00  0.00     0.169 HD
BRANCH  28  30
HETATM   30  C   UNK N   1      39.685  13.167   4.353  0.00  0.00     0.052 C 
HETATM   31  C   UNK N   1      39.722  12.338   3.078  0.00  0.00     0.018 C 
HETATM   32  C   UNK N   1      40.012  12.269   5.530  0.00  0.00     0.018 C 
ENDBRANCH  28  30
BRANCH  28  33
HETATM   33  O   UNK N   1      38.264  14.932   5.313  0.00  0.00    -0.349 OA
HETATM   34  H   UNK N   1      37.957  15.756   4.991  0.00  0.00     0.219 HD
ENDBRANCH  28  33
ENDBRANCH  24  27
ENDBRANCH  11  21
BRANCH  19  35
HETATM   35  O   UNK N   1      28.213  18.260   7.613  0.00  0.00    -0.355 OA
HETATM   36  C   UNK N   1      27.814  19.438   7.032  0.00  0.00     0.210 C 
ENDBRANCH  19  35
ENDBRANCH   8   9
ENDBRANCH   3   8
BRANCH   4  37
HETATM   37  C   UNK N   1      34.938  13.632  12.066  0.00  0.00     0.136 C 
HETATM   38  N   UNK N   1      34.508  12.457  12.403  0.00  0.00    -0.353 N 
ATOM     39  HN  UNK N   1      33.889  12.000  11.733  1.00  0.00     0.162 HD
BRANCH  38  40
HETATM   40  C   UNK N   1      34.797  11.702  13.628  0.00  0.00     0.125 A 
HETATM   41  C   UNK N   1      33.697  10.766  14.094  0.00  0.00     0.054 A 
HETATM   42  C   UNK N   1      35.018  10.182  13.623  0.00  0.00     0.049 A 
BRANCH  42  43
HETATM   43  C   UNK N   1      34.716   9.387  12.399  0.00  0.00    -0.029 C 
HETATM   44  C   UNK N   1      35.042   8.101  12.339  0.00  0.00     0.007 C 
ENDBRANCH  42  43
BRANCH  40  45
HETATM   45  C   UNK N   1      35.382  12.515  14.753  0.00  0.00     0.170 C 
HETATM   46  O   UNK N   1      36.585  12.516  14.970  0.00  0.00    -0.648 OA
BRANCH  45  47
HETATM   47  O   UNK N   1      34.564  13.230  15.547  0.00  0.00    -0.774 OA
HETATM   48  H   UNK N   1      34.302  13.655  16.339  0.00  0.00     0.167 HD
ENDBRANCH  45  47
ENDBRANCH  40  45
ENDBRANCH  38  40
BRANCH  37  49
HETATM   49  O   UNK N   1      35.671  14.386  12.914  0.00  0.00    -0.348 OA
HETATM   50  H   UNK N   1      35.888  14.613  13.797  0.00  0.00     0.219 HD
ENDBRANCH  37  49
ENDBRANCH   4  37
BRANCH   5  51
HETATM   51  C   UNK N   1      36.812  12.270   9.571  0.00  0.00     0.185 C 
BRANCH  51  52
HETATM   52  C   UNK N   1      37.879  11.413  10.330  0.00  0.00    -0.022 C 
HETATM   53  C   UNK N   1      37.939  11.799  11.802  0.00  0.00     0.017 C 
HETATM   54  C   UNK N   1      39.263  11.603   9.763  0.00  0.00     0.017 C 
HETATM   55  C   UNK N   1      37.563   9.927  10.261  0.00  0.00     0.017 C 
ENDBRANCH  51  52
BRANCH  51  56
HETATM   56  N   UNK N   1      36.963  12.004   8.153  0.00  0.00    -0.337 N 
HETATM   57  C   UNK N   1      36.003  11.917   7.303  0.00  0.00     0.259 C 
ATOM     58  HN  UNK N   1      37.911  11.874   7.801  1.00  0.00     0.164 HD
BRANCH  57  59
HETATM   59  O   UNK N   1      34.730  12.205   7.652  0.00  0.00    -0.327 OA
HETATM   60  H   UNK N   1      33.977  12.749   7.534  0.00  0.00     0.221 HD
ENDBRANCH  57  59
BRANCH  57  61
HETATM   61  O   UNK N   1      36.261  11.367   6.106  0.00  0.00    -0.311 OA
BRANCH  61  62
HETATM   62  C   UNK N   1      36.895  10.149   6.080  0.00  0.00     0.132 C 
HETATM   63  C   UNK N   1      37.319   9.814   4.665  0.00  0.00     0.032 C 
HETATM   64  C   UNK N   1      37.274   8.302   4.574  0.00  0.00     0.002 C 
HETATM   65  C   UNK N   1      36.614   7.811   5.854  0.00  0.00     0.002 C 
HETATM   66  C   UNK N   1      35.985   9.029   6.497  0.00  0.00     0.032 C 
ENDBRANCH  61  62
ENDBRANCH  57  61
ENDBRANCH  51  56
ENDBRANCH   5  51
TORSDOF 19
ENDMDL
