MODEL 1
REMARK VINA RESULT:      -5.4      0.000      0.000
REMARK  2 active torsions:
REMARK  status: ('A' for Active; 'I' for Inactive)
REMARK    1  A    between atoms: C_13  and  C_10 
REMARK    2  A    between atoms: C_13  and  N_15 
ROOT
HETATM    1  C   UNK N   1      34.372  11.579  13.552  0.00  0.00     0.008 C 
HETATM    2  C   UNK N   1      33.800  10.600  14.594  0.00  0.00     0.004 C 
HETATM    3  C   UNK N   1      35.861  11.383  13.298  0.00  0.00     0.081 C 
HETATM    4  C   UNK N   1      34.862   9.782  15.355  0.00  0.00     0.044 C 
HETATM    5  C   UNK N   1      36.591  11.443  14.605  0.00  0.00     0.159 C 
HETATM    6  C   UNK N   1      36.126  10.586  15.772  0.00  0.00     0.116 C 
HETATM    7  O   UNK N   1      37.558  12.179  14.724  0.00  0.00    -0.295 OA
ENDROOT
BRANCH   6   8
HETATM    8  C   UNK N   1      35.776  11.502  16.968  0.00  0.00    -0.001 A 
HETATM    9  C   UNK N   1      35.609  12.877  16.703  0.00  0.00     0.012 A 
HETATM   10  C   UNK N   1      35.268  13.783  17.705  0.00  0.00     0.001 A 
HETATM   11  C   UNK N   1      35.095  13.342  19.011  0.00  0.00     0.002 A 
HETATM   12  C   UNK N   1      35.274  11.996  19.317  0.00  0.00     0.024 A 
HETATM   13  C   UNK N   1      35.609  11.066  18.326  0.00  0.00     0.043 A 
HETATM   14 Cl   UNK N   1      35.825   9.411  18.889  0.00  0.00    -0.084 Cl
ENDBRANCH   6   8
BRANCH   6  15
HETATM   15  N   UNK N   1      37.188   9.629  16.114  0.00  0.00    -0.407 N 
HETATM   16  C   UNK N   1      37.115   8.397  15.332  0.00  0.00     0.141 C 
HETATM   17  H   UNK N   1      37.900   9.807  16.823  0.00  0.00     0.154 HD
ENDBRANCH   6  15
TORSDOF 2
ENDMDL
MODEL 2
REMARK VINA RESULT:      -5.4     24.857     26.878
REMARK  2 active torsions:
REMARK  status: ('A' for Active; 'I' for Inactive)
REMARK    1  A    between atoms: C_13  and  C_10 
REMARK    2  A    between atoms: C_13  and  N_15 
ROOT
HETATM    1  C   UNK N   1      30.078  24.763  -3.623  0.00  0.00     0.008 C 
HETATM    2  C   UNK N   1      29.843  25.242  -5.067  0.00  0.00     0.004 C 
HETATM    3  C   UNK N   1      29.217  23.565  -3.240  0.00  0.00     0.081 C 
HETATM    4  C   UNK N   1      28.632  24.597  -5.767  0.00  0.00     0.044 C 
HETATM    5  C   UNK N   1      27.780  23.891  -3.512  0.00  0.00     0.159 C 
HETATM    6  C   UNK N   1      27.371  24.437  -4.871  0.00  0.00     0.116 C 
HETATM    7  O   UNK N   1      26.945  23.714  -2.638  0.00  0.00    -0.295 OA
ENDROOT
BRANCH   6   8
HETATM    8  C   UNK N   1      26.700  25.819  -4.684  0.00  0.00    -0.001 A 
HETATM    9  C   UNK N   1      26.735  26.385  -3.392  0.00  0.00     0.012 A 
HETATM   10  C   UNK N   1      26.183  27.635  -3.123  0.00  0.00     0.001 A 
HETATM   11  C   UNK N   1      25.565  28.356  -4.138  0.00  0.00     0.002 A 
HETATM   12  C   UNK N   1      25.491  27.820  -5.420  0.00  0.00     0.024 A 
HETATM   13  C   UNK N   1      26.045  26.569  -5.716  0.00  0.00     0.043 A 
HETATM   14 Cl   UNK N   1      25.837  26.030  -7.380  0.00  0.00    -0.084 Cl
ENDBRANCH   6   8
BRANCH   6  15
HETATM   15  N   UNK N   1      26.465  23.478  -5.517  0.00  0.00    -0.407 N 
HETATM   16  C   UNK N   1      27.077  22.800  -6.658  0.00  0.00     0.141 C 
HETATM   17  H   UNK N   1      25.510  23.305  -5.203  0.00  0.00     0.154 HD
ENDBRANCH   6  15
TORSDOF 2
ENDMDL
MODEL 3
REMARK VINA RESULT:      -5.3     25.328     27.357
REMARK  2 active torsions:
REMARK  status: ('A' for Active; 'I' for Inactive)
REMARK    1  A    between atoms: C_13  and  C_10 
REMARK    2  A    between atoms: C_13  and  N_15 
ROOT
HETATM    1  C   UNK N   1      25.039  26.808  -6.120  0.00  0.00     0.008 C 
HETATM    2  C   UNK N   1      26.436  26.825  -6.768  0.00  0.00     0.004 C 
HETATM    3  C   UNK N   1      24.879  27.842  -5.013  0.00  0.00     0.081 C 
HETATM    4  C   UNK N   1      27.473  27.695  -6.033  0.00  0.00     0.044 C 
HETATM    5  C   UNK N   1      25.979  27.662  -4.013  0.00  0.00     0.159 C 
HETATM    6  C   UNK N   1      27.424  27.594  -4.482  0.00  0.00     0.116 C 
HETATM    7  O   UNK N   1      25.708  27.573  -2.825  0.00  0.00    -0.295 OA
ENDROOT
BRANCH   6   8
HETATM    8  C   UNK N   1      28.040  26.245  -4.040  0.00  0.00    -0.001 A 
HETATM    9  C   UNK N   1      27.153  25.249  -3.580  0.00  0.00     0.012 A 
HETATM   10  C   UNK N   1      27.603  23.992  -3.182  0.00  0.00     0.001 A 
HETATM   11  C   UNK N   1      28.959  23.694  -3.221  0.00  0.00     0.002 A 
HETATM   12  C   UNK N   1      29.867  24.658  -3.647  0.00  0.00     0.024 A 
HETATM   13  C   UNK N   1      29.439  25.926  -4.058  0.00  0.00     0.043 A 
HETATM   14 Cl   UNK N   1      30.721  27.033  -4.540  0.00  0.00    -0.084 Cl
ENDBRANCH   6   8
BRANCH   6  15
HETATM   15  N   UNK N   1      28.162  28.735  -3.922  0.00  0.00    -0.407 N 
HETATM   16  C   UNK N   1      28.044  29.941  -4.739  0.00  0.00     0.141 C 
HETATM   17  H   UNK N   1      28.699  28.689  -3.056  0.00  0.00     0.154 HD
ENDBRANCH   6  15
TORSDOF 2
ENDMDL
MODEL 4
REMARK VINA RESULT:      -5.3     26.808     28.759
REMARK  2 active torsions:
REMARK  status: ('A' for Active; 'I' for Inactive)
REMARK    1  A    between atoms: C_13  and  C_10 
REMARK    2  A    between atoms: C_13  and  N_15 
ROOT
HETATM    1  C   UNK N   1      27.000  24.621  -4.000  0.00  0.00     0.008 C 
HETATM    2  C   UNK N   1      28.258  25.177  -4.692  0.00  0.00     0.004 C 
HETATM    3  C   UNK N   1      25.807  24.490  -4.939  0.00  0.00     0.081 C 
HETATM    4  C   UNK N   1      28.021  25.718  -6.115  0.00  0.00     0.044 C 
HETATM    5  C   UNK N   1      25.563  25.809  -5.606  0.00  0.00     0.159 C 
HETATM    6  C   UNK N   1      26.710  26.536  -6.290  0.00  0.00     0.116 C 
HETATM    7  O   UNK N   1      24.440  26.292  -5.597  0.00  0.00    -0.295 OA
ENDROOT
BRANCH   6   8
HETATM    8  C   UNK N   1      26.888  27.929  -5.642  0.00  0.00    -0.001 A 
HETATM    9  C   UNK N   1      26.155  28.194  -4.466  0.00  0.00     0.012 A 
HETATM   10  C   UNK N   1      26.263  29.409  -3.791  0.00  0.00     0.001 A 
HETATM   11  C   UNK N   1      27.101  30.403  -4.279  0.00  0.00     0.002 A 
HETATM   12  C   UNK N   1      27.823  30.187  -5.449  0.00  0.00     0.024 A 
HETATM   13  C   UNK N   1      27.736  28.974  -6.141  0.00  0.00     0.043 A 
HETATM   14 Cl   UNK N   1      28.694  28.879  -7.616  0.00  0.00    -0.084 Cl
ENDBRANCH   6   8
BRANCH   6  15
HETATM   15  N   UNK N   1      26.419  26.640  -7.727  0.00  0.00    -0.407 N 
HETATM   16  C   UNK N   1      26.807  25.443  -8.472  0.00  0.00     0.141 C 
HETATM   17  H   UNK N   1      25.992  27.460  -8.158  0.00  0.00     0.154 HD
ENDBRANCH   6  15
TORSDOF 2
ENDMDL
MODEL 5
REMARK VINA RESULT:      -5.3      9.763     12.043
REMARK  2 active torsions:
REMARK  status: ('A' for Active; 'I' for Inactive)
REMARK    1  A    between atoms: C_13  and  C_10 
REMARK    2  A    between atoms: C_13  and  N_15 
ROOT
HETATM    1  C   UNK N   1      34.260  15.191   8.773  0.00  0.00     0.008 C 
HETATM    2  C   UNK N   1      32.833  14.716   8.439  0.00  0.00     0.004 C 
HETATM    3  C   UNK N   1      34.292  16.538   9.484  0.00  0.00     0.081 C 
HETATM    4  C   UNK N   1      31.737  15.776   8.659  0.00  0.00     0.044 C 
HETATM    5  C   UNK N   1      33.527  17.538   8.672  0.00  0.00     0.159 C 
HETATM    6  C   UNK N   1      32.119  17.211   8.200  0.00  0.00     0.116 C 
HETATM    7  O   UNK N   1      34.040  18.612   8.396  0.00  0.00    -0.295 OA
ENDROOT
BRANCH   6   8
HETATM    8  C   UNK N   1      32.070  17.283   6.656  0.00  0.00    -0.001 A 
HETATM    9  C   UNK N   1      33.291  17.489   5.979  0.00  0.00     0.012 A 
HETATM   10  C   UNK N   1      33.359  17.543   4.588  0.00  0.00     0.001 A 
HETATM   11  C   UNK N   1      32.204  17.405   3.829  0.00  0.00     0.002 A 
HETATM   12  C   UNK N   1      30.978  17.224   4.461  0.00  0.00     0.024 A 
HETATM   13  C   UNK N   1      30.884  17.159   5.856  0.00  0.00     0.043 A 
HETATM   14 Cl   UNK N   1      29.255  16.953   6.492  0.00  0.00    -0.084 Cl
ENDBRANCH   6   8
BRANCH   6  15
HETATM   15  N   UNK N   1      31.178  18.157   8.816  0.00  0.00    -0.407 N 
HETATM   16  C   UNK N   1      30.134  17.493   9.594  0.00  0.00     0.141 C 
HETATM   17  H   UNK N   1      31.246  19.170   8.711  0.00  0.00     0.154 HD
ENDBRANCH   6  15
TORSDOF 2
ENDMDL
MODEL 6
REMARK VINA RESULT:      -5.3      9.862     11.623
REMARK  2 active torsions:
REMARK  status: ('A' for Active; 'I' for Inactive)
REMARK    1  A    between atoms: C_13  and  C_10 
REMARK    2  A    between atoms: C_13  and  N_15 
ROOT
HETATM    1  C   UNK N   1      34.161  17.549   8.648  0.00  0.00     0.008 C 
HETATM    2  C   UNK N   1      33.681  17.871   7.221  0.00  0.00     0.004 C 
HETATM    3  C   UNK N   1      33.952  16.091   9.037  0.00  0.00     0.081 C 
HETATM    4  C   UNK N   1      32.871  16.747   6.548  0.00  0.00     0.044 C 
HETATM    5  C   UNK N   1      32.515  15.728   8.817  0.00  0.00     0.159 C 
HETATM    6  C   UNK N   1      31.854  16.031   7.481  0.00  0.00     0.116 C 
HETATM    7  O   UNK N   1      31.883  15.189   9.713  0.00  0.00    -0.295 OA
ENDROOT
BRANCH   6   8
HETATM    8  C   UNK N   1      30.636  16.956   7.714  0.00  0.00    -0.001 A 
HETATM    9  C   UNK N   1      30.496  17.530   8.994  0.00  0.00     0.012 A 
HETATM   10  C   UNK N   1      29.449  18.397   9.300  0.00  0.00     0.001 A 
HETATM   11  C   UNK N   1      28.499  18.709   8.334  0.00  0.00     0.002 A 
HETATM   12  C   UNK N   1      28.591  18.143   7.066  0.00  0.00     0.024 A 
HETATM   13  C   UNK N   1      29.637  17.275   6.734  0.00  0.00     0.043 A 
HETATM   14 Cl   UNK N   1      29.587  16.629   5.096  0.00  0.00    -0.084 Cl
ENDBRANCH   6   8
BRANCH   6  15
HETATM   15  N   UNK N   1      31.459  14.765   6.847  0.00  0.00    -0.407 N 
HETATM   16  C   UNK N   1      32.531  14.171   6.051  0.00  0.00     0.141 C 
HETATM   17  H   UNK N   1      30.535  14.346   6.951  0.00  0.00     0.154 HD
ENDBRANCH   6  15
TORSDOF 2
ENDMDL
MODEL 7
REMARK VINA RESULT:      -5.2     10.130     12.142
REMARK  2 active torsions:
REMARK  status: ('A' for Active; 'I' for Inactive)
REMARK    1  A    between atoms: C_13  and  C_10 
REMARK    2  A    between atoms: C_13  and  N_15 
ROOT
HETATM    1  C   UNK N   1      33.325  17.079   5.406  0.00  0.00     0.008 C 
HETATM    2  C   UNK N   1      32.262  15.965   5.401  0.00  0.00     0.004 C 
HETATM    3  C   UNK N   1      33.861  17.391   6.798  0.00  0.00     0.081 C 
HETATM    4  C   UNK N   1      31.765  15.548   6.799  0.00  0.00     0.044 C 
HETATM    5  C   UNK N   1      32.709  17.691   7.708  0.00  0.00     0.159 C 
HETATM    6  C   UNK N   1      31.535  16.727   7.786  0.00  0.00     0.116 C 
HETATM    7  O   UNK N   1      32.722  18.708   8.385  0.00  0.00    -0.295 OA
ENDROOT
BRANCH   6   8
HETATM    8  C   UNK N   1      30.237  17.473   7.396  0.00  0.00    -0.001 A 
HETATM    9  C   UNK N   1      29.810  17.371   6.055  0.00  0.00     0.012 A 
HETATM   10  C   UNK N   1      28.642  17.984   5.608  0.00  0.00     0.001 A 
HETATM   11  C   UNK N   1      27.867  18.730   6.487  0.00  0.00     0.002 A 
HETATM   12  C   UNK N   1      28.268  18.873   7.812  0.00  0.00     0.024 A 
HETATM   13  C   UNK N   1      29.434  18.262   8.287  0.00  0.00     0.043 A 
HETATM   14 Cl   UNK N   1      29.809  18.568   9.980  0.00  0.00    -0.084 Cl
ENDBRANCH   6   8
BRANCH   6  15
HETATM   15  N   UNK N   1      31.457  16.179   9.147  0.00  0.00    -0.407 N 
HETATM   16  C   UNK N   1      32.364  15.053   9.358  0.00  0.00     0.141 C 
HETATM   17  H   UNK N   1      30.835  16.547   9.868  0.00  0.00     0.154 HD
ENDBRANCH   6  15
TORSDOF 2
ENDMDL
MODEL 8
REMARK VINA RESULT:      -5.2      9.700     11.815
REMARK  2 active torsions:
REMARK  status: ('A' for Active; 'I' for Inactive)
REMARK    1  A    between atoms: C_13  and  C_10 
REMARK    2  A    between atoms: C_13  and  N_15 
ROOT
HETATM    1  C   UNK N   1      33.920  14.505   5.643  0.00  0.00     0.008 C 
HETATM    2  C   UNK N   1      32.849  14.105   6.675  0.00  0.00     0.004 C 
HETATM    3  C   UNK N   1      34.824  15.634   6.124  0.00  0.00     0.081 C 
HETATM    4  C   UNK N   1      32.731  15.059   7.879  0.00  0.00     0.044 C 
HETATM    5  C   UNK N   1      33.975  16.791   6.552  0.00  0.00     0.159 C 
HETATM    6  C   UNK N   1      32.826  16.570   7.523  0.00  0.00     0.116 C 
HETATM    7  O   UNK N   1      34.213  17.908   6.117  0.00  0.00    -0.295 OA
ENDROOT
BRANCH   6   8
HETATM    8  C   UNK N   1      31.504  17.022   6.860  0.00  0.00    -0.001 A 
HETATM    9  C   UNK N   1      31.514  17.215   5.463  0.00  0.00     0.012 A 
HETATM   10  C   UNK N   1      30.370  17.597   4.766  0.00  0.00     0.001 A 
HETATM   11  C   UNK N   1      29.178  17.811   5.448  0.00  0.00     0.002 A 
HETATM   12  C   UNK N   1      29.135  17.653   6.830  0.00  0.00     0.024 A 
HETATM   13  C   UNK N   1      30.269  17.263   7.551  0.00  0.00     0.043 A 
HETATM   14 Cl   UNK N   1      30.046  17.138   9.294  0.00  0.00    -0.084 Cl
ENDBRANCH   6   8
BRANCH   6  15
HETATM   15  N   UNK N   1      33.096  17.318   8.759  0.00  0.00    -0.407 N 
HETATM   16  C   UNK N   1      34.246  16.799   9.497  0.00  0.00     0.141 C 
HETATM   17  H   UNK N   1      32.539  18.114   9.069  0.00  0.00     0.154 HD
ENDBRANCH   6  15
TORSDOF 2
ENDMDL
MODEL 9
REMARK VINA RESULT:      -5.1     11.237     12.195
REMARK  2 active torsions:
REMARK  status: ('A' for Active; 'I' for Inactive)
REMARK    1  A    between atoms: C_13  and  C_10 
REMARK    2  A    between atoms: C_13  and  N_15 
ROOT
HETATM    1  C   UNK N   1      33.771  17.478   5.654  0.00  0.00     0.008 C 
HETATM    2  C   UNK N   1      32.496  17.585   4.797  0.00  0.00     0.004 C 
HETATM    3  C   UNK N   1      33.977  16.091   6.251  0.00  0.00     0.081 C 
HETATM    4  C   UNK N   1      31.553  16.371   4.895  0.00  0.00     0.044 C 
HETATM    5  C   UNK N   1      32.743  15.694   7.002  0.00  0.00     0.159 C 
HETATM    6  C   UNK N   1      31.383  15.795   6.330  0.00  0.00     0.116 C 
HETATM    7  O   UNK N   1      32.838  15.290   8.151  0.00  0.00    -0.295 OA
ENDROOT
BRANCH   6   8
HETATM    8  C   UNK N   1      30.476  16.739   7.154  0.00  0.00    -0.001 A 
HETATM    9  C   UNK N   1      31.085  17.482   8.187  0.00  0.00     0.012 A 
HETATM   10  C   UNK N   1      30.362  18.379   8.971  0.00  0.00     0.001 A 
HETATM   11  C   UNK N   1      29.001  18.553   8.753  0.00  0.00     0.002 A 
HETATM   12  C   UNK N   1      28.360  17.821   7.758  0.00  0.00     0.024 A 
HETATM   13  C   UNK N   1      29.066  16.919   6.954  0.00  0.00     0.043 A 
HETATM   14 Cl   UNK N   1      28.097  16.056   5.763  0.00  0.00    -0.084 Cl
ENDBRANCH   6   8
BRANCH   6  15
HETATM   15  N   UNK N   1      30.804  14.448   6.220  0.00  0.00    -0.407 N 
HETATM   16  C   UNK N   1      31.047  13.831   4.917  0.00  0.00     0.141 C 
HETATM   17  H   UNK N   1      30.288  13.993   6.973  0.00  0.00     0.154 HD
ENDBRANCH   6  15
TORSDOF 2
ENDMDL
