MODEL 1
REMARK VINA RESULT:      -5.3      0.000      0.000
REMARK  23 active torsions:
REMARK  status: ('A' for Active; 'I' for Inactive)
REMARK    1  A    between atoms: O_2  and  C_3 
REMARK    2  A    between atoms: C_3  and  C_4 
REMARK    3  A    between atoms: C_4  and  O_5 
REMARK    4  A    between atoms: O_5  and  C_6 
REMARK    5  A    between atoms: C_6  and  C_7 
REMARK    6  A    between atoms: C_7  and  N_8 
REMARK    7  A    between atoms: N_8  and  C_9 
REMARK       I    between atoms: N_8  and  C_24 
REMARK    8  A    between atoms: C_9  and  C_10 
REMARK       I    between atoms: C_10  and  N_12 
REMARK    9  A    between atoms: N_12  and  C_13 
REMARK   10  A    between atoms: C_13  and  C_14 
REMARK   11  A    between atoms: C_14  and  C_15 
REMARK   12  A    between atoms: C_15  and  C_16 
REMARK   13  A    between atoms: C_16  and  C_17 
REMARK   14  A    between atoms: C_17  and  C_18 
REMARK   15  A    between atoms: C_18  and  O_19 
REMARK   16  A    between atoms: O_19  and  P_20 
REMARK   17  A    between atoms: P_20  and  O_22 
REMARK   18  A    between atoms: P_20  and  O_23 
REMARK   19  A    between atoms: C_24  and  C_26 
REMARK   20  A    between atoms: C_26  and  O_27 
REMARK   21  A    between atoms: O_27  and  C_28 
REMARK   22  A    between atoms: C_28  and  C_29 
REMARK   23  A    between atoms: C_29  and  O_30 
ROOT
HETATM    1  C   UNK N   1      21.698  16.259   6.306  0.00  0.00     0.228 C 
ENDROOT
BRANCH   1   2
HETATM    2  N   UNK N   1      20.278  16.198   6.030  0.00  0.00    -0.340 N 
HETATM    3  C   UNK N   1      19.381  16.130   7.061  0.00  0.00     0.243 C 
HETATM    4  O   UNK N   1      18.181  16.139   6.842  0.00  0.00    -0.271 OA
BRANCH   2   5
HETATM    5  C   UNK N   1      19.830  16.309   4.655  0.00  0.00     0.152 C 
BRANCH   5   6
HETATM    6  C   UNK N   1      19.830  14.953   3.957  0.00  0.00     0.187 C 
BRANCH   6   7
HETATM    7  O   UNK N   1      21.101  14.680   3.435  0.00  0.00    -0.387 OA
BRANCH   7   8
HETATM    8  C   UNK N   1      21.390  15.747   2.576  0.00  0.00     0.193 C 
BRANCH   8   9
HETATM    9  C   UNK N   1      21.018  15.396   1.145  0.00  0.00     0.193 C 
BRANCH   9  10
HETATM   10  O   UNK N   1      20.600  16.549   0.477  0.00  0.00    -0.394 OA
HETATM   11  C   UNK N   1      19.279  16.296   0.108  0.00  0.00     0.201 C 
ENDBRANCH   9  10
ENDBRANCH   8   9
ENDBRANCH   7   8
ENDBRANCH   6   7
ENDBRANCH   5   6
ENDBRANCH   2   5
BRANCH   3  12
HETATM   12  C   UNK N   1      19.851  16.062   8.484  0.00  0.00     0.270 C 
BRANCH  12  13
HETATM   13  O   UNK N   1      19.754  14.752   8.961  0.00  0.00    -0.380 OA
BRANCH  13  14
HETATM   14  C   UNK N   1      21.021  14.450   9.471  0.00  0.00     0.194 C 
BRANCH  14  15
HETATM   15  C   UNK N   1      21.202  12.942   9.522  0.00  0.00     0.193 C 
BRANCH  15  16
HETATM   16  O   UNK N   1      21.106  12.408   8.239  0.00  0.00    -0.394 OA
HETATM   17  C   UNK N   1      22.307  12.764   7.626  0.00  0.00     0.201 C 
ENDBRANCH  15  16
ENDBRANCH  14  15
ENDBRANCH  13  14
ENDBRANCH  12  13
ENDBRANCH   3  12
ENDBRANCH   1   2
BRANCH   1  18
HETATM   18  C   UNK N   1      22.205  17.664   6.107  0.00  0.00     0.235 C 
HETATM   19  O   UNK N   1      21.577  18.597   6.583  0.00  0.00    -0.272 OA
HETATM   20  N   UNK N   1      23.353  17.918   5.443  0.00  0.00    -0.360 N 
HETATM   21  H   UNK N   1      23.634  18.856   5.339  0.00  0.00     0.162 HD
BRANCH  20  22
HETATM   22  C   UNK N   1      24.189  16.888   4.877  0.00  0.00     0.122 C 
BRANCH  22  23
HETATM   23  C   UNK N   1      25.157  17.463   3.842  0.00  0.00     0.020 C 
BRANCH  23  24
HETATM   24  C   UNK N   1      26.248  18.350   4.435  0.00  0.00     0.002 C 
BRANCH  24  25
HETATM   25  C   UNK N   1      26.048  19.813   4.036  0.00  0.00     0.002 C 
BRANCH  25  26
HETATM   26  C   UNK N   1      25.287  19.984   2.716  0.00  0.00     0.027 C 
BRANCH  26  27
HETATM   27  C   UNK N   1      24.034  20.844   2.845  0.00  0.00     0.180 C 
BRANCH  27  28
HETATM   28  O   UNK N   1      22.999  20.119   3.448  0.00  0.00    -0.297 OA
BRANCH  28  29
HETATM   29  P   UNK N   1      21.608  20.379   2.434  0.00  0.00     0.390 P 
HETATM   30  O   UNK N   1      20.485  21.102   3.224  0.00  0.00    -0.632 OA
BRANCH  29  31
HETATM   31  O   UNK N   1      22.313  21.908   2.864  0.00  0.00    -0.307 OA
HETATM   32  H   UNK N   1      21.789  22.640   3.223  0.00  0.00     0.222 HD
ENDBRANCH  29  31
BRANCH  29  33
HETATM   33  O   UNK N   1      21.166  19.246   3.674  0.00  0.00    -0.307 OA
HETATM   34  H   UNK N   1      21.579  18.903   4.483  0.00  0.00     0.222 HD
ENDBRANCH  29  33
ENDBRANCH  28  29
ENDBRANCH  27  28
ENDBRANCH  26  27
ENDBRANCH  25  26
ENDBRANCH  24  25
ENDBRANCH  23  24
ENDBRANCH  22  23
ENDBRANCH  20  22
ENDBRANCH   1  18
TORSDOF 23
ENDMDL
MODEL 2
REMARK VINA RESULT:      -5.0      1.237      5.181
REMARK  23 active torsions:
REMARK  status: ('A' for Active; 'I' for Inactive)
REMARK    1  A    between atoms: O_2  and  C_3 
REMARK    2  A    between atoms: C_3  and  C_4 
REMARK    3  A    between atoms: C_4  and  O_5 
REMARK    4  A    between atoms: O_5  and  C_6 
REMARK    5  A    between atoms: C_6  and  C_7 
REMARK    6  A    between atoms: C_7  and  N_8 
REMARK    7  A    between atoms: N_8  and  C_9 
REMARK       I    between atoms: N_8  and  C_24 
REMARK    8  A    between atoms: C_9  and  C_10 
REMARK       I    between atoms: C_10  and  N_12 
REMARK    9  A    between atoms: N_12  and  C_13 
REMARK   10  A    between atoms: C_13  and  C_14 
REMARK   11  A    between atoms: C_14  and  C_15 
REMARK   12  A    between atoms: C_15  and  C_16 
REMARK   13  A    between atoms: C_16  and  C_17 
REMARK   14  A    between atoms: C_17  and  C_18 
REMARK   15  A    between atoms: C_18  and  O_19 
REMARK   16  A    between atoms: O_19  and  P_20 
REMARK   17  A    between atoms: P_20  and  O_22 
REMARK   18  A    between atoms: P_20  and  O_23 
REMARK   19  A    between atoms: C_24  and  C_26 
REMARK   20  A    between atoms: C_26  and  O_27 
REMARK   21  A    between atoms: O_27  and  C_28 
REMARK   22  A    between atoms: C_28  and  C_29 
REMARK   23  A    between atoms: C_29  and  O_30 
ROOT
HETATM    1  C   UNK N   1      21.303  16.241   6.461  0.00  0.00     0.228 C 
ENDROOT
BRANCH   1   2
HETATM    2  N   UNK N   1      19.876  16.180   6.690  0.00  0.00    -0.340 N 
HETATM    3  C   UNK N   1      19.020  15.970   5.644  0.00  0.00     0.243 C 
HETATM    4  O   UNK N   1      17.821  15.858   5.834  0.00  0.00    -0.271 OA
BRANCH   2   5
HETATM    5  C   UNK N   1      19.385  16.247   8.054  0.00  0.00     0.152 C 
BRANCH   5   6
HETATM    6  C   UNK N   1      20.276  15.456   9.006  0.00  0.00     0.187 C 
BRANCH   6   7
HETATM    7  O   UNK N   1      19.901  14.106   9.008  0.00  0.00    -0.387 OA
BRANCH   7   8
HETATM    8  C   UNK N   1      21.099  13.385   8.919  0.00  0.00     0.193 C 
BRANCH   8   9
HETATM    9  C   UNK N   1      21.422  12.721  10.246  0.00  0.00     0.193 C 
BRANCH   9  10
HETATM   10  O   UNK N   1      22.774  12.911  10.543  0.00  0.00    -0.394 OA
HETATM   11  C   UNK N   1      23.039  12.040  11.600  0.00  0.00     0.201 C 
ENDBRANCH   9  10
ENDBRANCH   8   9
ENDBRANCH   7   8
ENDBRANCH   6   7
ENDBRANCH   5   6
ENDBRANCH   2   5
BRANCH   3  12
HETATM   12  C   UNK N   1      19.540  15.856   4.240  0.00  0.00     0.270 C 
BRANCH  12  13
HETATM   13  O   UNK N   1      19.590  14.513   3.853  0.00  0.00    -0.380 OA
BRANCH  13  14
HETATM   14  C   UNK N   1      20.352  14.495   2.681  0.00  0.00     0.194 C 
BRANCH  14  15
HETATM   15  C   UNK N   1      20.170  15.807   1.936  0.00  0.00     0.193 C 
BRANCH  15  16
HETATM   16  O   UNK N   1      19.515  15.581   0.727  0.00  0.00    -0.394 OA
HETATM   17  C   UNK N   1      19.646  16.784   0.034  0.00  0.00     0.201 C 
ENDBRANCH  15  16
ENDBRANCH  14  15
ENDBRANCH  13  14
ENDBRANCH  12  13
ENDBRANCH   3  12
ENDBRANCH   1   2
BRANCH   1  18
HETATM   18  C   UNK N   1      21.706  17.639   6.066  0.00  0.00     0.235 C 
HETATM   19  O   UNK N   1      21.249  18.587   6.684  0.00  0.00    -0.272 OA
HETATM   20  N   UNK N   1      22.583  17.870   5.065  0.00  0.00    -0.360 N 
HETATM   21  H   UNK N   1      22.805  18.803   4.847  0.00  0.00     0.162 HD
BRANCH  20  22
HETATM   22  C   UNK N   1      23.210  16.821   4.299  0.00  0.00     0.122 C 
BRANCH  22  23
HETATM   23  C   UNK N   1      24.725  17.013   4.228  0.00  0.00     0.020 C 
BRANCH  23  24
HETATM   24  C   UNK N   1      25.163  18.195   3.368  0.00  0.00     0.002 C 
BRANCH  24  25
HETATM   25  C   UNK N   1      25.186  19.491   4.180  0.00  0.00     0.002 C 
BRANCH  25  26
HETATM   26  C   UNK N   1      24.741  20.719   3.378  0.00  0.00     0.027 C 
BRANCH  26  27
HETATM   27  C   UNK N   1      23.484  20.479   2.546  0.00  0.00     0.180 C 
BRANCH  27  28
HETATM   28  O   UNK N   1      22.480  21.388   2.898  0.00  0.00    -0.297 OA
BRANCH  28  29
HETATM   29  P   UNK N   1      20.991  20.640   2.396  0.00  0.00     0.390 P 
HETATM   30  O   UNK N   1      21.161  19.102   2.288  0.00  0.00    -0.632 OA
BRANCH  29  31
HETATM   31  O   UNK N   1      21.377  20.145   4.016  0.00  0.00    -0.307 OA
HETATM   32  H   UNK N   1      21.257  20.730   4.780  0.00  0.00     0.222 HD
ENDBRANCH  29  31
BRANCH  29  33
HETATM   33  O   UNK N   1      22.153  20.432   1.122  0.00  0.00    -0.307 OA
HETATM   34  H   UNK N   1      22.196  19.925   0.295  0.00  0.00     0.222 HD
ENDBRANCH  29  33
ENDBRANCH  28  29
ENDBRANCH  27  28
ENDBRANCH  26  27
ENDBRANCH  25  26
ENDBRANCH  24  25
ENDBRANCH  23  24
ENDBRANCH  22  23
ENDBRANCH  20  22
ENDBRANCH   1  18
TORSDOF 23
ENDMDL
MODEL 3
REMARK VINA RESULT:      -4.9      3.711      4.664
REMARK  23 active torsions:
REMARK  status: ('A' for Active; 'I' for Inactive)
REMARK    1  A    between atoms: O_2  and  C_3 
REMARK    2  A    between atoms: C_3  and  C_4 
REMARK    3  A    between atoms: C_4  and  O_5 
REMARK    4  A    between atoms: O_5  and  C_6 
REMARK    5  A    between atoms: C_6  and  C_7 
REMARK    6  A    between atoms: C_7  and  N_8 
REMARK    7  A    between atoms: N_8  and  C_9 
REMARK       I    between atoms: N_8  and  C_24 
REMARK    8  A    between atoms: C_9  and  C_10 
REMARK       I    between atoms: C_10  and  N_12 
REMARK    9  A    between atoms: N_12  and  C_13 
REMARK   10  A    between atoms: C_13  and  C_14 
REMARK   11  A    between atoms: C_14  and  C_15 
REMARK   12  A    between atoms: C_15  and  C_16 
REMARK   13  A    between atoms: C_16  and  C_17 
REMARK   14  A    between atoms: C_17  and  C_18 
REMARK   15  A    between atoms: C_18  and  O_19 
REMARK   16  A    between atoms: O_19  and  P_20 
REMARK   17  A    between atoms: P_20  and  O_22 
REMARK   18  A    between atoms: P_20  and  O_23 
REMARK   19  A    between atoms: C_24  and  C_26 
REMARK   20  A    between atoms: C_26  and  O_27 
REMARK   21  A    between atoms: O_27  and  C_28 
REMARK   22  A    between atoms: C_28  and  C_29 
REMARK   23  A    between atoms: C_29  and  O_30 
ROOT
HETATM    1  C   UNK N   1      22.499  16.318   6.237  0.00  0.00     0.228 C 
ENDROOT
BRANCH   1   2
HETATM    2  N   UNK N   1      21.318  15.647   5.741  0.00  0.00    -0.340 N 
HETATM    3  C   UNK N   1      20.481  14.996   6.606  0.00  0.00     0.243 C 
HETATM    4  O   UNK N   1      19.452  14.478   6.206  0.00  0.00    -0.271 OA
BRANCH   2   5
HETATM    5  C   UNK N   1      20.991  15.761   4.331  0.00  0.00     0.152 C 
BRANCH   5   6
HETATM    6  C   UNK N   1      19.768  16.646   4.112  0.00  0.00     0.187 C 
BRANCH   6   7
HETATM    7  O   UNK N   1      19.735  17.104   2.789  0.00  0.00    -0.387 OA
BRANCH   7   8
HETATM    8  C   UNK N   1      20.748  18.068   2.702  0.00  0.00     0.193 C 
BRANCH   8   9
HETATM    9  C   UNK N   1      20.209  19.442   3.063  0.00  0.00     0.193 C 
BRANCH   9  10
HETATM   10  O   UNK N   1      21.213  20.187   3.685  0.00  0.00    -0.394 OA
HETATM   11  C   UNK N   1      22.080  20.559   2.657  0.00  0.00     0.201 C 
ENDBRANCH   9  10
ENDBRANCH   8   9
ENDBRANCH   7   8
ENDBRANCH   6   7
ENDBRANCH   5   6
ENDBRANCH   2   5
BRANCH   3  12
HETATM   12  C   UNK N   1      20.802  14.922   8.071  0.00  0.00     0.270 C 
BRANCH  12  13
HETATM   13  O   UNK N   1      20.096  13.871   8.665  0.00  0.00    -0.380 OA
BRANCH  13  14
HETATM   14  C   UNK N   1      20.578  13.797   9.976  0.00  0.00     0.194 C 
BRANCH  14  15
HETATM   15  C   UNK N   1      22.061  13.467   9.953  0.00  0.00     0.193 C 
BRANCH  15  16
HETATM   16  O   UNK N   1      22.252  12.118  10.247  0.00  0.00    -0.394 OA
HETATM   17  C   UNK N   1      22.943  12.123  11.458  0.00  0.00     0.201 C 
ENDBRANCH  15  16
ENDBRANCH  14  15
ENDBRANCH  13  14
ENDBRANCH  12  13
ENDBRANCH   3  12
ENDBRANCH   1   2
BRANCH   1  18
HETATM   18  C   UNK N   1      22.358  17.809   6.067  0.00  0.00     0.235 C 
HETATM   19  O   UNK N   1      21.427  18.385   6.607  0.00  0.00    -0.272 OA
HETATM   20  N   UNK N   1      23.253  18.531   5.357  0.00  0.00    -0.360 N 
HETATM   21  H   UNK N   1      23.108  19.501   5.275  0.00  0.00     0.162 HD
BRANCH  20  22
HETATM   22  C   UNK N   1      24.408  17.956   4.713  0.00  0.00     0.122 C 
BRANCH  22  23
HETATM   23  C   UNK N   1      25.208  19.015   3.954  0.00  0.00     0.020 C 
BRANCH  23  24
HETATM   24  C   UNK N   1      26.247  19.738   4.806  0.00  0.00     0.002 C 
BRANCH  24  25
HETATM   25  C   UNK N   1      27.666  19.428   4.327  0.00  0.00     0.002 C 
BRANCH  25  26
HETATM   26  C   UNK N   1      28.513  18.692   5.371  0.00  0.00     0.027 C 
BRANCH  26  27
HETATM   27  C   UNK N   1      27.967  18.812   6.791  0.00  0.00     0.180 C 
BRANCH  27  28
HETATM   28  O   UNK N   1      28.429  17.758   7.587  0.00  0.00    -0.297 OA
BRANCH  28  29
HETATM   29  P   UNK N   1      29.041  18.511   9.033  0.00  0.00     0.390 P 
HETATM   30  O   UNK N   1      29.251  17.456  10.151  0.00  0.00    -0.632 OA
BRANCH  29  31
HETATM   31  O   UNK N   1      30.241  17.439   8.378  0.00  0.00    -0.307 OA
HETATM   32  H   UNK N   1      31.192  17.596   8.484  0.00  0.00     0.222 HD
ENDBRANCH  29  31
BRANCH  29  33
HETATM   33  O   UNK N   1      27.441  17.924   9.368  0.00  0.00    -0.307 OA
HETATM   34  H   UNK N   1      26.543  18.293   9.334  0.00  0.00     0.222 HD
ENDBRANCH  29  33
ENDBRANCH  28  29
ENDBRANCH  27  28
ENDBRANCH  26  27
ENDBRANCH  25  26
ENDBRANCH  24  25
ENDBRANCH  23  24
ENDBRANCH  22  23
ENDBRANCH  20  22
ENDBRANCH   1  18
TORSDOF 23
ENDMDL
MODEL 4
REMARK VINA RESULT:      -4.8      3.342      6.307
REMARK  23 active torsions:
REMARK  status: ('A' for Active; 'I' for Inactive)
REMARK    1  A    between atoms: O_2  and  C_3 
REMARK    2  A    between atoms: C_3  and  C_4 
REMARK    3  A    between atoms: C_4  and  O_5 
REMARK    4  A    between atoms: O_5  and  C_6 
REMARK    5  A    between atoms: C_6  and  C_7 
REMARK    6  A    between atoms: C_7  and  N_8 
REMARK    7  A    between atoms: N_8  and  C_9 
REMARK       I    between atoms: N_8  and  C_24 
REMARK    8  A    between atoms: C_9  and  C_10 
REMARK       I    between atoms: C_10  and  N_12 
REMARK    9  A    between atoms: N_12  and  C_13 
REMARK   10  A    between atoms: C_13  and  C_14 
REMARK   11  A    between atoms: C_14  and  C_15 
REMARK   12  A    between atoms: C_15  and  C_16 
REMARK   13  A    between atoms: C_16  and  C_17 
REMARK   14  A    between atoms: C_17  and  C_18 
REMARK   15  A    between atoms: C_18  and  O_19 
REMARK   16  A    between atoms: O_19  and  P_20 
REMARK   17  A    between atoms: P_20  and  O_22 
REMARK   18  A    between atoms: P_20  and  O_23 
REMARK   19  A    between atoms: C_24  and  C_26 
REMARK   20  A    between atoms: C_26  and  O_27 
REMARK   21  A    between atoms: O_27  and  C_28 
REMARK   22  A    between atoms: C_28  and  C_29 
REMARK   23  A    between atoms: C_29  and  O_30 
ROOT
HETATM    1  C   UNK N   1      21.450  16.481   6.474  0.00  0.00     0.228 C 
ENDROOT
BRANCH   1   2
HETATM    2  N   UNK N   1      20.026  16.284   6.635  0.00  0.00    -0.340 N 
HETATM    3  C   UNK N   1      19.222  16.149   5.536  0.00  0.00     0.243 C 
HETATM    4  O   UNK N   1      18.030  15.923   5.662  0.00  0.00    -0.271 OA
BRANCH   2   5
HETATM    5  C   UNK N   1      19.490  16.137   7.975  0.00  0.00     0.152 C 
BRANCH   5   6
HETATM    6  C   UNK N   1      20.443  15.356   8.874  0.00  0.00     0.187 C 
BRANCH   6   7
HETATM    7  O   UNK N   1      20.020  14.025   8.984  0.00  0.00    -0.387 OA
BRANCH   7   8
HETATM    8  C   UNK N   1      20.737  13.494  10.064  0.00  0.00     0.193 C 
BRANCH   8   9
HETATM    9  C   UNK N   1      21.962  12.742   9.573  0.00  0.00     0.193 C 
BRANCH   9  10
HETATM   10  O   UNK N   1      23.063  13.080  10.364  0.00  0.00    -0.394 OA
HETATM   11  C   UNK N   1      24.159  13.025   9.503  0.00  0.00     0.201 C 
ENDBRANCH   9  10
ENDBRANCH   8   9
ENDBRANCH   7   8
ENDBRANCH   6   7
ENDBRANCH   5   6
ENDBRANCH   2   5
BRANCH   3  12
HETATM   12  C   UNK N   1      19.792  16.256   4.152  0.00  0.00     0.270 C 
BRANCH  12  13
HETATM   13  O   UNK N   1      19.617  17.553   3.659  0.00  0.00    -0.380 OA
BRANCH  13  14
HETATM   14  C   UNK N   1      19.952  17.480   2.303  0.00  0.00     0.194 C 
BRANCH  14  15
HETATM   15  C   UNK N   1      20.796  16.243   2.053  0.00  0.00     0.193 C 
BRANCH  15  16
HETATM   16  O   UNK N   1      20.780  15.921   0.697  0.00  0.00    -0.394 OA
HETATM   17  C   UNK N   1      19.819  16.773   0.153  0.00  0.00     0.201 C 
ENDBRANCH  15  16
ENDBRANCH  14  15
ENDBRANCH  13  14
ENDBRANCH  12  13
ENDBRANCH   3  12
ENDBRANCH   1   2
BRANCH   1  18
HETATM   18  C   UNK N   1      21.757  17.948   6.321  0.00  0.00     0.235 C 
HETATM   19  O   UNK N   1      21.107  18.762   6.957  0.00  0.00    -0.272 OA
HETATM   20  N   UNK N   1      22.754  18.387   5.522  0.00  0.00    -0.360 N 
HETATM   21  H   UNK N   1      22.906  19.357   5.456  0.00  0.00     0.162 HD
BRANCH  20  22
HETATM   22  C   UNK N   1      23.607  17.508   4.759  0.00  0.00     0.122 C 
BRANCH  22  23
HETATM   23  C   UNK N   1      25.070  17.943   4.840  0.00  0.00     0.020 C 
BRANCH  23  24
HETATM   24  C   UNK N   1      25.286  19.442   4.643  0.00  0.00     0.002 C 
BRANCH  24  25
HETATM   25  C   UNK N   1      26.776  19.785   4.603  0.00  0.00     0.002 C 
BRANCH  25  26
HETATM   26  C   UNK N   1      27.235  20.638   5.790  0.00  0.00     0.027 C 
BRANCH  26  27
HETATM   27  C   UNK N   1      27.457  19.833   7.067  0.00  0.00     0.180 C 
BRANCH  27  28
HETATM   28  O   UNK N   1      28.519  18.935   6.904  0.00  0.00    -0.297 OA
BRANCH  28  29
HETATM   29  P   UNK N   1      28.029  17.492   7.745  0.00  0.00     0.390 P 
HETATM   30  O   UNK N   1      28.875  17.295   9.031  0.00  0.00    -0.632 OA
BRANCH  29  31
HETATM   31  O   UNK N   1      27.656  18.887   8.711  0.00  0.00    -0.307 OA
HETATM   32  H   UNK N   1      26.802  19.343   8.659  0.00  0.00     0.222 HD
ENDBRANCH  29  31
BRANCH  29  33
HETATM   33  O   UNK N   1      29.644  17.248   7.155  0.00  0.00    -0.307 OA
HETATM   34  H   UNK N   1      30.336  16.579   7.279  0.00  0.00     0.222 HD
ENDBRANCH  29  33
ENDBRANCH  28  29
ENDBRANCH  27  28
ENDBRANCH  26  27
ENDBRANCH  25  26
ENDBRANCH  24  25
ENDBRANCH  23  24
ENDBRANCH  22  23
ENDBRANCH  20  22
ENDBRANCH   1  18
TORSDOF 23
ENDMDL
MODEL 5
REMARK VINA RESULT:      -4.7      1.639      4.128
REMARK  23 active torsions:
REMARK  status: ('A' for Active; 'I' for Inactive)
REMARK    1  A    between atoms: O_2  and  C_3 
REMARK    2  A    between atoms: C_3  and  C_4 
REMARK    3  A    between atoms: C_4  and  O_5 
REMARK    4  A    between atoms: O_5  and  C_6 
REMARK    5  A    between atoms: C_6  and  C_7 
REMARK    6  A    between atoms: C_7  and  N_8 
REMARK    7  A    between atoms: N_8  and  C_9 
REMARK       I    between atoms: N_8  and  C_24 
REMARK    8  A    between atoms: C_9  and  C_10 
REMARK       I    between atoms: C_10  and  N_12 
REMARK    9  A    between atoms: N_12  and  C_13 
REMARK   10  A    between atoms: C_13  and  C_14 
REMARK   11  A    between atoms: C_14  and  C_15 
REMARK   12  A    between atoms: C_15  and  C_16 
REMARK   13  A    between atoms: C_16  and  C_17 
REMARK   14  A    between atoms: C_17  and  C_18 
REMARK   15  A    between atoms: C_18  and  O_19 
REMARK   16  A    between atoms: O_19  and  P_20 
REMARK   17  A    between atoms: P_20  and  O_22 
REMARK   18  A    between atoms: P_20  and  O_23 
REMARK   19  A    between atoms: C_24  and  C_26 
REMARK   20  A    between atoms: C_26  and  O_27 
REMARK   21  A    between atoms: O_27  and  C_28 
REMARK   22  A    between atoms: C_28  and  C_29 
REMARK   23  A    between atoms: C_29  and  O_30 
ROOT
HETATM    1  C   UNK N   1      20.182  15.026   6.167  0.00  0.00     0.228 C 
ENDROOT
BRANCH   1   2
HETATM    2  N   UNK N   1      20.530  16.224   6.901  0.00  0.00    -0.340 N 
HETATM    3  C   UNK N   1      20.217  16.333   8.228  0.00  0.00     0.243 C 
HETATM    4  O   UNK N   1      20.559  17.313   8.869  0.00  0.00    -0.271 OA
BRANCH   2   5
HETATM    5  C   UNK N   1      21.298  17.255   6.227  0.00  0.00     0.152 C 
BRANCH   5   6
HETATM    6  C   UNK N   1      22.639  16.720   5.735  0.00  0.00     0.187 C 
BRANCH   6   7
HETATM    7  O   UNK N   1      22.933  17.244   4.470  0.00  0.00    -0.387 OA
BRANCH   7   8
HETATM    8  C   UNK N   1      24.331  17.285   4.398  0.00  0.00     0.193 C 
BRANCH   8   9
HETATM    9  C   UNK N   1      24.851  18.623   4.895  0.00  0.00     0.193 C 
BRANCH   9  10
HETATM   10  O   UNK N   1      24.531  19.619   3.971  0.00  0.00    -0.394 OA
HETATM   11  C   UNK N   1      25.660  19.742   3.162  0.00  0.00     0.201 C 
ENDBRANCH   9  10
ENDBRANCH   8   9
ENDBRANCH   7   8
ENDBRANCH   6   7
ENDBRANCH   5   6
ENDBRANCH   2   5
BRANCH   3  12
HETATM   12  C   UNK N   1      19.462  15.242   8.930  0.00  0.00     0.270 C 
BRANCH  12  13
HETATM   13  O   UNK N   1      20.108  14.016   8.746  0.00  0.00    -0.380 OA
BRANCH  13  14
HETATM   14  C   UNK N   1      21.060  13.943   9.768  0.00  0.00     0.194 C 
BRANCH  14  15
HETATM   15  C   UNK N   1      20.756  12.753  10.663  0.00  0.00     0.193 C 
BRANCH  15  16
HETATM   16  O   UNK N   1      21.944  12.172  11.102  0.00  0.00    -0.394 OA
HETATM   17  C   UNK N   1      22.935  12.815  10.361  0.00  0.00     0.201 C 
ENDBRANCH  15  16
ENDBRANCH  14  15
ENDBRANCH  13  14
ENDBRANCH  12  13
ENDBRANCH   3  12
ENDBRANCH   1   2
BRANCH   1  18
HETATM   18  C   UNK N   1      19.057  15.315   5.207  0.00  0.00     0.235 C 
HETATM   19  O   UNK N   1      18.102  15.972   5.587  0.00  0.00    -0.272 OA
HETATM   20  N   UNK N   1      19.092  14.892   3.924  0.00  0.00    -0.360 N 
HETATM   21  H   UNK N   1      18.327  15.104   3.342  0.00  0.00     0.162 HD
BRANCH  20  22
HETATM   22  C   UNK N   1      20.189  14.143   3.363  0.00  0.00     0.122 C 
BRANCH  22  23
HETATM   23  C   UNK N   1      21.183  15.061   2.649  0.00  0.00     0.020 C 
BRANCH  23  24
HETATM   24  C   UNK N   1      20.997  15.121   1.135  0.00  0.00     0.002 C 
BRANCH  24  25
HETATM   25  C   UNK N   1      19.808  16.005   0.759  0.00  0.00     0.002 C 
BRANCH  25  26
HETATM   26  C   UNK N   1      20.207  17.444   0.409  0.00  0.00     0.027 C 
BRANCH  26  27
HETATM   27  C   UNK N   1      20.312  18.358   1.626  0.00  0.00     0.180 C 
BRANCH  27  28
HETATM   28  O   UNK N   1      20.708  19.645   1.241  0.00  0.00    -0.297 OA
BRANCH  28  29
HETATM   29  P   UNK N   1      20.713  20.579   2.710  0.00  0.00     0.390 P 
HETATM   30  O   UNK N   1      22.056  21.340   2.869  0.00  0.00    -0.632 OA
BRANCH  29  31
HETATM   31  O   UNK N   1      20.757  21.645   1.339  0.00  0.00    -0.307 OA
HETATM   32  H   UNK N   1      20.508  21.356   0.448  0.00  0.00     0.222 HD
ENDBRANCH  29  31
BRANCH  29  33
HETATM   33  O   UNK N   1      21.897  19.318   2.870  0.00  0.00    -0.307 OA
HETATM   34  H   UNK N   1      22.851  19.278   3.045  0.00  0.00     0.222 HD
ENDBRANCH  29  33
ENDBRANCH  28  29
ENDBRANCH  27  28
ENDBRANCH  26  27
ENDBRANCH  25  26
ENDBRANCH  24  25
ENDBRANCH  23  24
ENDBRANCH  22  23
ENDBRANCH  20  22
ENDBRANCH   1  18
TORSDOF 23
ENDMDL
MODEL 6
REMARK VINA RESULT:      -4.5     10.648     12.846
REMARK  23 active torsions:
REMARK  status: ('A' for Active; 'I' for Inactive)
REMARK    1  A    between atoms: O_2  and  C_3 
REMARK    2  A    between atoms: C_3  and  C_4 
REMARK    3  A    between atoms: C_4  and  O_5 
REMARK    4  A    between atoms: O_5  and  C_6 
REMARK    5  A    between atoms: C_6  and  C_7 
REMARK    6  A    between atoms: C_7  and  N_8 
REMARK    7  A    between atoms: N_8  and  C_9 
REMARK       I    between atoms: N_8  and  C_24 
REMARK    8  A    between atoms: C_9  and  C_10 
REMARK       I    between atoms: C_10  and  N_12 
REMARK    9  A    between atoms: N_12  and  C_13 
REMARK   10  A    between atoms: C_13  and  C_14 
REMARK   11  A    between atoms: C_14  and  C_15 
REMARK   12  A    between atoms: C_15  and  C_16 
REMARK   13  A    between atoms: C_16  and  C_17 
REMARK   14  A    between atoms: C_17  and  C_18 
REMARK   15  A    between atoms: C_18  and  O_19 
REMARK   16  A    between atoms: O_19  and  P_20 
REMARK   17  A    between atoms: P_20  and  O_22 
REMARK   18  A    between atoms: P_20  and  O_23 
REMARK   19  A    between atoms: C_24  and  C_26 
REMARK   20  A    between atoms: C_26  and  O_27 
REMARK   21  A    between atoms: O_27  and  C_28 
REMARK   22  A    between atoms: C_28  and  C_29 
REMARK   23  A    between atoms: C_29  and  O_30 
ROOT
HETATM    1  C   UNK N   1      34.488  15.179  10.385  0.00  0.00     0.228 C 
ENDROOT
BRANCH   1   2
HETATM    2  N   UNK N   1      35.335  14.302   9.607  0.00  0.00    -0.340 N 
HETATM    3  C   UNK N   1      36.376  13.645  10.204  0.00  0.00     0.243 C 
HETATM    4  O   UNK N   1      37.060  12.858   9.570  0.00  0.00    -0.271 OA
BRANCH   2   5
HETATM    5  C   UNK N   1      34.999  14.062   8.216  0.00  0.00     0.152 C 
BRANCH   5   6
HETATM    6  C   UNK N   1      35.906  14.852   7.279  0.00  0.00     0.187 C 
BRANCH   6   7
HETATM    7  O   UNK N   1      35.153  15.776   6.543  0.00  0.00    -0.387 OA
BRANCH   7   8
HETATM    8  C   UNK N   1      34.850  15.133   5.336  0.00  0.00     0.193 C 
BRANCH   8   9
HETATM    9  C   UNK N   1      33.623  15.755   4.693  0.00  0.00     0.193 C 
BRANCH   9  10
HETATM   10  O   UNK N   1      33.532  17.098   5.066  0.00  0.00    -0.394 OA
HETATM   11  C   UNK N   1      32.271  17.511   4.636  0.00  0.00     0.201 C 
ENDBRANCH   9  10
ENDBRANCH   8   9
ENDBRANCH   7   8
ENDBRANCH   6   7
ENDBRANCH   5   6
ENDBRANCH   2   5
BRANCH   3  12
HETATM   12  C   UNK N   1      36.689  13.863  11.655  0.00  0.00     0.270 C 
BRANCH  12  13
HETATM   13  O   UNK N   1      37.341  12.744  12.181  0.00  0.00    -0.380 OA
BRANCH  13  14
HETATM   14  C   UNK N   1      36.549  12.325  13.254  0.00  0.00     0.194 C 
BRANCH  14  15
HETATM   15  C   UNK N   1      35.959  13.538  13.954  0.00  0.00     0.193 C 
BRANCH  15  16
HETATM   16  O   UNK N   1      34.664  13.256  14.383  0.00  0.00    -0.394 OA
HETATM   17  C   UNK N   1      34.816  12.886  15.719  0.00  0.00     0.201 C 
ENDBRANCH  15  16
ENDBRANCH  14  15
ENDBRANCH  13  14
ENDBRANCH  12  13
ENDBRANCH   3  12
ENDBRANCH   1   2
BRANCH   1  18
HETATM   18  C   UNK N   1      34.779  16.618  10.045  0.00  0.00     0.235 C 
HETATM   19  O   UNK N   1      35.801  17.135  10.469  0.00  0.00    -0.272 OA
HETATM   20  N   UNK N   1      33.955  17.344   9.258  0.00  0.00    -0.360 N 
HETATM   21  H   UNK N   1      34.193  18.281   9.074  0.00  0.00     0.162 HD
BRANCH  20  22
HETATM   22  C   UNK N   1      32.745  16.819   8.675  0.00  0.00     0.122 C 
BRANCH  22  23
HETATM   23  C   UNK N   1      31.787  17.941   8.276  0.00  0.00     0.020 C 
BRANCH  23  24
HETATM   24  C   UNK N   1      30.435  17.885   8.983  0.00  0.00     0.002 C 
BRANCH  24  25
HETATM   25  C   UNK N   1      29.286  17.826   7.974  0.00  0.00     0.002 C 
BRANCH  25  26
HETATM   26  C   UNK N   1      28.196  18.873   8.234  0.00  0.00     0.027 C 
BRANCH  26  27
HETATM   27  C   UNK N   1      27.762  19.622   6.977  0.00  0.00     0.180 C 
BRANCH  27  28
HETATM   28  O   UNK N   1      28.061  18.876   5.831  0.00  0.00    -0.297 OA
BRANCH  28  29
HETATM   29  P   UNK N   1      27.007  19.499   4.593  0.00  0.00     0.390 P 
HETATM   30  O   UNK N   1      25.863  20.338   5.222  0.00  0.00    -0.632 OA
BRANCH  29  31
HETATM   31  O   UNK N   1      27.831  20.812   5.376  0.00  0.00    -0.307 OA
HETATM   32  H   UNK N   1      28.444  21.396   4.905  0.00  0.00     0.222 HD
ENDBRANCH  29  31
BRANCH  29  33
HETATM   33  O   UNK N   1      26.108  18.350   5.537  0.00  0.00    -0.307 OA
HETATM   34  H   UNK N   1      25.557  18.385   6.335  0.00  0.00     0.222 HD
ENDBRANCH  29  33
ENDBRANCH  28  29
ENDBRANCH  27  28
ENDBRANCH  26  27
ENDBRANCH  25  26
ENDBRANCH  24  25
ENDBRANCH  23  24
ENDBRANCH  22  23
ENDBRANCH  20  22
ENDBRANCH   1  18
TORSDOF 23
ENDMDL
MODEL 7
REMARK VINA RESULT:      -4.5      8.780     11.964
REMARK  23 active torsions:
REMARK  status: ('A' for Active; 'I' for Inactive)
REMARK    1  A    between atoms: O_2  and  C_3 
REMARK    2  A    between atoms: C_3  and  C_4 
REMARK    3  A    between atoms: C_4  and  O_5 
REMARK    4  A    between atoms: O_5  and  C_6 
REMARK    5  A    between atoms: C_6  and  C_7 
REMARK    6  A    between atoms: C_7  and  N_8 
REMARK    7  A    between atoms: N_8  and  C_9 
REMARK       I    between atoms: N_8  and  C_24 
REMARK    8  A    between atoms: C_9  and  C_10 
REMARK       I    between atoms: C_10  and  N_12 
REMARK    9  A    between atoms: N_12  and  C_13 
REMARK   10  A    between atoms: C_13  and  C_14 
REMARK   11  A    between atoms: C_14  and  C_15 
REMARK   12  A    between atoms: C_15  and  C_16 
REMARK   13  A    between atoms: C_16  and  C_17 
REMARK   14  A    between atoms: C_17  and  C_18 
REMARK   15  A    between atoms: C_18  and  O_19 
REMARK   16  A    between atoms: O_19  and  P_20 
REMARK   17  A    between atoms: P_20  and  O_22 
REMARK   18  A    between atoms: P_20  and  O_23 
REMARK   19  A    between atoms: C_24  and  C_26 
REMARK   20  A    between atoms: C_26  and  O_27 
REMARK   21  A    between atoms: O_27  and  C_28 
REMARK   22  A    between atoms: C_28  and  C_29 
REMARK   23  A    between atoms: C_29  and  O_30 
ROOT
HETATM    1  C   UNK N   1      31.886  17.608   7.478  0.00  0.00     0.228 C 
ENDROOT
BRANCH   1   2
HETATM    2  N   UNK N   1      33.304  17.361   7.331  0.00  0.00    -0.340 N 
HETATM    3  C   UNK N   1      33.779  16.715   6.222  0.00  0.00     0.243 C 
HETATM    4  O   UNK N   1      34.977  16.555   6.060  0.00  0.00    -0.271 OA
BRANCH   2   5
HETATM    5  C   UNK N   1      34.212  17.896   8.329  0.00  0.00     0.152 C 
BRANCH   5   6
HETATM    6  C   UNK N   1      34.709  16.806   9.272  0.00  0.00     0.187 C 
BRANCH   6   7
HETATM    7  O   UNK N   1      35.539  17.360  10.255  0.00  0.00    -0.387 OA
BRANCH   7   8
HETATM    8  C   UNK N   1      35.839  16.306  11.128  0.00  0.00     0.193 C 
BRANCH   8   9
HETATM    9  C   UNK N   1      34.714  15.285  11.138  0.00  0.00     0.193 C 
BRANCH   9  10
HETATM   10  O   UNK N   1      35.195  14.069  11.629  0.00  0.00    -0.394 OA
HETATM   11  C   UNK N   1      35.855  14.391  12.814  0.00  0.00     0.201 C 
ENDBRANCH   9  10
ENDBRANCH   8   9
ENDBRANCH   7   8
ENDBRANCH   6   7
ENDBRANCH   5   6
ENDBRANCH   2   5
BRANCH   3  12
HETATM   12  C   UNK N   1      32.836  16.204   5.171  0.00  0.00     0.270 C 
BRANCH  12  13
HETATM   13  O   UNK N   1      33.481  15.263   4.362  0.00  0.00    -0.380 OA
BRANCH  13  14
HETATM   14  C   UNK N   1      32.536  14.257   4.141  0.00  0.00     0.194 C 
BRANCH  14  15
HETATM   15  C   UNK N   1      32.463  13.351   5.358  0.00  0.00     0.193 C 
BRANCH  15  16
HETATM   16  O   UNK N   1      31.132  13.119   5.699  0.00  0.00    -0.394 OA
HETATM   17  C   UNK N   1      30.430  13.335   4.513  0.00  0.00     0.201 C 
ENDBRANCH  15  16
ENDBRANCH  14  15
ENDBRANCH  13  14
ENDBRANCH  12  13
ENDBRANCH   3  12
ENDBRANCH   1   2
BRANCH   1  18
HETATM   18  C   UNK N   1      31.304  16.683   8.515  0.00  0.00     0.235 C 
HETATM   19  O   UNK N   1      31.707  15.532   8.581  0.00  0.00    -0.272 OA
HETATM   20  N   UNK N   1      30.367  17.100   9.394  0.00  0.00    -0.360 N 
HETATM   21  H   UNK N   1      30.018  16.451  10.046  0.00  0.00     0.162 HD
BRANCH  20  22
HETATM   22  C   UNK N   1      29.851  18.447   9.427  0.00  0.00     0.122 C 
BRANCH  22  23
HETATM   23  C   UNK N   1      28.389  18.494   8.983  0.00  0.00     0.020 C 
BRANCH  23  24
HETATM   24  C   UNK N   1      28.198  18.495   7.469  0.00  0.00     0.002 C 
BRANCH  24  25
HETATM   25  C   UNK N   1      27.781  19.878   6.966  0.00  0.00     0.002 C 
BRANCH  25  26
HETATM   26  C   UNK N   1      27.183  19.857   5.554  0.00  0.00     0.027 C 
BRANCH  26  27
HETATM   27  C   UNK N   1      26.971  18.449   5.006  0.00  0.00     0.180 C 
BRANCH  27  28
HETATM   28  O   UNK N   1      27.867  18.186   3.963  0.00  0.00    -0.297 OA
BRANCH  28  29
HETATM   29  P   UNK N   1      28.123  16.465   4.004  0.00  0.00     0.390 P 
HETATM   30  O   UNK N   1      27.951  15.854   2.588  0.00  0.00    -0.632 OA
BRANCH  29  31
HETATM   31  O   UNK N   1      29.375  17.221   3.065  0.00  0.00    -0.307 OA
HETATM   32  H   UNK N   1      29.980  16.714   2.502  0.00  0.00     0.222 HD
ENDBRANCH  29  31
BRANCH  29  33
HETATM   33  O   UNK N   1      26.454  16.751   3.619  0.00  0.00    -0.307 OA
HETATM   34  H   UNK N   1      25.911  17.530   3.415  0.00  0.00     0.222 HD
ENDBRANCH  29  33
ENDBRANCH  28  29
ENDBRANCH  27  28
ENDBRANCH  26  27
ENDBRANCH  25  26
ENDBRANCH  24  25
ENDBRANCH  23  24
ENDBRANCH  22  23
ENDBRANCH  20  22
ENDBRANCH   1  18
TORSDOF 23
ENDMDL
MODEL 8
REMARK VINA RESULT:      -4.4     12.893     15.435
REMARK  23 active torsions:
REMARK  status: ('A' for Active; 'I' for Inactive)
REMARK    1  A    between atoms: O_2  and  C_3 
REMARK    2  A    between atoms: C_3  and  C_4 
REMARK    3  A    between atoms: C_4  and  O_5 
REMARK    4  A    between atoms: O_5  and  C_6 
REMARK    5  A    between atoms: C_6  and  C_7 
REMARK    6  A    between atoms: C_7  and  N_8 
REMARK    7  A    between atoms: N_8  and  C_9 
REMARK       I    between atoms: N_8  and  C_24 
REMARK    8  A    between atoms: C_9  and  C_10 
REMARK       I    between atoms: C_10  and  N_12 
REMARK    9  A    between atoms: N_12  and  C_13 
REMARK   10  A    between atoms: C_13  and  C_14 
REMARK   11  A    between atoms: C_14  and  C_15 
REMARK   12  A    between atoms: C_15  and  C_16 
REMARK   13  A    between atoms: C_16  and  C_17 
REMARK   14  A    between atoms: C_17  and  C_18 
REMARK   15  A    between atoms: C_18  and  O_19 
REMARK   16  A    between atoms: O_19  and  P_20 
REMARK   17  A    between atoms: P_20  and  O_22 
REMARK   18  A    between atoms: P_20  and  O_23 
REMARK   19  A    between atoms: C_24  and  C_26 
REMARK   20  A    between atoms: C_26  and  O_27 
REMARK   21  A    between atoms: O_27  and  C_28 
REMARK   22  A    between atoms: C_28  and  C_29 
REMARK   23  A    between atoms: C_29  and  O_30 
ROOT
HETATM    1  C   UNK N   1      28.071  24.110  -4.699  0.00  0.00     0.228 C 
ENDROOT
BRANCH   1   2
HETATM    2  N   UNK N   1      29.119  24.952  -4.165  0.00  0.00    -0.340 N 
HETATM    3  C   UNK N   1      30.077  24.421  -3.345  0.00  0.00     0.243 C 
HETATM    4  O   UNK N   1      30.999  25.109  -2.938  0.00  0.00    -0.271 OA
BRANCH   2   5
HETATM    5  C   UNK N   1      29.187  26.338  -4.593  0.00  0.00     0.152 C 
BRANCH   5   6
HETATM    6  C   UNK N   1      29.287  26.448  -6.111  0.00  0.00     0.187 C 
BRANCH   6   7
HETATM    7  O   UNK N   1      30.625  26.612  -6.495  0.00  0.00    -0.387 OA
BRANCH   7   8
HETATM    8  C   UNK N   1      31.186  27.466  -5.537  0.00  0.00     0.193 C 
BRANCH   8   9
HETATM    9  C   UNK N   1      32.680  27.221  -5.413  0.00  0.00     0.193 C 
BRANCH   9  10
HETATM   10  O   UNK N   1      32.982  25.941  -5.882  0.00  0.00    -0.394 OA
HETATM   11  C   UNK N   1      34.055  25.512  -5.102  0.00  0.00     0.201 C 
ENDBRANCH   9  10
ENDBRANCH   8   9
ENDBRANCH   7   8
ENDBRANCH   6   7
ENDBRANCH   5   6
ENDBRANCH   2   5
BRANCH   3  12
HETATM   12  C   UNK N   1      30.027  22.976  -2.943  0.00  0.00     0.270 C 
BRANCH  12  13
HETATM   13  O   UNK N   1      31.140  22.655  -2.161  0.00  0.00    -0.380 OA
BRANCH  13  14
HETATM   14  C   UNK N   1      31.824  21.668  -2.878  0.00  0.00     0.194 C 
BRANCH  14  15
HETATM   15  C   UNK N   1      30.840  20.887  -3.733  0.00  0.00     0.193 C 
BRANCH  15  16
HETATM   16  O   UNK N   1      31.520  19.941  -4.497  0.00  0.00    -0.394 OA
HETATM   17  C   UNK N   1      31.208  20.274  -5.815  0.00  0.00     0.201 C 
ENDBRANCH  15  16
ENDBRANCH  14  15
ENDBRANCH  13  14
ENDBRANCH  12  13
ENDBRANCH   3  12
ENDBRANCH   1   2
BRANCH   1  18
HETATM   18  C   UNK N   1      26.781  24.357  -3.961  0.00  0.00     0.235 C 
HETATM   19  O   UNK N   1      26.680  23.993  -2.800  0.00  0.00    -0.272 OA
HETATM   20  N   UNK N   1      25.742  24.997  -4.540  0.00  0.00    -0.360 N 
HETATM   21  H   UNK N   1      24.921  25.125  -4.012  0.00  0.00     0.162 HD
BRANCH  20  22
HETATM   22  C   UNK N   1      25.771  25.501  -5.891  0.00  0.00     0.122 C 
BRANCH  22  23
HETATM   23  C   UNK N   1      25.808  27.029  -5.915  0.00  0.00     0.020 C 
BRANCH  23  24
HETATM   24  C   UNK N   1      25.126  27.687  -4.718  0.00  0.00     0.002 C 
BRANCH  24  25
HETATM   25  C   UNK N   1      26.152  28.309  -3.770  0.00  0.00     0.002 C 
BRANCH  25  26
HETATM   26  C   UNK N   1      26.291  29.827  -3.936  0.00  0.00     0.027 C 
BRANCH  26  27
HETATM   27  C   UNK N   1      27.381  30.437  -3.060  0.00  0.00     0.180 C 
BRANCH  27  28
HETATM   28  O   UNK N   1      27.522  29.709  -1.872  0.00  0.00    -0.297 OA
BRANCH  28  29
HETATM   29  P   UNK N   1      28.576  30.668  -0.872  0.00  0.00     0.390 P 
HETATM   30  O   UNK N   1      29.748  29.807  -0.331  0.00  0.00    -0.632 OA
BRANCH  29  31
HETATM   31  O   UNK N   1      29.423  30.167  -2.303  0.00  0.00    -0.307 OA
HETATM   32  H   UNK N   1      30.045  30.746  -2.769  0.00  0.00     0.222 HD
ENDBRANCH  29  31
BRANCH  29  33
HETATM   33  O   UNK N   1      27.802  29.487   0.140  0.00  0.00    -0.307 OA
HETATM   34  H   UNK N   1      28.049  28.629   0.522  0.00  0.00     0.222 HD
ENDBRANCH  29  33
ENDBRANCH  28  29
ENDBRANCH  27  28
ENDBRANCH  26  27
ENDBRANCH  25  26
ENDBRANCH  24  25
ENDBRANCH  23  24
ENDBRANCH  22  23
ENDBRANCH  20  22
ENDBRANCH   1  18
TORSDOF 23
ENDMDL
MODEL 9
REMARK VINA RESULT:      -4.4     13.233     15.974
REMARK  23 active torsions:
REMARK  status: ('A' for Active; 'I' for Inactive)
REMARK    1  A    between atoms: O_2  and  C_3 
REMARK    2  A    between atoms: C_3  and  C_4 
REMARK    3  A    between atoms: C_4  and  O_5 
REMARK    4  A    between atoms: O_5  and  C_6 
REMARK    5  A    between atoms: C_6  and  C_7 
REMARK    6  A    between atoms: C_7  and  N_8 
REMARK    7  A    between atoms: N_8  and  C_9 
REMARK       I    between atoms: N_8  and  C_24 
REMARK    8  A    between atoms: C_9  and  C_10 
REMARK       I    between atoms: C_10  and  N_12 
REMARK    9  A    between atoms: N_12  and  C_13 
REMARK   10  A    between atoms: C_13  and  C_14 
REMARK   11  A    between atoms: C_14  and  C_15 
REMARK   12  A    between atoms: C_15  and  C_16 
REMARK   13  A    between atoms: C_16  and  C_17 
REMARK   14  A    between atoms: C_17  and  C_18 
REMARK   15  A    between atoms: C_18  and  O_19 
REMARK   16  A    between atoms: O_19  and  P_20 
REMARK   17  A    between atoms: P_20  and  O_22 
REMARK   18  A    between atoms: P_20  and  O_23 
REMARK   19  A    between atoms: C_24  and  C_26 
REMARK   20  A    between atoms: C_26  and  O_27 
REMARK   21  A    between atoms: O_27  and  C_28 
REMARK   22  A    between atoms: C_28  and  C_29 
REMARK   23  A    between atoms: C_29  and  O_30 
ROOT
HETATM    1  C   UNK N   1      28.113  23.643  -6.969  0.00  0.00     0.228 C 
ENDROOT
BRANCH   1   2
HETATM    2  N   UNK N   1      26.882  24.224  -6.479  0.00  0.00    -0.340 N 
HETATM    3  C   UNK N   1      26.249  25.200  -7.198  0.00  0.00     0.243 C 
HETATM    4  O   UNK N   1      25.180  25.655  -6.824  0.00  0.00    -0.271 OA
BRANCH   2   5
HETATM    5  C   UNK N   1      26.289  23.685  -5.269  0.00  0.00     0.152 C 
BRANCH   5   6
HETATM    6  C   UNK N   1      27.010  24.189  -4.023  0.00  0.00     0.187 C 
BRANCH   6   7
HETATM    7  O   UNK N   1      26.226  25.146  -3.366  0.00  0.00    -0.387 OA
BRANCH   7   8
HETATM    8  C   UNK N   1      26.816  26.381  -3.666  0.00  0.00     0.193 C 
BRANCH   8   9
HETATM    9  C   UNK N   1      25.751  27.438  -3.901  0.00  0.00     0.193 C 
BRANCH   9  10
HETATM   10  O   UNK N   1      25.965  28.514  -3.037  0.00  0.00    -0.394 OA
HETATM   11  C   UNK N   1      27.344  28.725  -3.053  0.00  0.00     0.201 C 
ENDBRANCH   9  10
ENDBRANCH   8   9
ENDBRANCH   7   8
ENDBRANCH   6   7
ENDBRANCH   5   6
ENDBRANCH   2   5
BRANCH   3  12
HETATM   12  C   UNK N   1      26.845  25.721  -8.474  0.00  0.00     0.270 C 
BRANCH  12  13
HETATM   13  O   UNK N   1      26.957  27.114  -8.419  0.00  0.00    -0.380 OA
BRANCH  13  14
HETATM   14  C   UNK N   1      28.094  27.362  -7.644  0.00  0.00     0.194 C 
BRANCH  14  15
HETATM   15  C   UNK N   1      27.877  28.613  -6.809  0.00  0.00     0.193 C 
BRANCH  15  16
HETATM   16  O   UNK N   1      28.878  29.544  -7.078  0.00  0.00    -0.394 OA
HETATM   17  C   UNK N   1      28.754  30.487  -6.058  0.00  0.00     0.201 C 
ENDBRANCH  15  16
ENDBRANCH  14  15
ENDBRANCH  13  14
ENDBRANCH  12  13
ENDBRANCH   3  12
ENDBRANCH   1   2
BRANCH   1  18
HETATM   18  C   UNK N   1      27.843  22.286  -7.567  0.00  0.00     0.235 C 
HETATM   19  O   UNK N   1      26.938  22.160  -8.375  0.00  0.00    -0.272 OA
HETATM   20  N   UNK N   1      28.597  21.209  -7.255  0.00  0.00    -0.360 N 
HETATM   21  H   UNK N   1      28.372  20.346  -7.671  0.00  0.00     0.162 HD
BRANCH  20  22
HETATM   22  C   UNK N   1      29.713  21.256  -6.342  0.00  0.00     0.122 C 
BRANCH  22  23
HETATM   23  C   UNK N   1      30.628  20.044  -6.518  0.00  0.00     0.020 C 
BRANCH  23  24
HETATM   24  C   UNK N   1      31.970  20.168  -5.801  0.00  0.00     0.002 C 
BRANCH  24  25
HETATM   25  C   UNK N   1      32.811  21.298  -6.395  0.00  0.00     0.002 C 
BRANCH  25  26
HETATM   26  C   UNK N   1      33.295  22.310  -5.350  0.00  0.00     0.027 C 
BRANCH  26  27
HETATM   27  C   UNK N   1      32.627  22.143  -3.988  0.00  0.00     0.180 C 
BRANCH  27  28
HETATM   28  O   UNK N   1      31.868  23.275  -3.671  0.00  0.00    -0.297 OA
BRANCH  28  29
HETATM   29  P   UNK N   1      30.459  22.665  -2.851  0.00  0.00     0.390 P 
HETATM   30  O   UNK N   1      30.506  23.025  -1.342  0.00  0.00    -0.632 OA
BRANCH  29  31
HETATM   31  O   UNK N   1      30.439  24.402  -2.833  0.00  0.00    -0.307 OA
HETATM   32  H   UNK N   1      29.740  24.909  -2.393  0.00  0.00     0.222 HD
ENDBRANCH  29  31
BRANCH  29  33
HETATM   33  O   UNK N   1      31.844  21.805  -2.252  0.00  0.00    -0.307 OA
HETATM   34  H   UNK N   1      32.697  21.519  -2.618  0.00  0.00     0.222 HD
ENDBRANCH  29  33
ENDBRANCH  28  29
ENDBRANCH  27  28
ENDBRANCH  26  27
ENDBRANCH  25  26
ENDBRANCH  24  25
ENDBRANCH  23  24
ENDBRANCH  22  23
ENDBRANCH  20  22
ENDBRANCH   1  18
TORSDOF 23
ENDMDL
