MODEL 1
REMARK VINA RESULT:      -8.7      0.000      0.000
REMARK  4 active torsions:
REMARK  status: ('A' for Active; 'I' for Inactive)
REMARK    1  A    between atoms: C_18  and  O_29 
REMARK    2  A    between atoms: O_29  and  C_30 
REMARK    3  A    between atoms: C_30  and  C_31 
REMARK    4  A    between atoms: C_31  and  N_32 
ROOT
HETATM    1  C   UNK N   1      26.176  20.809   3.054  0.00  0.00     0.002 A 
HETATM    2  C   UNK N   1      27.072  20.200   3.926  0.00  0.00     0.009 A 
HETATM    3  C   UNK N   1      26.662  19.138   4.737  0.00  0.00    -0.034 A 
HETATM    4  C   UNK N   1      25.326  18.686   4.680  0.00  0.00     0.023 A 
HETATM    5  C   UNK N   1      24.405  19.320   3.817  0.00  0.00    -0.008 A 
HETATM    6  C   UNK N   1      24.851  20.383   3.013  0.00  0.00     0.014 A 
HETATM    7  C   UNK N   1      22.962  18.950   3.783  0.00  0.00     0.060 A 
HETATM    8  C   UNK N   1      22.060  19.776   3.102  0.00  0.00     0.048 A 
HETATM    9  C   UNK N   1      20.708  19.466   3.125  0.00  0.00     0.108 A 
HETATM   10  N   UNK N   1      20.279  18.364   3.787  0.00  0.00    -0.202 N 
ATOM     11  HN  UNK N   1      19.282  18.149   3.808  1.00  0.00     0.183 HD
HETATM   12  C   UNK N   1      21.151  17.540   4.424  0.00  0.00     0.683 A 
HETATM   13  N   UNK N   1      20.688  16.467   4.981  0.00  0.00    -0.192 N 
ATOM     14  HN  UNK N   1      19.673  16.359   4.977  1.00  0.00     0.184 HD
HETATM   15  C   UNK N   1      21.430  15.419   5.600  0.00  0.00     0.050 A 
HETATM   16  C   UNK N   1      20.742  14.307   6.095  0.00  0.00     0.033 A 
HETATM   17  C   UNK N   1      21.441  13.206   6.601  0.00  0.00     0.039 A 
HETATM   18  C   UNK N   1      22.841  13.186   6.602  0.00  0.00     0.077 A 
HETATM   19  C   UNK N   1      23.536  14.328   6.126  0.00  0.00     0.001 A 
HETATM   20  C   UNK N   1      22.825  15.421   5.633  0.00  0.00     0.042 A 
HETATM   21  C   UNK N   1      25.015  14.432   6.148  0.00  0.00     0.209 C 
HETATM   22  O   UNK N   1      25.513  14.640   4.857  0.00  0.00    -0.383 OA
HETATM   23  C   UNK N   1      26.844  14.210   4.895  0.00  0.00     0.195 C 
HETATM   24  C   UNK N   1      27.677  15.250   5.562  0.00  0.00    -0.003 C 
HETATM   25  C   UNK N   1      28.607  15.911   4.898  0.00  0.00    -0.003 C 
HETATM   26  C   UNK N   1      29.284  17.036   5.597  0.00  0.00     0.195 C 
HETATM   27  O   UNK N   1      28.844  18.243   5.049  0.00  0.00    -0.383 OA
HETATM   28  C   UNK N   1      27.642  18.558   5.706  0.00  0.00     0.206 C 
HETATM   29  N   UNK N   1      22.489  17.843   4.429  0.00  0.00    -0.191 N 
HETATM   30  H   UNK N   1      23.118  17.254   4.905  0.00  0.00     0.184 HD
ENDROOT
BRANCH  18  31
HETATM   31  O   UNK N   1      23.465  12.064   7.056  0.00  0.00    -0.349 OA
BRANCH  31  32
HETATM   32  C   UNK N   1      23.396  11.609   8.357  0.00  0.00     0.206 C 
BRANCH  32  33
HETATM   33  C   UNK N   1      24.260  12.450   9.285  0.00  0.00     0.299 C 
BRANCH  33  34
HETATM   34  N   UNK N   1      23.505  12.781  10.487  0.00  0.00     0.090 N 
HETATM   35  C   UNK N   1      22.123  12.377  10.307  0.00  0.00     0.272 C 
HETATM   36  C   UNK N   1      21.577  12.098  11.694  0.00  0.00     0.032 C 
HETATM   37  C   UNK N   1      22.798  11.864  12.558  0.00  0.00     0.032 C 
HETATM   38  C   UNK N   1      23.969  11.974  11.604  0.00  0.00     0.272 C 
ENDBRANCH  33  34
ENDBRANCH  32  33
ENDBRANCH  31  32
ENDBRANCH  18  31
TORSDOF 4
ENDMDL
MODEL 2
REMARK VINA RESULT:      -8.7     13.514     16.390
REMARK  4 active torsions:
REMARK  status: ('A' for Active; 'I' for Inactive)
REMARK    1  A    between atoms: C_18  and  O_29 
REMARK    2  A    between atoms: O_29  and  C_30 
REMARK    3  A    between atoms: C_30  and  C_31 
REMARK    4  A    between atoms: C_31  and  N_32 
ROOT
HETATM    1  C   UNK N   1      30.082  19.141  -7.478  0.00  0.00     0.002 A 
HETATM    2  C   UNK N   1      30.981  19.828  -6.671  0.00  0.00     0.009 A 
HETATM    3  C   UNK N   1      30.700  21.130  -6.247  0.00  0.00    -0.034 A 
HETATM    4  C   UNK N   1      29.502  21.757  -6.650  0.00  0.00     0.023 A 
HETATM    5  C   UNK N   1      28.599  21.073  -7.493  0.00  0.00    -0.008 A 
HETATM    6  C   UNK N   1      28.910  19.764  -7.899  0.00  0.00     0.014 A 
HETATM    7  C   UNK N   1      27.366  21.717  -8.027  0.00  0.00     0.060 A 
HETATM    8  C   UNK N   1      26.652  21.082  -9.051  0.00  0.00     0.048 A 
HETATM    9  C   UNK N   1      25.540  21.712  -9.592  0.00  0.00     0.108 A 
HETATM   10  N   UNK N   1      25.149  22.919  -9.115  0.00  0.00    -0.202 N 
ATOM     11  HN  UNK N   1      24.337  23.380  -9.525  1.00  0.00     0.183 HD
HETATM   12  C   UNK N   1      25.818  23.527  -8.101  0.00  0.00     0.683 A 
HETATM   13  N   UNK N   1      25.356  24.647  -7.644  0.00  0.00    -0.192 N 
ATOM     14  HN  UNK N   1      24.559  25.043  -8.143  1.00  0.00     0.184 HD
HETATM   15  C   UNK N   1      25.830  25.391  -6.524  0.00  0.00     0.050 A 
HETATM   16  C   UNK N   1      25.152  26.556  -6.154  0.00  0.00     0.033 A 
HETATM   17  C   UNK N   1      25.513  27.249  -4.992  0.00  0.00     0.039 A 
HETATM   18  C   UNK N   1      26.543  26.779  -4.169  0.00  0.00     0.077 A 
HETATM   19  C   UNK N   1      27.248  25.612  -4.564  0.00  0.00     0.001 A 
HETATM   20  C   UNK N   1      26.883  24.938  -5.729  0.00  0.00     0.042 A 
HETATM   21  C   UNK N   1      28.398  25.073  -3.797  0.00  0.00     0.209 C 
HETATM   22  O   UNK N   1      28.146  23.757  -3.394  0.00  0.00    -0.383 OA
HETATM   23  C   UNK N   1      28.984  23.535  -2.296  0.00  0.00     0.195 C 
HETATM   24  C   UNK N   1      30.373  23.296  -2.779  0.00  0.00    -0.003 C 
HETATM   25  C   UNK N   1      30.961  22.125  -2.619  0.00  0.00    -0.003 C 
HETATM   26  C   UNK N   1      32.285  21.925  -3.265  0.00  0.00     0.195 C 
HETATM   27  O   UNK N   1      32.136  21.059  -4.351  0.00  0.00    -0.383 OA
HETATM   28  C   UNK N   1      31.727  21.855  -5.435  0.00  0.00     0.206 C 
HETATM   29  N   UNK N   1      26.931  22.928  -7.568  0.00  0.00    -0.191 N 
HETATM   30  H   UNK N   1      27.424  23.377  -6.845  0.00  0.00     0.184 HD
ENDROOT
BRANCH  18  31
HETATM   31  O   UNK N   1      26.811  27.465  -3.024  0.00  0.00    -0.349 OA
BRANCH  31  32
HETATM   32  C   UNK N   1      27.133  28.806  -2.980  0.00  0.00     0.206 C 
BRANCH  32  33
HETATM   33  C   UNK N   1      28.637  29.013  -2.887  0.00  0.00     0.299 C 
BRANCH  33  34
HETATM   34  N   UNK N   1      29.143  29.490  -4.169  0.00  0.00     0.090 N 
HETATM   35  C   UNK N   1      29.685  28.369  -4.913  0.00  0.00     0.272 C 
HETATM   36  C   UNK N   1      29.557  28.730  -6.380  0.00  0.00     0.032 C 
HETATM   37  C   UNK N   1      28.495  29.809  -6.429  0.00  0.00     0.032 C 
HETATM   38  C   UNK N   1      28.043  29.966  -4.992  0.00  0.00     0.272 C 
ENDBRANCH  33  34
ENDBRANCH  32  33
ENDBRANCH  31  32
ENDBRANCH  18  31
TORSDOF 4
ENDMDL
MODEL 3
REMARK VINA RESULT:      -8.0      2.902      7.277
REMARK  4 active torsions:
REMARK  status: ('A' for Active; 'I' for Inactive)
REMARK    1  A    between atoms: C_18  and  O_29 
REMARK    2  A    between atoms: O_29  and  C_30 
REMARK    3  A    between atoms: C_30  and  C_31 
REMARK    4  A    between atoms: C_31  and  N_32 
ROOT
HETATM    1  C   UNK N   1      19.387  14.928   4.087  0.00  0.00     0.002 A 
HETATM    2  C   UNK N   1      20.394  13.970   4.138  0.00  0.00     0.009 A 
HETATM    3  C   UNK N   1      21.735  14.345   4.018  0.00  0.00    -0.034 A 
HETATM    4  C   UNK N   1      22.071  15.703   3.832  0.00  0.00     0.023 A 
HETATM    5  C   UNK N   1      21.050  16.676   3.751  0.00  0.00    -0.008 A 
HETATM    6  C   UNK N   1      19.711  16.265   3.878  0.00  0.00     0.014 A 
HETATM    7  C   UNK N   1      21.338  18.108   3.461  0.00  0.00     0.060 A 
HETATM    8  C   UNK N   1      20.279  18.967   3.142  0.00  0.00     0.048 A 
HETATM    9  C   UNK N   1      20.553  20.286   2.809  0.00  0.00     0.108 A 
HETATM   10  N   UNK N   1      21.833  20.731   2.814  0.00  0.00    -0.202 N 
ATOM     11  HN  UNK N   1      22.027  21.699   2.558  1.00  0.00     0.183 HD
HETATM   12  C   UNK N   1      22.864  19.913   3.152  0.00  0.00     0.683 A 
HETATM   13  N   UNK N   1      24.056  20.414   3.203  0.00  0.00    -0.192 N 
ATOM     14  HN  UNK N   1      24.151  21.383   2.896  1.00  0.00     0.184 HD
HETATM   15  C   UNK N   1      25.252  19.771   3.637  0.00  0.00     0.050 A 
HETATM   16  C   UNK N   1      26.439  20.509   3.673  0.00  0.00     0.033 A 
HETATM   17  C   UNK N   1      27.607  19.950   4.204  0.00  0.00     0.039 A 
HETATM   18  C   UNK N   1      27.605  18.652   4.729  0.00  0.00     0.077 A 
HETATM   19  C   UNK N   1      26.406  17.896   4.665  0.00  0.00     0.001 A 
HETATM   20  C   UNK N   1      25.253  18.463   4.124  0.00  0.00     0.042 A 
HETATM   21  C   UNK N   1      26.319  16.491   5.131  0.00  0.00     0.209 C 
HETATM   22  O   UNK N   1      25.346  16.363   6.129  0.00  0.00    -0.383 OA
HETATM   23  C   UNK N   1      25.689  15.209   6.841  0.00  0.00     0.195 C 
HETATM   24  C   UNK N   1      25.279  14.010   6.057  0.00  0.00    -0.003 C 
HETATM   25  C   UNK N   1      24.337  13.195   6.495  0.00  0.00    -0.003 C 
HETATM   26  C   UNK N   1      23.882  12.113   5.582  0.00  0.00     0.195 C 
HETATM   27  O   UNK N   1      22.602  12.420   5.114  0.00  0.00    -0.383 OA
HETATM   28  C   UNK N   1      22.779  13.274   4.013  0.00  0.00     0.206 C 
HETATM   29  N   UNK N   1      22.612  18.601   3.463  0.00  0.00    -0.191 N 
HETATM   30  H   UNK N   1      23.361  18.005   3.692  0.00  0.00     0.184 HD
ENDROOT
BRANCH  18  31
HETATM   31  O   UNK N   1      28.757  18.184   5.282  0.00  0.00    -0.349 OA
BRANCH  31  32
HETATM   32  C   UNK N   1      29.718  17.473   4.592  0.00  0.00     0.206 C 
BRANCH  32  33
HETATM   33  C   UNK N   1      30.083  16.187   5.316  0.00  0.00     0.299 C 
BRANCH  33  34
HETATM   34  N   UNK N   1      31.503  16.199   5.646  0.00  0.00     0.090 N 
HETATM   35  C   UNK N   1      32.219  16.955   4.635  0.00  0.00     0.272 C 
HETATM   36  C   UNK N   1      33.456  17.509   5.314  0.00  0.00     0.032 C 
HETATM   37  C   UNK N   1      33.141  17.473   6.795  0.00  0.00     0.032 C 
HETATM   38  C   UNK N   1      31.724  16.947   6.873  0.00  0.00     0.272 C 
ENDBRANCH  33  34
ENDBRANCH  32  33
ENDBRANCH  31  32
ENDBRANCH  18  31
TORSDOF 4
ENDMDL
MODEL 4
REMARK VINA RESULT:      -7.8      4.181      6.754
REMARK  4 active torsions:
REMARK  status: ('A' for Active; 'I' for Inactive)
REMARK    1  A    between atoms: C_18  and  O_29 
REMARK    2  A    between atoms: O_29  and  C_30 
REMARK    3  A    between atoms: C_30  and  C_31 
REMARK    4  A    between atoms: C_31  and  N_32 
ROOT
HETATM    1  C   UNK N   1      19.941  13.711   1.307  0.00  0.00     0.002 A 
HETATM    2  C   UNK N   1      21.108  13.165   0.786  0.00  0.00     0.009 A 
HETATM    3  C   UNK N   1      22.325  13.840   0.914  0.00  0.00    -0.034 A 
HETATM    4  C   UNK N   1      22.369  15.090   1.568  0.00  0.00     0.023 A 
HETATM    5  C   UNK N   1      21.181  15.662   2.074  0.00  0.00    -0.008 A 
HETATM    6  C   UNK N   1      19.974  14.955   1.930  0.00  0.00     0.014 A 
HETATM    7  C   UNK N   1      21.150  17.019   2.688  0.00  0.00     0.060 A 
HETATM    8  C   UNK N   1      19.914  17.629   2.935  0.00  0.00     0.048 A 
HETATM    9  C   UNK N   1      19.886  18.919   3.447  0.00  0.00     0.108 A 
HETATM   10  N   UNK N   1      21.047  19.563   3.717  0.00  0.00    -0.202 N 
ATOM     11  HN  UNK N   1      21.018  20.515   4.084  1.00  0.00     0.183 HD
HETATM   12  C   UNK N   1      22.250  18.967   3.509  0.00  0.00     0.683 A 
HETATM   13  N   UNK N   1      23.322  19.608   3.850  0.00  0.00    -0.192 N 
ATOM     14  HN  UNK N   1      23.189  20.566   4.176  1.00  0.00     0.184 HD
HETATM   15  C   UNK N   1      24.665  19.132   3.825  0.00  0.00     0.050 A 
HETATM   16  C   UNK N   1      25.685  19.967   4.293  0.00  0.00     0.033 A 
HETATM   17  C   UNK N   1      26.998  19.494   4.395  0.00  0.00     0.039 A 
HETATM   18  C   UNK N   1      27.314  18.175   4.051  0.00  0.00     0.077 A 
HETATM   19  C   UNK N   1      26.282  17.340   3.549  0.00  0.00     0.001 A 
HETATM   20  C   UNK N   1      24.980  17.827   3.444  0.00  0.00     0.042 A 
HETATM   21  C   UNK N   1      26.527  15.949   3.094  0.00  0.00     0.209 C 
HETATM   22  O   UNK N   1      25.740  15.049   3.821  0.00  0.00    -0.383 OA
HETATM   23  C   UNK N   1      26.388  13.813   3.713  0.00  0.00     0.195 C 
HETATM   24  C   UNK N   1      26.111  13.229   2.371  0.00  0.00    -0.003 C 
HETATM   25  C   UNK N   1      25.408  12.119   2.240  0.00  0.00    -0.003 C 
HETATM   26  C   UNK N   1      25.047  11.690   0.863  0.00  0.00     0.195 C 
HETATM   27  O   UNK N   1      23.681  11.902   0.663  0.00  0.00    -0.383 OA
HETATM   28  C   UNK N   1      23.543  13.247   0.280  0.00  0.00     0.206 C 
HETATM   29  N   UNK N   1      22.296  17.700   2.985  0.00  0.00    -0.191 N 
HETATM   30  H   UNK N   1      23.168  17.275   2.819  0.00  0.00     0.184 HD
ENDROOT
BRANCH  18  31
HETATM   31  O   UNK N   1      28.598  17.758   4.224  0.00  0.00    -0.349 OA
BRANCH  31  32
HETATM   32  C   UNK N   1      29.289  17.844   5.415  0.00  0.00     0.206 C 
BRANCH  32  33
HETATM   33  C   UNK N   1      29.213  16.541   6.196  0.00  0.00     0.299 C 
BRANCH  33  34
HETATM   34  N   UNK N   1      29.384  16.813   7.618  0.00  0.00     0.090 N 
HETATM   35  C   UNK N   1      30.594  17.590   7.811  0.00  0.00     0.272 C 
HETATM   36  C   UNK N   1      30.386  18.395   9.079  0.00  0.00     0.032 C 
HETATM   37  C   UNK N   1      28.886  18.431   9.280  0.00  0.00     0.032 C 
HETATM   38  C   UNK N   1      28.321  17.687   8.089  0.00  0.00     0.272 C 
ENDBRANCH  33  34
ENDBRANCH  32  33
ENDBRANCH  31  32
ENDBRANCH  18  31
TORSDOF 4
ENDMDL
MODEL 5
REMARK VINA RESULT:      -7.8      9.284     14.020
REMARK  4 active torsions:
REMARK  status: ('A' for Active; 'I' for Inactive)
REMARK    1  A    between atoms: C_18  and  O_29 
REMARK    2  A    between atoms: O_29  and  C_30 
REMARK    3  A    between atoms: C_30  and  C_31 
REMARK    4  A    between atoms: C_31  and  N_32 
ROOT
HETATM    1  C   UNK N   1      35.496   8.001  12.948  0.00  0.00     0.002 A 
HETATM    2  C   UNK N   1      34.549   7.931  11.932  0.00  0.00     0.009 A 
HETATM    3  C   UNK N   1      34.100   9.095  11.302  0.00  0.00    -0.034 A 
HETATM    4  C   UNK N   1      34.600  10.352  11.707  0.00  0.00     0.023 A 
HETATM    5  C   UNK N   1      35.540  10.429  12.758  0.00  0.00    -0.008 A 
HETATM    6  C   UNK N   1      35.973   9.239  13.369  0.00  0.00     0.014 A 
HETATM    7  C   UNK N   1      36.032  11.730  13.291  0.00  0.00     0.060 A 
HETATM    8  C   UNK N   1      36.757  11.748  14.489  0.00  0.00     0.048 A 
HETATM    9  C   UNK N   1      37.160  12.966  15.019  0.00  0.00     0.108 A 
HETATM   10  N   UNK N   1      36.863  14.116  14.367  0.00  0.00    -0.202 N 
ATOM     11  HN  UNK N   1      37.154  15.008  14.769  1.00  0.00     0.183 HD
HETATM   12  C   UNK N   1      36.186  14.106  13.189  0.00  0.00     0.683 A 
HETATM   13  N   UNK N   1      35.992  15.232  12.581  0.00  0.00    -0.192 N 
ATOM     14  HN  UNK N   1      36.290  16.071  13.080  1.00  0.00     0.184 HD
HETATM   15  C   UNK N   1      35.411  15.438  11.296  0.00  0.00     0.050 A 
HETATM   16  C   UNK N   1      35.344  16.739  10.787  0.00  0.00     0.033 A 
HETATM   17  C   UNK N   1      34.890  16.969   9.484  0.00  0.00     0.039 A 
HETATM   18  C   UNK N   1      34.516  15.903   8.657  0.00  0.00     0.077 A 
HETATM   19  C   UNK N   1      34.558  14.587   9.187  0.00  0.00     0.001 A 
HETATM   20  C   UNK N   1      35.003  14.374  10.491  0.00  0.00     0.042 A 
HETATM   21  C   UNK N   1      34.119  13.399   8.415  0.00  0.00     0.209 C 
HETATM   22  O   UNK N   1      35.163  12.474   8.299  0.00  0.00    -0.383 OA
HETATM   23  C   UNK N   1      34.852  11.697   7.178  0.00  0.00     0.195 C 
HETATM   24  C   UNK N   1      33.798  10.709   7.543  0.00  0.00    -0.003 C 
HETATM   25  C   UNK N   1      34.046   9.413   7.544  0.00  0.00    -0.003 C 
HETATM   26  C   UNK N   1      32.988   8.509   8.068  0.00  0.00     0.195 C 
HETATM   27  O   UNK N   1      33.390   8.008   9.309  0.00  0.00    -0.383 OA
HETATM   28  C   UNK N   1      33.033   8.978  10.261  0.00  0.00     0.206 C 
HETATM   29  N   UNK N   1      35.763  12.912  12.662  0.00  0.00    -0.191 N 
HETATM   30  H   UNK N   1      35.259  12.907  11.817  0.00  0.00     0.184 HD
ENDROOT
BRANCH  18  31
HETATM   31  O   UNK N   1      34.137  16.185   7.381  0.00  0.00    -0.349 OA
BRANCH  31  32
HETATM   32  C   UNK N   1      33.207  17.147   7.041  0.00  0.00     0.206 C 
BRANCH  32  33
HETATM   33  C   UNK N   1      31.857  16.524   6.718  0.00  0.00     0.299 C 
BRANCH  33  34
HETATM   34  N   UNK N   1      30.911  16.831   7.784  0.00  0.00     0.090 N 
HETATM   35  C   UNK N   1      31.420  17.942   8.566  0.00  0.00     0.272 C 
HETATM   36  C   UNK N   1      30.209  18.640   9.154  0.00  0.00     0.032 C 
HETATM   37  C   UNK N   1      29.047  18.212   8.283  0.00  0.00     0.032 C 
HETATM   38  C   UNK N   1      29.670  17.334   7.218  0.00  0.00     0.272 C 
ENDBRANCH  33  34
ENDBRANCH  32  33
ENDBRANCH  31  32
ENDBRANCH  18  31
TORSDOF 4
ENDMDL
MODEL 6
REMARK VINA RESULT:      -7.5      4.511      7.667
REMARK  4 active torsions:
REMARK  status: ('A' for Active; 'I' for Inactive)
REMARK    1  A    between atoms: C_18  and  O_29 
REMARK    2  A    between atoms: O_29  and  C_30 
REMARK    3  A    between atoms: C_30  and  C_31 
REMARK    4  A    between atoms: C_31  and  N_32 
ROOT
HETATM    1  C   UNK N   1      34.198  17.656   7.691  0.00  0.00     0.002 A 
HETATM    2  C   UNK N   1      34.434  16.514   6.933  0.00  0.00     0.009 A 
HETATM    3  C   UNK N   1      33.369  15.716   6.504  0.00  0.00    -0.034 A 
HETATM    4  C   UNK N   1      32.046  16.064   6.850  0.00  0.00     0.023 A 
HETATM    5  C   UNK N   1      31.804  17.208   7.643  0.00  0.00    -0.008 A 
HETATM    6  C   UNK N   1      32.897  17.990   8.056  0.00  0.00     0.014 A 
HETATM    7  C   UNK N   1      30.440  17.572   8.119  0.00  0.00     0.060 A 
HETATM    8  C   UNK N   1      30.299  18.559   9.102  0.00  0.00     0.048 A 
HETATM    9  C   UNK N   1      29.034  18.852   9.591  0.00  0.00     0.108 A 
HETATM   10  N   UNK N   1      27.953  18.197   9.102  0.00  0.00    -0.202 N 
ATOM     11  HN  UNK N   1      27.028  18.412   9.475  1.00  0.00     0.183 HD
HETATM   12  C   UNK N   1      28.077  17.260   8.127  0.00  0.00     0.683 A 
HETATM   13  N   UNK N   1      27.001  16.718   7.654  0.00  0.00    -0.192 N 
ATOM     14  HN  UNK N   1      26.128  16.973   8.116  1.00  0.00     0.184 HD
HETATM   15  C   UNK N   1      26.893  15.805   6.564  0.00  0.00     0.050 A 
HETATM   16  C   UNK N   1      25.623  15.376   6.168  0.00  0.00     0.033 A 
HETATM   17  C   UNK N   1      25.467  14.576   5.030  0.00  0.00     0.039 A 
HETATM   18  C   UNK N   1      26.574  14.208   4.257  0.00  0.00     0.077 A 
HETATM   19  C   UNK N   1      27.864  14.621   4.679  0.00  0.00     0.001 A 
HETATM   20  C   UNK N   1      28.005  15.409   5.819  0.00  0.00     0.042 A 
HETATM   21  C   UNK N   1      29.104  14.225   3.967  0.00  0.00     0.209 C 
HETATM   22  O   UNK N   1      29.809  15.358   3.544  0.00  0.00    -0.383 OA
HETATM   23  C   UNK N   1      30.617  14.923   2.487  0.00  0.00     0.195 C 
HETATM   24  C   UNK N   1      31.793  14.192   3.037  0.00  0.00    -0.003 C 
HETATM   25  C   UNK N   1      33.018  14.665   2.899  0.00  0.00    -0.003 C 
HETATM   26  C   UNK N   1      34.115  13.955   3.610  0.00  0.00     0.195 C 
HETATM   27  O   UNK N   1      34.546  14.740   4.682  0.00  0.00    -0.383 OA
HETATM   28  C   UNK N   1      33.675  14.462   5.749  0.00  0.00     0.206 C 
HETATM   29  N   UNK N   1      29.323  16.943   7.647  0.00  0.00    -0.191 N 
HETATM   30  H   UNK N   1      29.413  16.252   6.952  0.00  0.00     0.184 HD
ENDROOT
BRANCH  18  31
HETATM   31  O   UNK N   1      26.352  13.475   3.131  0.00  0.00    -0.349 OA
BRANCH  31  32
HETATM   32  C   UNK N   1      25.762  13.970   1.985  0.00  0.00     0.206 C 
BRANCH  32  33
HETATM   33  C   UNK N   1      24.436  13.281   1.703  0.00  0.00     0.299 C 
BRANCH  33  34
HETATM   34  N   UNK N   1      23.455  14.271   1.273  0.00  0.00     0.090 N 
HETATM   35  C   UNK N   1      22.317  13.588   0.688  0.00  0.00     0.272 C 
HETATM   36  C   UNK N   1      21.122  14.501   0.889  0.00  0.00     0.032 C 
HETATM   37  C   UNK N   1      21.522  15.427   2.018  0.00  0.00     0.032 C 
HETATM   38  C   UNK N   1      22.902  14.959   2.429  0.00  0.00     0.272 C 
ENDBRANCH  33  34
ENDBRANCH  32  33
ENDBRANCH  31  32
ENDBRANCH  18  31
TORSDOF 4
ENDMDL
MODEL 7
REMARK VINA RESULT:      -7.3      4.238      7.443
REMARK  4 active torsions:
REMARK  status: ('A' for Active; 'I' for Inactive)
REMARK    1  A    between atoms: C_18  and  O_29 
REMARK    2  A    between atoms: O_29  and  C_30 
REMARK    3  A    between atoms: C_30  and  C_31 
REMARK    4  A    between atoms: C_31  and  N_32 
ROOT
HETATM    1  C   UNK N   1      20.194  13.411   1.216  0.00  0.00     0.002 A 
HETATM    2  C   UNK N   1      21.408  12.914   0.754  0.00  0.00     0.009 A 
HETATM    3  C   UNK N   1      22.589  13.635   0.950  0.00  0.00    -0.034 A 
HETATM    4  C   UNK N   1      22.551  14.880   1.613  0.00  0.00     0.023 A 
HETATM    5  C   UNK N   1      21.317  15.402   2.059  0.00  0.00    -0.008 A 
HETATM    6  C   UNK N   1      20.147  14.651   1.848  0.00  0.00     0.014 A 
HETATM    7  C   UNK N   1      21.201  16.752   2.678  0.00  0.00     0.060 A 
HETATM    8  C   UNK N   1      19.931  17.313   2.863  0.00  0.00     0.048 A 
HETATM    9  C   UNK N   1      19.827  18.596   3.381  0.00  0.00     0.108 A 
HETATM   10  N   UNK N   1      20.946  19.282   3.716  0.00  0.00    -0.202 N 
ATOM     11  HN  UNK N   1      20.861  20.229   4.086  1.00  0.00     0.183 HD
HETATM   12  C   UNK N   1      22.181  18.734   3.568  0.00  0.00     0.683 A 
HETATM   13  N   UNK N   1      23.207  19.413   3.968  0.00  0.00    -0.192 N 
ATOM     14  HN  UNK N   1      23.021  20.363   4.292  1.00  0.00     0.184 HD
HETATM   15  C   UNK N   1      24.568  18.989   4.010  0.00  0.00     0.050 A 
HETATM   16  C   UNK N   1      25.529  19.859   4.536  0.00  0.00     0.033 A 
HETATM   17  C   UNK N   1      26.852  19.436   4.704  0.00  0.00     0.039 A 
HETATM   18  C   UNK N   1      27.236  18.133   4.370  0.00  0.00     0.077 A 
HETATM   19  C   UNK N   1      26.265  17.262   3.809  0.00  0.00     0.001 A 
HETATM   20  C   UNK N   1      24.952  17.700   3.639  0.00  0.00     0.042 A 
HETATM   21  C   UNK N   1      26.587  15.886   3.360  0.00  0.00     0.209 C 
HETATM   22  O   UNK N   1      25.798  14.950   4.039  0.00  0.00    -0.383 OA
HETATM   23  C   UNK N   1      26.499  13.742   3.958  0.00  0.00     0.195 C 
HETATM   24  C   UNK N   1      26.315  13.158   2.600  0.00  0.00    -0.003 C 
HETATM   25  C   UNK N   1      25.663  12.023   2.426  0.00  0.00    -0.003 C 
HETATM   26  C   UNK N   1      25.392  11.591   1.030  0.00  0.00     0.195 C 
HETATM   27  O   UNK N   1      24.031  11.751   0.759  0.00  0.00    -0.383 OA
HETATM   28  C   UNK N   1      23.861  13.093   0.378  0.00  0.00     0.206 C 
HETATM   29  N   UNK N   1      22.303  17.474   3.039  0.00  0.00    -0.191 N 
HETATM   30  H   UNK N   1      23.198  17.084   2.917  0.00  0.00     0.184 HD
ENDROOT
BRANCH  18  31
HETATM   31  O   UNK N   1      28.524  17.763   4.608  0.00  0.00    -0.349 OA
BRANCH  31  32
HETATM   32  C   UNK N   1      29.068  17.609   5.867  0.00  0.00     0.206 C 
BRANCH  32  33
HETATM   33  C   UNK N   1      30.319  16.744   5.828  0.00  0.00     0.299 C 
BRANCH  33  34
HETATM   34  N   UNK N   1      30.853  16.719   4.472  0.00  0.00     0.090 N 
HETATM   35  C   UNK N   1      32.046  17.544   4.416  0.00  0.00     0.272 C 
HETATM   36  C   UNK N   1      32.900  16.980   3.297  0.00  0.00     0.032 C 
HETATM   37  C   UNK N   1      32.404  15.564   3.097  0.00  0.00     0.032 C 
HETATM   38  C   UNK N   1      31.327  15.384   4.147  0.00  0.00     0.272 C 
ENDBRANCH  33  34
ENDBRANCH  32  33
ENDBRANCH  31  32
ENDBRANCH  18  31
TORSDOF 4
ENDMDL
MODEL 8
REMARK VINA RESULT:      -7.2      9.082     14.024
REMARK  4 active torsions:
REMARK  status: ('A' for Active; 'I' for Inactive)
REMARK    1  A    between atoms: C_18  and  O_29 
REMARK    2  A    between atoms: O_29  and  C_30 
REMARK    3  A    between atoms: C_30  and  C_31 
REMARK    4  A    between atoms: C_31  and  N_32 
ROOT
HETATM    1  C   UNK N   1      35.068   7.962  12.389  0.00  0.00     0.002 A 
HETATM    2  C   UNK N   1      34.097   8.031  11.395  0.00  0.00     0.009 A 
HETATM    3  C   UNK N   1      33.712   9.266  10.866  0.00  0.00    -0.034 A 
HETATM    4  C   UNK N   1      34.303  10.453  11.350  0.00  0.00     0.023 A 
HETATM    5  C   UNK N   1      35.269  10.389  12.378  0.00  0.00    -0.008 A 
HETATM    6  C   UNK N   1      35.636   9.131  12.887  0.00  0.00     0.014 A 
HETATM    7  C   UNK N   1      35.857  11.612  12.994  0.00  0.00     0.060 A 
HETATM    8  C   UNK N   1      36.608  11.492  14.170  0.00  0.00     0.048 A 
HETATM    9  C   UNK N   1      37.102  12.637  14.778  0.00  0.00     0.108 A 
HETATM   10  N   UNK N   1      36.868  13.850  14.222  0.00  0.00    -0.202 N 
ATOM     11  HN  UNK N   1      37.226  14.688  14.681  1.00  0.00     0.183 HD
HETATM   12  C   UNK N   1      36.167  13.974  13.065  0.00  0.00     0.683 A 
HETATM   13  N   UNK N   1      36.035  15.153  12.548  0.00  0.00    -0.192 N 
ATOM     14  HN  UNK N   1      36.399  15.930  13.100  1.00  0.00     0.184 HD
HETATM   15  C   UNK N   1      35.442  15.493  11.297  0.00  0.00     0.050 A 
HETATM   16  C   UNK N   1      35.450  16.830  10.889  0.00  0.00     0.033 A 
HETATM   17  C   UNK N   1      34.985  17.187   9.618  0.00  0.00     0.039 A 
HETATM   18  C   UNK N   1      34.523  16.214   8.725  0.00  0.00     0.077 A 
HETATM   19  C   UNK N   1      34.489  14.861   9.154  0.00  0.00     0.001 A 
HETATM   20  C   UNK N   1      34.947  14.522  10.426  0.00  0.00     0.042 A 
HETATM   21  C   UNK N   1      33.955  13.766   8.308  0.00  0.00     0.209 C 
HETATM   22  O   UNK N   1      34.933  12.788   8.095  0.00  0.00    -0.383 OA
HETATM   23  C   UNK N   1      34.547  12.120   6.928  0.00  0.00     0.195 C 
HETATM   24  C   UNK N   1      33.438  11.178   7.246  0.00  0.00    -0.003 C 
HETATM   25  C   UNK N   1      33.599   9.871   7.145  0.00  0.00    -0.003 C 
HETATM   26  C   UNK N   1      32.495   9.000   7.628  0.00  0.00     0.195 C 
HETATM   27  O   UNK N   1      32.889   8.381   8.817  0.00  0.00    -0.383 OA
HETATM   28  C   UNK N   1      32.618   9.298   9.847  0.00  0.00     0.206 C 
HETATM   29  N   UNK N   1      35.655  12.853  12.461  0.00  0.00    -0.191 N 
HETATM   30  H   UNK N   1      35.133  12.945  11.632  0.00  0.00     0.184 HD
ENDROOT
BRANCH  18  31
HETATM   31  O   UNK N   1      34.136  16.616   7.483  0.00  0.00    -0.349 OA
BRANCH  31  32
HETATM   32  C   UNK N   1      32.862  17.043   7.167  0.00  0.00     0.206 C 
BRANCH  32  33
HETATM   33  C   UNK N   1      32.725  17.325   5.679  0.00  0.00     0.299 C 
BRANCH  33  34
HETATM   34  N   UNK N   1      32.052  16.206   5.031  0.00  0.00     0.090 N 
HETATM   35  C   UNK N   1      33.048  15.279   4.528  0.00  0.00     0.272 C 
HETATM   36  C   UNK N   1      32.387  13.914   4.504  0.00  0.00     0.032 C 
HETATM   37  C   UNK N   1      31.220  14.026   5.462  0.00  0.00     0.032 C 
HETATM   38  C   UNK N   1      31.311  15.433   6.015  0.00  0.00     0.272 C 
ENDBRANCH  33  34
ENDBRANCH  32  33
ENDBRANCH  31  32
ENDBRANCH  18  31
TORSDOF 4
ENDMDL
MODEL 9
REMARK VINA RESULT:      -7.2      4.948      8.350
REMARK  4 active torsions:
REMARK  status: ('A' for Active; 'I' for Inactive)
REMARK    1  A    between atoms: C_18  and  O_29 
REMARK    2  A    between atoms: O_29  and  C_30 
REMARK    3  A    between atoms: C_30  and  C_31 
REMARK    4  A    between atoms: C_31  and  N_32 
ROOT
HETATM    1  C   UNK N   1      26.362  11.633   1.703  0.00  0.00     0.002 A 
HETATM    2  C   UNK N   1      27.680  11.818   1.303  0.00  0.00     0.009 A 
HETATM    3  C   UNK N   1      28.478  12.788   1.916  0.00  0.00    -0.034 A 
HETATM    4  C   UNK N   1      27.940  13.595   2.942  0.00  0.00     0.023 A 
HETATM    5  C   UNK N   1      26.592  13.429   3.333  0.00  0.00    -0.008 A 
HETATM    6  C   UNK N   1      25.818  12.443   2.697  0.00  0.00     0.014 A 
HETATM    7  C   UNK N   1      25.943  14.313   4.341  0.00  0.00     0.060 A 
HETATM    8  C   UNK N   1      24.552  14.265   4.496  0.00  0.00     0.048 A 
HETATM    9  C   UNK N   1      23.940  15.134   5.389  0.00  0.00     0.108 A 
HETATM   10  N   UNK N   1      24.692  16.001   6.110  0.00  0.00    -0.202 N 
ATOM     11  HN  UNK N   1      24.234  16.643   6.757  1.00  0.00     0.183 HD
HETATM   12  C   UNK N   1      26.045  16.032   5.988  0.00  0.00     0.683 A 
HETATM   13  N   UNK N   1      26.713  16.835   6.752  0.00  0.00    -0.192 N 
ATOM     14  HN  UNK N   1      26.162  17.460   7.341  1.00  0.00     0.184 HD
HETATM   15  C   UNK N   1      28.129  16.948   6.868  0.00  0.00     0.050 A 
HETATM   16  C   UNK N   1      28.660  17.844   7.802  0.00  0.00     0.033 A 
HETATM   17  C   UNK N   1      30.039  17.898   8.030  0.00  0.00     0.039 A 
HETATM   18  C   UNK N   1      30.912  17.045   7.344  0.00  0.00     0.077 A 
HETATM   19  C   UNK N   1      30.373  16.158   6.376  0.00  0.00     0.001 A 
HETATM   20  C   UNK N   1      28.998  16.122   6.154  0.00  0.00     0.042 A 
HETATM   21  C   UNK N   1      31.220  15.264   5.550  0.00  0.00     0.209 C 
HETATM   22  O   UNK N   1      30.854  13.927   5.741  0.00  0.00    -0.383 OA
HETATM   23  C   UNK N   1      31.976  13.175   5.374  0.00  0.00     0.195 C 
HETATM   24  C   UNK N   1      32.061  13.113   3.888  0.00  0.00    -0.003 C 
HETATM   25  C   UNK N   1      31.913  11.971   3.242  0.00  0.00    -0.003 C 
HETATM   26  C   UNK N   1      31.858  12.022   1.757  0.00  0.00     0.195 C 
HETATM   27  O   UNK N   1      30.549  11.768   1.340  0.00  0.00    -0.383 OA
HETATM   28  C   UNK N   1      29.869  12.997   1.408  0.00  0.00     0.206 C 
HETATM   29  N   UNK N   1      26.664  15.195   5.095  0.00  0.00    -0.191 N 
HETATM   30  H   UNK N   1      27.642  15.230   4.995  0.00  0.00     0.184 HD
ENDROOT
BRANCH  18  31
HETATM   31  O   UNK N   1      32.238  17.106   7.649  0.00  0.00    -0.349 OA
BRANCH  31  32
HETATM   32  C   UNK N   1      32.810  16.503   8.750  0.00  0.00     0.206 C 
BRANCH  32  33
HETATM   33  C   UNK N   1      34.246  16.963   8.951  0.00  0.00     0.299 C 
BRANCH  33  34
HETATM   34  N   UNK N   1      34.986  15.945   9.686  0.00  0.00     0.090 N 
HETATM   35  C   UNK N   1      35.588  16.549  10.860  0.00  0.00     0.272 C 
HETATM   36  C   UNK N   1      35.730  15.440  11.885  0.00  0.00     0.032 C 
HETATM   37  C   UNK N   1      34.748  14.373  11.448  0.00  0.00     0.032 C 
HETATM   38  C   UNK N   1      34.068  14.955  10.226  0.00  0.00     0.272 C 
ENDBRANCH  33  34
ENDBRANCH  32  33
ENDBRANCH  31  32
ENDBRANCH  18  31
TORSDOF 4
ENDMDL
