MODEL 1
REMARK VINA RESULT:      -7.3      0.000      0.000
REMARK  11 active torsions:
REMARK  status: ('A' for Active; 'I' for Inactive)
REMARK    1  A    between atoms: C_2  and  S_4 
REMARK    2  A    between atoms: S_4  and  C_5 
REMARK    3  A    between atoms: C_5  and  C_6 
REMARK    4  A    between atoms: C_6  and  C_7 
REMARK    5  A    between atoms: C_6  and  C_14 
REMARK    6  A    between atoms: C_7  and  C_8 
REMARK       I    between atoms: C_14  and  N_16 
REMARK    7  A    between atoms: N_16  and  C_17 
REMARK    8  A    between atoms: C_17  and  C_18 
REMARK    9  A    between atoms: C_18  and  O_20 
REMARK   10  A    between atoms: O_20  and  C_21 
REMARK   11  A    between atoms: C_21  and  C_22 
ROOT
HETATM    1  C   UNK N   1      36.519  13.685  11.834  0.00  0.00     0.223 C 
HETATM    2  O   UNK N   1      37.561  13.087  11.618  0.00  0.00    -0.273 OA
HETATM    3  N   UNK N   1      36.084  14.567  10.899  0.00  0.00    -0.351 N 
HETATM    4  H   UNK N   1      36.635  14.675  10.092  0.00  0.00     0.163 HD
ENDROOT
BRANCH   1   5
HETATM    5  C   UNK N   1      35.760  13.427  13.128  0.00  0.00     0.092 C 
BRANCH   5   6
HETATM    6  C   UNK N   1      34.787  12.263  12.960  0.00  0.00     0.096 C 
BRANCH   6   7
HETATM    7  S   UNK N   1      35.572  10.759  13.635  0.00  0.00    -0.092 SA
BRANCH   7   8
HETATM    8  C   UNK N   1      34.299  10.483  14.863  0.00  0.00     0.182 C 
HETATM    9  C   UNK N   1      34.665   9.992  16.220  0.00  0.00     0.104 C 
HETATM   10  O   UNK N   1      33.136  10.741  14.604  0.00  0.00    -0.286 OA
ENDBRANCH   7   8
ENDBRANCH   6   7
ENDBRANCH   5   6
BRANCH   5  11
HETATM   11  C   UNK N   1      36.763  13.180  14.273  0.00  0.00     0.053 C 
BRANCH  11  12
HETATM   12  C   UNK N   1      36.618  13.961  15.549  0.00  0.00    -0.057 A 
HETATM   13  C   UNK N   1      35.723  13.491  16.517  0.00  0.00     0.007 A 
HETATM   14  C   UNK N   1      35.531  14.201  17.706  0.00  0.00     0.001 A 
HETATM   15  C   UNK N   1      36.225  15.393  17.927  0.00  0.00     0.000 A 
HETATM   16  C   UNK N   1      37.115  15.872  16.963  0.00  0.00     0.001 A 
HETATM   17  C   UNK N   1      37.310  15.156  15.779  0.00  0.00     0.007 A 
ENDBRANCH  11  12
ENDBRANCH   5  11
ENDBRANCH   1   5
BRANCH   3  18
HETATM   18  C   UNK N   1      34.881  15.357  10.989  0.00  0.00     0.233 C 
BRANCH  18  19
HETATM   19  C   UNK N   1      34.955  16.538  10.051  0.00  0.00     0.276 C 
HETATM   20  O   UNK N   1      35.631  17.500  10.370  0.00  0.00    -0.263 OA
BRANCH  19  21
HETATM   21  O   UNK N   1      34.287  16.568   8.867  0.00  0.00    -0.316 OA
BRANCH  21  22
HETATM   22  C   UNK N   1      33.264  17.453   8.608  0.00  0.00     0.217 C 
BRANCH  22  23
HETATM   23  C   UNK N   1      32.768  17.385   7.204  0.00  0.00    -0.034 A 
HETATM   24  C   UNK N   1      33.629  17.528   6.105  0.00  0.00     0.009 A 
HETATM   25  C   UNK N   1      33.116  17.478   4.805  0.00  0.00     0.001 A 
HETATM   26  C   UNK N   1      31.746  17.285   4.599  0.00  0.00     0.000 A 
HETATM   27  C   UNK N   1      30.889  17.140   5.693  0.00  0.00     0.001 A 
HETATM   28  C   UNK N   1      31.400  17.193   6.991  0.00  0.00     0.009 A 
ENDBRANCH  22  23
ENDBRANCH  21  22
ENDBRANCH  19  21
ENDBRANCH  18  19
ENDBRANCH   3  18
TORSDOF 11
ENDMDL
MODEL 2
REMARK VINA RESULT:      -7.1     18.101     21.917
REMARK  11 active torsions:
REMARK  status: ('A' for Active; 'I' for Inactive)
REMARK    1  A    between atoms: C_2  and  S_4 
REMARK    2  A    between atoms: S_4  and  C_5 
REMARK    3  A    between atoms: C_5  and  C_6 
REMARK    4  A    between atoms: C_6  and  C_7 
REMARK    5  A    between atoms: C_6  and  C_14 
REMARK    6  A    between atoms: C_7  and  C_8 
REMARK       I    between atoms: C_14  and  N_16 
REMARK    7  A    between atoms: N_16  and  C_17 
REMARK    8  A    between atoms: C_17  and  C_18 
REMARK    9  A    between atoms: C_18  and  O_20 
REMARK   10  A    between atoms: O_20  and  C_21 
REMARK   11  A    between atoms: C_21  and  C_22 
ROOT
HETATM    1  C   UNK N   1      28.496  25.749  -4.184  0.00  0.00     0.223 C 
HETATM    2  O   UNK N   1      29.071  26.697  -4.694  0.00  0.00    -0.273 OA
HETATM    3  N   UNK N   1      29.251  24.781  -3.605  0.00  0.00    -0.351 N 
HETATM    4  H   UNK N   1      30.227  24.899  -3.626  0.00  0.00     0.163 HD
ENDROOT
BRANCH   1   5
HETATM    5  C   UNK N   1      26.976  25.684  -4.221  0.00  0.00     0.092 C 
BRANCH   5   6
HETATM    6  C   UNK N   1      26.368  26.702  -3.260  0.00  0.00     0.096 C 
BRANCH   6   7
HETATM    7  S   UNK N   1      25.538  27.995  -4.246  0.00  0.00    -0.092 SA
BRANCH   7   8
HETATM    8  C   UNK N   1      26.477  29.337  -3.524  0.00  0.00     0.182 C 
HETATM    9  C   UNK N   1      27.580  29.046  -2.568  0.00  0.00     0.104 C 
HETATM   10  O   UNK N   1      26.245  30.489  -3.851  0.00  0.00    -0.286 OA
ENDBRANCH   7   8
ENDBRANCH   6   7
ENDBRANCH   5   6
BRANCH   5  11
HETATM   11  C   UNK N   1      26.486  25.894  -5.669  0.00  0.00     0.053 C 
BRANCH  11  12
HETATM   12  C   UNK N   1      26.049  24.701  -6.471  0.00  0.00    -0.057 A 
HETATM   13  C   UNK N   1      25.839  24.865  -7.844  0.00  0.00     0.007 A 
HETATM   14  C   UNK N   1      25.402  23.791  -8.625  0.00  0.00     0.001 A 
HETATM   15  C   UNK N   1      25.161  22.548  -8.033  0.00  0.00     0.000 A 
HETATM   16  C   UNK N   1      25.362  22.379  -6.660  0.00  0.00     0.001 A 
HETATM   17  C   UNK N   1      25.806  23.453  -5.884  0.00  0.00     0.007 A 
ENDBRANCH  11  12
ENDBRANCH   5  11
ENDBRANCH   1   5
BRANCH   3  18
HETATM   18  C   UNK N   1      28.742  23.595  -2.961  0.00  0.00     0.233 C 
BRANCH  18  19
HETATM   19  C   UNK N   1      29.881  22.704  -2.524  0.00  0.00     0.276 C 
HETATM   20  O   UNK N   1      30.493  22.988  -1.511  0.00  0.00    -0.263 OA
BRANCH  19  21
HETATM   21  O   UNK N   1      30.250  21.601  -3.229  0.00  0.00    -0.316 OA
BRANCH  21  22
HETATM   22  C   UNK N   1      31.050  21.664  -4.349  0.00  0.00     0.217 C 
BRANCH  22  23
HETATM   23  C   UNK N   1      30.347  21.250  -5.598  0.00  0.00    -0.034 A 
HETATM   24  C   UNK N   1      29.350  22.043  -6.185  0.00  0.00     0.009 A 
HETATM   25  C   UNK N   1      28.704  21.605  -7.346  0.00  0.00     0.001 A 
HETATM   26  C   UNK N   1      29.050  20.379  -7.920  0.00  0.00     0.000 A 
HETATM   27  C   UNK N   1      30.043  19.589  -7.336  0.00  0.00     0.001 A 
HETATM   28  C   UNK N   1      30.687  20.024  -6.176  0.00  0.00     0.009 A 
ENDBRANCH  22  23
ENDBRANCH  21  22
ENDBRANCH  19  21
ENDBRANCH  18  19
ENDBRANCH   3  18
TORSDOF 11
ENDMDL
MODEL 3
REMARK VINA RESULT:      -6.9     18.062     21.595
REMARK  11 active torsions:
REMARK  status: ('A' for Active; 'I' for Inactive)
REMARK    1  A    between atoms: C_2  and  S_4 
REMARK    2  A    between atoms: S_4  and  C_5 
REMARK    3  A    between atoms: C_5  and  C_6 
REMARK    4  A    between atoms: C_6  and  C_7 
REMARK    5  A    between atoms: C_6  and  C_14 
REMARK    6  A    between atoms: C_7  and  C_8 
REMARK       I    between atoms: C_14  and  N_16 
REMARK    7  A    between atoms: N_16  and  C_17 
REMARK    8  A    between atoms: C_17  and  C_18 
REMARK    9  A    between atoms: C_18  and  O_20 
REMARK   10  A    between atoms: O_20  and  C_21 
REMARK   11  A    between atoms: C_21  and  C_22 
ROOT
HETATM    1  C   UNK N   1      27.323  24.148  -3.586  0.00  0.00     0.223 C 
HETATM    2  O   UNK N   1      26.262  23.922  -3.026  0.00  0.00    -0.273 OA
HETATM    3  N   UNK N   1      28.469  23.934  -2.892  0.00  0.00    -0.351 N 
HETATM    4  H   UNK N   1      28.381  23.603  -1.970  0.00  0.00     0.163 HD
ENDROOT
BRANCH   1   5
HETATM    5  C   UNK N   1      27.322  24.661  -5.019  0.00  0.00     0.092 C 
BRANCH   5   6
HETATM    6  C   UNK N   1      27.181  23.505  -6.006  0.00  0.00     0.096 C 
BRANCH   6   7
HETATM    7  S   UNK N   1      26.852  24.202  -7.661  0.00  0.00    -0.092 SA
BRANCH   7   8
HETATM    8  C   UNK N   1      25.497  23.086  -8.010  0.00  0.00     0.182 C 
HETATM    9  C   UNK N   1      25.500  21.709  -7.444  0.00  0.00     0.104 C 
HETATM   10  O   UNK N   1      24.547  23.468  -8.673  0.00  0.00    -0.286 OA
ENDBRANCH   7   8
ENDBRANCH   6   7
ENDBRANCH   5   6
BRANCH   5  11
HETATM   11  C   UNK N   1      26.200  25.706  -5.192  0.00  0.00     0.053 C 
BRANCH  11  12
HETATM   12  C   UNK N   1      26.532  27.163  -5.037  0.00  0.00    -0.057 A 
HETATM   13  C   UNK N   1      25.971  27.862  -3.963  0.00  0.00     0.007 A 
HETATM   14  C   UNK N   1      26.227  29.226  -3.796  0.00  0.00     0.001 A 
HETATM   15  C   UNK N   1      27.036  29.902  -4.713  0.00  0.00     0.000 A 
HETATM   16  C   UNK N   1      27.594  29.213  -5.792  0.00  0.00     0.001 A 
HETATM   17  C   UNK N   1      27.343  27.848  -5.952  0.00  0.00     0.007 A 
ENDBRANCH  11  12
ENDBRANCH   5  11
ENDBRANCH   1   5
BRANCH   3  18
HETATM   18  C   UNK N   1      29.804  24.148  -3.393  0.00  0.00     0.233 C 
BRANCH  18  19
HETATM   19  C   UNK N   1      30.768  23.173  -2.758  0.00  0.00     0.276 C 
HETATM   20  O   UNK N   1      30.694  22.972  -1.559  0.00  0.00    -0.263 OA
BRANCH  19  21
HETATM   21  O   UNK N   1      31.719  22.521  -3.478  0.00  0.00    -0.316 OA
BRANCH  21  22
HETATM   22  C   UNK N   1      31.677  21.165  -3.715  0.00  0.00     0.217 C 
BRANCH  22  23
HETATM   23  C   UNK N   1      31.259  20.822  -5.104  0.00  0.00    -0.034 A 
HETATM   24  C   UNK N   1      29.992  21.159  -5.602  0.00  0.00     0.009 A 
HETATM   25  C   UNK N   1      29.635  20.800  -6.906  0.00  0.00     0.001 A 
HETATM   26  C   UNK N   1      30.541  20.104  -7.713  0.00  0.00     0.000 A 
HETATM   27  C   UNK N   1      31.804  19.769  -7.218  0.00  0.00     0.001 A 
HETATM   28  C   UNK N   1      32.159  20.125  -5.916  0.00  0.00     0.009 A 
ENDBRANCH  22  23
ENDBRANCH  21  22
ENDBRANCH  19  21
ENDBRANCH  18  19
ENDBRANCH   3  18
TORSDOF 11
ENDMDL
MODEL 4
REMARK VINA RESULT:      -6.9      2.609      9.896
REMARK  11 active torsions:
REMARK  status: ('A' for Active; 'I' for Inactive)
REMARK    1  A    between atoms: C_2  and  S_4 
REMARK    2  A    between atoms: S_4  and  C_5 
REMARK    3  A    between atoms: C_5  and  C_6 
REMARK    4  A    between atoms: C_6  and  C_7 
REMARK    5  A    between atoms: C_6  and  C_14 
REMARK    6  A    between atoms: C_7  and  C_8 
REMARK       I    between atoms: C_14  and  N_16 
REMARK    7  A    between atoms: N_16  and  C_17 
REMARK    8  A    between atoms: C_17  and  C_18 
REMARK    9  A    between atoms: C_18  and  O_20 
REMARK   10  A    between atoms: O_20  and  C_21 
REMARK   11  A    between atoms: C_21  and  C_22 
ROOT
HETATM    1  C   UNK N   1      34.473  17.397   9.083  0.00  0.00     0.223 C 
HETATM    2  O   UNK N   1      35.161  18.404   9.107  0.00  0.00    -0.273 OA
HETATM    3  N   UNK N   1      34.658  16.474  10.061  0.00  0.00    -0.351 N 
HETATM    4  H   UNK N   1      35.340  16.671  10.742  0.00  0.00     0.163 HD
ENDROOT
BRANCH   1   5
HETATM    5  C   UNK N   1      33.451  17.211   7.970  0.00  0.00     0.092 C 
BRANCH   5   6
HETATM    6  C   UNK N   1      32.151  17.936   8.305  0.00  0.00     0.096 C 
BRANCH   6   7
HETATM    7  S   UNK N   1      30.880  16.683   8.690  0.00  0.00    -0.092 SA
BRANCH   7   8
HETATM    8  C   UNK N   1      30.437  16.410   6.977  0.00  0.00     0.182 C 
HETATM    9  C   UNK N   1      29.672  17.445   6.230  0.00  0.00     0.104 C 
HETATM   10  O   UNK N   1      30.804  15.396   6.407  0.00  0.00    -0.286 OA
ENDBRANCH   7   8
ENDBRANCH   6   7
ENDBRANCH   5   6
BRANCH   5  11
HETATM   11  C   UNK N   1      34.052  17.693   6.633  0.00  0.00     0.053 C 
BRANCH  11  12
HETATM   12  C   UNK N   1      33.650  17.000   5.362  0.00  0.00    -0.057 A 
HETATM   13  C   UNK N   1      34.128  15.705   5.133  0.00  0.00     0.007 A 
HETATM   14  C   UNK N   1      33.806  15.032   3.951  0.00  0.00     0.001 A 
HETATM   15  C   UNK N   1      33.014  15.657   2.985  0.00  0.00     0.000 A 
HETATM   16  C   UNK N   1      32.538  16.952   3.203  0.00  0.00     0.001 A 
HETATM   17  C   UNK N   1      32.856  17.619   4.389  0.00  0.00     0.007 A 
ENDBRANCH  11  12
ENDBRANCH   5  11
ENDBRANCH   1   5
BRANCH   3  18
HETATM   18  C   UNK N   1      33.937  15.231  10.187  0.00  0.00     0.233 C 
BRANCH  18  19
HETATM   19  C   UNK N   1      34.745  14.233  10.983  0.00  0.00     0.276 C 
HETATM   20  O   UNK N   1      35.635  13.619  10.423  0.00  0.00    -0.263 OA
BRANCH  19  21
HETATM   21  O   UNK N   1      34.505  13.991  12.299  0.00  0.00    -0.316 OA
BRANCH  21  22
HETATM   22  C   UNK N   1      35.509  13.741  13.208  0.00  0.00     0.217 C 
BRANCH  22  23
HETATM   23  C   UNK N   1      35.176  12.650  14.168  0.00  0.00    -0.034 A 
HETATM   24  C   UNK N   1      34.332  11.587  13.819  0.00  0.00     0.009 A 
HETATM   25  C   UNK N   1      34.031  10.595  14.760  0.00  0.00     0.001 A 
HETATM   26  C   UNK N   1      34.572  10.665  16.047  0.00  0.00     0.000 A 
HETATM   27  C   UNK N   1      35.414  11.724  16.396  0.00  0.00     0.001 A 
HETATM   28  C   UNK N   1      35.712  12.715  15.458  0.00  0.00     0.009 A 
ENDBRANCH  22  23
ENDBRANCH  21  22
ENDBRANCH  19  21
ENDBRANCH  18  19
ENDBRANCH   3  18
TORSDOF 11
ENDMDL
MODEL 5
REMARK VINA RESULT:      -6.9      7.196     10.635
REMARK  11 active torsions:
REMARK  status: ('A' for Active; 'I' for Inactive)
REMARK    1  A    between atoms: C_2  and  S_4 
REMARK    2  A    between atoms: S_4  and  C_5 
REMARK    3  A    between atoms: C_5  and  C_6 
REMARK    4  A    between atoms: C_6  and  C_7 
REMARK    5  A    between atoms: C_6  and  C_14 
REMARK    6  A    between atoms: C_7  and  C_8 
REMARK       I    between atoms: C_14  and  N_16 
REMARK    7  A    between atoms: N_16  and  C_17 
REMARK    8  A    between atoms: C_17  and  C_18 
REMARK    9  A    between atoms: C_18  and  O_20 
REMARK   10  A    between atoms: O_20  and  C_21 
REMARK   11  A    between atoms: C_21  and  C_22 
ROOT
HETATM    1  C   UNK N   1      27.799  19.070   6.469  0.00  0.00     0.223 C 
HETATM    2  O   UNK N   1      27.550  20.107   5.874  0.00  0.00    -0.273 OA
HETATM    3  N   UNK N   1      27.735  19.081   7.824  0.00  0.00    -0.351 N 
HETATM    4  H   UNK N   1      27.489  19.930   8.256  0.00  0.00     0.163 HD
ENDROOT
BRANCH   1   5
HETATM    5  C   UNK N   1      28.171  17.823   5.681  0.00  0.00     0.092 C 
BRANCH   5   6
HETATM    6  C   UNK N   1      27.251  17.651   4.475  0.00  0.00     0.096 C 
BRANCH   6   7
HETATM    7  S   UNK N   1      26.561  15.962   4.517  0.00  0.00    -0.092 SA
BRANCH   7   8
HETATM    8  C   UNK N   1      26.906  15.632   2.792  0.00  0.00     0.182 C 
HETATM    9  C   UNK N   1      28.217  15.051   2.392  0.00  0.00     0.104 C 
HETATM   10  O   UNK N   1      26.051  15.840   1.948  0.00  0.00    -0.286 OA
ENDBRANCH   7   8
ENDBRANCH   6   7
ENDBRANCH   5   6
BRANCH   5  11
HETATM   11  C   UNK N   1      29.655  17.898   5.267  0.00  0.00     0.053 C 
BRANCH  11  12
HETATM   12  C   UNK N   1      30.375  16.629   4.906  0.00  0.00    -0.057 A 
HETATM   13  C   UNK N   1      30.118  15.481   5.663  0.00  0.00     0.007 A 
HETATM   14  C   UNK N   1      30.787  14.286   5.384  0.00  0.00     0.001 A 
HETATM   15  C   UNK N   1      31.728  14.237   4.352  0.00  0.00     0.000 A 
HETATM   16  C   UNK N   1      31.995  15.381   3.596  0.00  0.00     0.001 A 
HETATM   17  C   UNK N   1      31.319  16.572   3.873  0.00  0.00     0.007 A 
ENDBRANCH  11  12
ENDBRANCH   5  11
ENDBRANCH   1   5
BRANCH   3  18
HETATM   18  C   UNK N   1      27.998  17.954   8.685  0.00  0.00     0.233 C 
BRANCH  18  19
HETATM   19  C   UNK N   1      29.391  18.045   9.262  0.00  0.00     0.276 C 
HETATM   20  O   UNK N   1      29.575  18.742  10.244  0.00  0.00    -0.263 OA
BRANCH  19  21
HETATM   21  O   UNK N   1      30.445  17.382   8.719  0.00  0.00    -0.316 OA
BRANCH  21  22
HETATM   22  C   UNK N   1      31.670  17.975   8.502  0.00  0.00     0.217 C 
BRANCH  22  23
HETATM   23  C   UNK N   1      32.643  17.082   7.811  0.00  0.00    -0.034 A 
HETATM   24  C   UNK N   1      32.835  15.749   8.204  0.00  0.00     0.009 A 
HETATM   25  C   UNK N   1      33.774  14.953   7.539  0.00  0.00     0.001 A 
HETATM   26  C   UNK N   1      34.521  15.485   6.484  0.00  0.00     0.000 A 
HETATM   27  C   UNK N   1      34.329  16.812   6.091  0.00  0.00     0.001 A 
HETATM   28  C   UNK N   1      33.394  17.608   6.756  0.00  0.00     0.009 A 
ENDBRANCH  22  23
ENDBRANCH  21  22
ENDBRANCH  19  21
ENDBRANCH  18  19
ENDBRANCH   3  18
TORSDOF 11
ENDMDL
MODEL 6
REMARK VINA RESULT:      -6.8      2.900      9.191
REMARK  11 active torsions:
REMARK  status: ('A' for Active; 'I' for Inactive)
REMARK    1  A    between atoms: C_2  and  S_4 
REMARK    2  A    between atoms: S_4  and  C_5 
REMARK    3  A    between atoms: C_5  and  C_6 
REMARK    4  A    between atoms: C_6  and  C_7 
REMARK    5  A    between atoms: C_6  and  C_14 
REMARK    6  A    between atoms: C_7  and  C_8 
REMARK       I    between atoms: C_14  and  N_16 
REMARK    7  A    between atoms: N_16  and  C_17 
REMARK    8  A    between atoms: C_17  and  C_18 
REMARK    9  A    between atoms: C_18  and  O_20 
REMARK   10  A    between atoms: O_20  and  C_21 
REMARK   11  A    between atoms: C_21  and  C_22 
ROOT
HETATM    1  C   UNK N   1      33.127  14.329   9.178  0.00  0.00     0.223 C 
HETATM    2  O   UNK N   1      32.641  13.271   8.813  0.00  0.00    -0.273 OA
HETATM    3  N   UNK N   1      33.748  14.365  10.384  0.00  0.00    -0.351 N 
HETATM    4  H   UNK N   1      33.774  13.528  10.901  0.00  0.00     0.163 HD
ENDROOT
BRANCH   1   5
HETATM    5  C   UNK N   1      33.017  15.555   8.281  0.00  0.00     0.092 C 
BRANCH   5   6
HETATM    6  C   UNK N   1      34.195  15.625   7.314  0.00  0.00     0.096 C 
BRANCH   6   7
HETATM    7  S   UNK N   1      33.557  15.403   5.618  0.00  0.00    -0.092 SA
BRANCH   7   8
HETATM    8  C   UNK N   1      33.472  17.158   5.276  0.00  0.00     0.182 C 
HETATM    9  C   UNK N   1      32.549  17.670   4.226  0.00  0.00     0.104 C 
HETATM   10  O   UNK N   1      34.135  17.941   5.936  0.00  0.00    -0.286 OA
ENDBRANCH   7   8
ENDBRANCH   6   7
ENDBRANCH   5   6
BRANCH   5  11
HETATM   11  C   UNK N   1      31.664  15.531   7.541  0.00  0.00     0.053 C 
BRANCH  11  12
HETATM   12  C   UNK N   1      30.711  16.678   7.727  0.00  0.00    -0.057 A 
HETATM   13  C   UNK N   1      30.823  17.452   8.888  0.00  0.00     0.007 A 
HETATM   14  C   UNK N   1      29.940  18.510   9.120  0.00  0.00     0.001 A 
HETATM   15  C   UNK N   1      28.930  18.792   8.196  0.00  0.00     0.000 A 
HETATM   16  C   UNK N   1      28.807  18.019   7.039  0.00  0.00     0.001 A 
HETATM   17  C   UNK N   1      29.696  16.967   6.806  0.00  0.00     0.007 A 
ENDBRANCH  11  12
ENDBRANCH   5  11
ENDBRANCH   1   5
BRANCH   3  18
HETATM   18  C   UNK N   1      34.373  15.524  10.970  0.00  0.00     0.233 C 
BRANCH  18  19
HETATM   19  C   UNK N   1      35.845  15.270  11.200  0.00  0.00     0.276 C 
HETATM   20  O   UNK N   1      36.653  16.069  10.764  0.00  0.00    -0.263 OA
BRANCH  19  21
HETATM   21  O   UNK N   1      36.295  14.175  11.868  0.00  0.00    -0.316 OA
BRANCH  21  22
HETATM   22  C   UNK N   1      36.206  14.046  13.237  0.00  0.00     0.217 C 
BRANCH  22  23
HETATM   23  C   UNK N   1      35.376  12.883  13.665  0.00  0.00    -0.034 A 
HETATM   24  C   UNK N   1      34.955  11.898  12.760  0.00  0.00     0.009 A 
HETATM   25  C   UNK N   1      34.160  10.836  13.203  0.00  0.00     0.001 A 
HETATM   26  C   UNK N   1      33.785  10.755  14.547  0.00  0.00     0.000 A 
HETATM   27  C   UNK N   1      34.205  11.735  15.450  0.00  0.00     0.001 A 
HETATM   28  C   UNK N   1      34.997  12.797  15.008  0.00  0.00     0.009 A 
ENDBRANCH  22  23
ENDBRANCH  21  22
ENDBRANCH  19  21
ENDBRANCH  18  19
ENDBRANCH   3  18
TORSDOF 11
ENDMDL
MODEL 7
REMARK VINA RESULT:      -6.8      4.109      9.770
REMARK  11 active torsions:
REMARK  status: ('A' for Active; 'I' for Inactive)
REMARK    1  A    between atoms: C_2  and  S_4 
REMARK    2  A    between atoms: S_4  and  C_5 
REMARK    3  A    between atoms: C_5  and  C_6 
REMARK    4  A    between atoms: C_6  and  C_7 
REMARK    5  A    between atoms: C_6  and  C_14 
REMARK    6  A    between atoms: C_7  and  C_8 
REMARK       I    between atoms: C_14  and  N_16 
REMARK    7  A    between atoms: N_16  and  C_17 
REMARK    8  A    between atoms: C_17  and  C_18 
REMARK    9  A    between atoms: C_18  and  O_20 
REMARK   10  A    between atoms: O_20  and  C_21 
REMARK   11  A    between atoms: C_21  and  C_22 
ROOT
HETATM    1  C   UNK N   1      30.968  17.212   8.396  0.00  0.00     0.223 C 
HETATM    2  O   UNK N   1      30.170  16.881   9.258  0.00  0.00    -0.273 OA
HETATM    3  N   UNK N   1      32.125  17.802   8.790  0.00  0.00    -0.351 N 
HETATM    4  H   UNK N   1      32.258  17.930   9.757  0.00  0.00     0.163 HD
ENDROOT
BRANCH   1   5
HETATM    5  C   UNK N   1      30.640  16.958   6.932  0.00  0.00     0.092 C 
BRANCH   5   6
HETATM    6  C   UNK N   1      31.219  15.624   6.471  0.00  0.00     0.096 C 
BRANCH   6   7
HETATM    7  S   UNK N   1      32.351  15.942   5.075  0.00  0.00    -0.092 SA
BRANCH   7   8
HETATM    8  C   UNK N   1      33.820  15.468   5.981  0.00  0.00     0.182 C 
HETATM    9  C   UNK N   1      33.731  14.458   7.071  0.00  0.00     0.104 C 
HETATM   10  O   UNK N   1      34.903  15.938   5.676  0.00  0.00    -0.286 OA
ENDBRANCH   7   8
ENDBRANCH   6   7
ENDBRANCH   5   6
BRANCH   5  11
HETATM   11  C   UNK N   1      29.112  17.025   6.727  0.00  0.00     0.053 C 
BRANCH  11  12
HETATM   12  C   UNK N   1      28.493  18.322   6.289  0.00  0.00    -0.057 A 
HETATM   13  C   UNK N   1      28.438  18.603   4.920  0.00  0.00     0.007 A 
HETATM   14  C   UNK N   1      27.899  19.811   4.467  0.00  0.00     0.001 A 
HETATM   15  C   UNK N   1      27.423  20.751   5.384  0.00  0.00     0.000 A 
HETATM   16  C   UNK N   1      27.480  20.481   6.754  0.00  0.00     0.001 A 
HETATM   17  C   UNK N   1      28.013  19.269   7.203  0.00  0.00     0.007 A 
ENDBRANCH  11  12
ENDBRANCH   5  11
ENDBRANCH   1   5
BRANCH   3  18
HETATM   18  C   UNK N   1      33.175  18.255   7.913  0.00  0.00     0.233 C 
BRANCH  18  19
HETATM   19  C   UNK N   1      34.522  18.099   8.578  0.00  0.00     0.276 C 
HETATM   20  O   UNK N   1      35.304  19.032   8.548  0.00  0.00    -0.263 OA
BRANCH  19  21
HETATM   21  O   UNK N   1      34.893  16.949   9.202  0.00  0.00    -0.316 OA
BRANCH  21  22
HETATM   22  C   UNK N   1      35.438  16.928  10.467  0.00  0.00     0.217 C 
BRANCH  22  23
HETATM   23  C   UNK N   1      35.880  15.570  10.895  0.00  0.00    -0.034 A 
HETATM   24  C   UNK N   1      35.340  14.934  12.022  0.00  0.00     0.009 A 
HETATM   25  C   UNK N   1      35.799  13.667  12.398  0.00  0.00     0.001 A 
HETATM   26  C   UNK N   1      36.796  13.034  11.649  0.00  0.00     0.000 A 
HETATM   27  C   UNK N   1      37.334  13.666  10.525  0.00  0.00     0.001 A 
HETATM   28  C   UNK N   1      36.877  14.931  10.152  0.00  0.00     0.009 A 
ENDBRANCH  22  23
ENDBRANCH  21  22
ENDBRANCH  19  21
ENDBRANCH  18  19
ENDBRANCH   3  18
TORSDOF 11
ENDMDL
MODEL 8
REMARK VINA RESULT:      -6.8     17.595     21.664
REMARK  11 active torsions:
REMARK  status: ('A' for Active; 'I' for Inactive)
REMARK    1  A    between atoms: C_2  and  S_4 
REMARK    2  A    between atoms: S_4  and  C_5 
REMARK    3  A    between atoms: C_5  and  C_6 
REMARK    4  A    between atoms: C_6  and  C_7 
REMARK    5  A    between atoms: C_6  and  C_14 
REMARK    6  A    between atoms: C_7  and  C_8 
REMARK       I    between atoms: C_14  and  N_16 
REMARK    7  A    between atoms: N_16  and  C_17 
REMARK    8  A    between atoms: C_17  and  C_18 
REMARK    9  A    between atoms: C_18  and  O_20 
REMARK   10  A    between atoms: O_20  and  C_21 
REMARK   11  A    between atoms: C_21  and  C_22 
ROOT
HETATM    1  C   UNK N   1      27.019  24.919  -4.022  0.00  0.00     0.223 C 
HETATM    2  O   UNK N   1      26.194  25.031  -3.129  0.00  0.00    -0.273 OA
HETATM    3  N   UNK N   1      28.310  24.694  -3.673  0.00  0.00    -0.351 N 
HETATM    4  H   UNK N   1      28.512  24.630  -2.712  0.00  0.00     0.163 HD
ENDROOT
BRANCH   1   5
HETATM    5  C   UNK N   1      26.576  25.041  -5.473  0.00  0.00     0.092 C 
BRANCH   5   6
HETATM    6  C   UNK N   1      25.833  23.784  -5.918  0.00  0.00     0.096 C 
BRANCH   6   7
HETATM    7  S   UNK N   1      26.909  22.860  -7.067  0.00  0.00    -0.092 SA
BRANCH   7   8
HETATM    8  C   UNK N   1      25.550  22.250  -8.061  0.00  0.00     0.182 C 
HETATM    9  C   UNK N   1      25.552  20.842  -8.544  0.00  0.00     0.104 C 
HETATM   10  O   UNK N   1      24.600  22.974  -8.304  0.00  0.00    -0.286 OA
ENDBRANCH   7   8
ENDBRANCH   6   7
ENDBRANCH   5   6
BRANCH   5  11
HETATM   11  C   UNK N   1      25.717  26.310  -5.645  0.00  0.00     0.053 C 
BRANCH  11  12
HETATM   12  C   UNK N   1      26.333  27.651  -5.362  0.00  0.00    -0.057 A 
HETATM   13  C   UNK N   1      25.883  28.367  -4.248  0.00  0.00     0.007 A 
HETATM   14  C   UNK N   1      26.405  29.632  -3.962  0.00  0.00     0.001 A 
HETATM   15  C   UNK N   1      27.372  30.193  -4.800  0.00  0.00     0.000 A 
HETATM   16  C   UNK N   1      27.822  29.488  -5.918  0.00  0.00     0.001 A 
HETATM   17  C   UNK N   1      27.304  28.220  -6.197  0.00  0.00     0.007 A 
ENDBRANCH  11  12
ENDBRANCH   5  11
ENDBRANCH   1   5
BRANCH   3  18
HETATM   18  C   UNK N   1      29.412  24.538  -4.590  0.00  0.00     0.233 C 
BRANCH  18  19
HETATM   19  C   UNK N   1      30.722  24.493  -3.839  0.00  0.00     0.276 C 
HETATM   20  O   UNK N   1      31.700  25.024  -4.333  0.00  0.00    -0.263 OA
BRANCH  19  21
HETATM   21  O   UNK N   1      30.847  23.873  -2.636  0.00  0.00    -0.316 OA
BRANCH  21  22
HETATM   22  C   UNK N   1      30.510  22.552  -2.438  0.00  0.00     0.217 C 
BRANCH  22  23
HETATM   23  C   UNK N   1      31.416  21.601  -3.143  0.00  0.00    -0.034 A 
HETATM   24  C   UNK N   1      30.954  20.747  -4.155  0.00  0.00     0.009 A 
HETATM   25  C   UNK N   1      31.837  19.857  -4.775  0.00  0.00     0.001 A 
HETATM   26  C   UNK N   1      33.180  19.818  -4.388  0.00  0.00     0.000 A 
HETATM   27  C   UNK N   1      33.642  20.670  -3.382  0.00  0.00     0.001 A 
HETATM   28  C   UNK N   1      32.760  21.557  -2.760  0.00  0.00     0.009 A 
ENDBRANCH  22  23
ENDBRANCH  21  22
ENDBRANCH  19  21
ENDBRANCH  18  19
ENDBRANCH   3  18
TORSDOF 11
ENDMDL
MODEL 9
REMARK VINA RESULT:      -6.8      7.588     11.350
REMARK  11 active torsions:
REMARK  status: ('A' for Active; 'I' for Inactive)
REMARK    1  A    between atoms: C_2  and  S_4 
REMARK    2  A    between atoms: S_4  and  C_5 
REMARK    3  A    between atoms: C_5  and  C_6 
REMARK    4  A    between atoms: C_6  and  C_7 
REMARK    5  A    between atoms: C_6  and  C_14 
REMARK    6  A    between atoms: C_7  and  C_8 
REMARK       I    between atoms: C_14  and  N_16 
REMARK    7  A    between atoms: N_16  and  C_17 
REMARK    8  A    between atoms: C_17  and  C_18 
REMARK    9  A    between atoms: C_18  and  O_20 
REMARK   10  A    between atoms: O_20  and  C_21 
REMARK   11  A    between atoms: C_21  and  C_22 
ROOT
HETATM    1  C   UNK N   1      27.808  19.453   6.603  0.00  0.00     0.223 C 
HETATM    2  O   UNK N   1      27.742  20.645   6.350  0.00  0.00    -0.273 OA
HETATM    3  N   UNK N   1      27.813  19.076   7.906  0.00  0.00    -0.351 N 
HETATM    4  H   UNK N   1      27.760  19.790   8.581  0.00  0.00     0.163 HD
ENDROOT
BRANCH   1   5
HETATM    5  C   UNK N   1      27.887  18.447   5.464  0.00  0.00     0.092 C 
BRANCH   5   6
HETATM    6  C   UNK N   1      27.040  18.903   4.280  0.00  0.00     0.096 C 
BRANCH   6   7
HETATM    7  S   UNK N   1      25.294  18.513   4.641  0.00  0.00    -0.092 SA
BRANCH   7   8
HETATM    8  C   UNK N   1      24.645  19.793   3.571  0.00  0.00     0.182 C 
HETATM    9  C   UNK N   1      25.563  20.563   2.687  0.00  0.00     0.104 C 
HETATM   10  O   UNK N   1      23.445  20.004   3.532  0.00  0.00    -0.286 OA
ENDBRANCH   7   8
ENDBRANCH   6   7
ENDBRANCH   5   6
BRANCH   5  11
HETATM   11  C   UNK N   1      29.363  18.232   5.067  0.00  0.00     0.053 C 
BRANCH  11  12
HETATM   12  C   UNK N   1      29.837  16.842   4.751  0.00  0.00    -0.057 A 
HETATM   13  C   UNK N   1      29.358  15.784   5.531  0.00  0.00     0.007 A 
HETATM   14  C   UNK N   1      29.794  14.477   5.295  0.00  0.00     0.001 A 
HETATM   15  C   UNK N   1      30.724  14.223   4.283  0.00  0.00     0.000 A 
HETATM   16  C   UNK N   1      31.213  15.276   3.505  0.00  0.00     0.001 A 
HETATM   17  C   UNK N   1      30.769  16.580   3.739  0.00  0.00     0.007 A 
ENDBRANCH  11  12
ENDBRANCH   5  11
ENDBRANCH   1   5
BRANCH   3  18
HETATM   18  C   UNK N   1      27.887  17.719   8.386  0.00  0.00     0.233 C 
BRANCH  18  19
HETATM   19  C   UNK N   1      29.194  17.485   9.107  0.00  0.00     0.276 C 
HETATM   20  O   UNK N   1      29.175  17.294  10.309  0.00  0.00    -0.263 OA
BRANCH  19  21
HETATM   21  O   UNK N   1      30.389  17.488   8.460  0.00  0.00    -0.316 OA
BRANCH  21  22
HETATM   22  C   UNK N   1      31.365  16.543   8.688  0.00  0.00     0.217 C 
BRANCH  22  23
HETATM   23  C   UNK N   1      32.354  16.439   7.577  0.00  0.00    -0.034 A 
HETATM   24  C   UNK N   1      32.771  17.561   6.846  0.00  0.00     0.009 A 
HETATM   25  C   UNK N   1      33.686  17.412   5.799  0.00  0.00     0.001 A 
HETATM   26  C   UNK N   1      34.186  16.146   5.480  0.00  0.00     0.000 A 
HETATM   27  C   UNK N   1      33.772  15.027   6.208  0.00  0.00     0.001 A 
HETATM   28  C   UNK N   1      32.857  15.175   7.252  0.00  0.00     0.009 A 
ENDBRANCH  22  23
ENDBRANCH  21  22
ENDBRANCH  19  21
ENDBRANCH  18  19
ENDBRANCH   3  18
TORSDOF 11
ENDMDL
