MODEL 1
REMARK VINA RESULT:      -8.9      0.000      0.000
REMARK  3 active torsions:
REMARK  status: ('A' for Active; 'I' for Inactive)
REMARK    1  A    between atoms: C_18  and  C_15 
REMARK    2  A    between atoms: N_31  and  C_15 
REMARK    3  A    between atoms: O_34  and  C_27 
ROOT
HETATM    1  C   UNK N   1      20.556  19.637   1.708  0.00  0.00     0.001 A 
HETATM    2  C   UNK N   1      22.938  12.612   9.197  0.00  0.00     0.001 A 
HETATM    3  C   UNK N   1      21.652  20.525   1.676  0.00  0.00     0.002 A 
HETATM    4  C   UNK N   1      24.347  12.536   9.233  0.00  0.00     0.002 A 
HETATM    5  C   UNK N   1      20.525  18.575   2.630  0.00  0.00     0.014 A 
HETATM    6  C   UNK N   1      22.290  13.380   8.212  0.00  0.00     0.014 A 
HETATM    7  C   UNK N   1      22.727  20.357   2.564  0.00  0.00     0.030 A 
HETATM    8  C   UNK N   1      25.121  13.227   8.284  0.00  0.00     0.030 A 
HETATM    9  C   UNK N   1      25.935  18.827   3.811  0.00  0.00     0.054 C 
HETATM   10  C   UNK N   1      24.874  19.583   4.606  0.00  0.00     0.131 C 
HETATM   11  C   UNK N   1      26.396  14.877   6.017  0.00  0.00     0.154 C 
HETATM   12  C   UNK N   1      26.874  16.300   6.280  0.00  0.00     0.188 C 
HETATM   13  C   UNK N   1      23.121  17.848   5.016  0.00  0.00     0.104 A 
HETATM   14  C   UNK N   1      23.962  15.276   5.653  0.00  0.00     0.104 A 
HETATM   15  C   UNK N   1      26.852  17.944   4.658  0.00  0.00     0.151 C 
HETATM   16  C   UNK N   1      21.600  18.430   3.505  0.00  0.00     0.003 A 
HETATM   17  C   UNK N   1      23.079  14.056   7.282  0.00  0.00     0.003 A 
HETATM   18  C   UNK N   1      21.878  17.488   4.492  0.00  0.00     0.007 A 
HETATM   19  C   UNK N   1      22.752  14.892   6.222  0.00  0.00     0.009 A 
HETATM   20  C   UNK N   1      22.663  19.295   3.466  0.00  0.00     0.045 A 
HETATM   21  C   UNK N   1      24.448  13.981   7.324  0.00  0.00     0.045 A 
HETATM   22  C   UNK N   1      21.035  16.333   4.952  0.00  0.00     0.044 A 
HETATM   23  C   UNK N   1      21.400  15.274   5.718  0.00  0.00     0.060 A 
HETATM   24  C   UNK N   1      19.585  16.150   4.701  0.00  0.00     0.155 A 
HETATM   25  C   UNK N   1      20.164  14.505   5.913  0.00  0.00     0.259 A 
HETATM   26  N   UNK N   1      19.144  15.093   5.273  0.00  0.00    -0.303 N 
ATOM     27  HN  UNK N   1      18.181  14.756   5.247  1.00  0.00     0.171 HD
HETATM   28  N   UNK N   1      23.583  18.945   4.378  0.00  0.00    -0.355 N 
HETATM   29  N   UNK N   1      24.982  14.719   6.337  0.00  0.00    -0.353 N 
HETATM   30  O   UNK N   1      20.050  13.452   6.518  0.00  0.00    -0.267 OA
HETATM   31  O   UNK N   1      26.079  17.252   5.619  0.00  0.00    -0.382 OA
ENDROOT
BRANCH  15  32
HETATM   32  C   UNK N   1      27.935  18.828   5.294  0.00  0.00     0.303 C 
BRANCH  32  33
HETATM   33  N   UNK N   1      27.392  19.555   6.434  0.00  0.00     0.082 N 
HETATM   34  C   UNK N   1      28.176  19.179   7.596  0.00  0.00     0.309 C 
HETATM   35  C   UNK N   1      27.609  20.973   6.212  0.00  0.00     0.309 C 
ENDBRANCH  32  33
ENDBRANCH  15  32
BRANCH  24  36
HETATM   36  O   UNK N   1      18.783  16.970   3.999  0.00  0.00    -0.345 OA
HETATM   37  H   UNK N   1      18.580  16.780   3.105  0.00  0.00     0.219 HD
ENDBRANCH  24  36
TORSDOF 3
ENDMDL
MODEL 2
REMARK VINA RESULT:      -8.5     10.447     13.827
REMARK  3 active torsions:
REMARK  status: ('A' for Active; 'I' for Inactive)
REMARK    1  A    between atoms: C_18  and  C_15 
REMARK    2  A    between atoms: N_31  and  C_15 
REMARK    3  A    between atoms: O_34  and  C_27 
ROOT
HETATM    1  C   UNK N   1      36.072  13.218  12.862  0.00  0.00     0.001 A 
HETATM    2  C   UNK N   1      32.638  17.563   3.892  0.00  0.00     0.001 A 
HETATM    3  C   UNK N   1      35.740  11.851  12.757  0.00  0.00     0.002 A 
HETATM    4  C   UNK N   1      32.690  16.545   2.915  0.00  0.00     0.002 A 
HETATM    5  C   UNK N   1      35.727  14.116  11.835  0.00  0.00     0.014 A 
HETATM    6  C   UNK N   1      33.148  17.338   5.184  0.00  0.00     0.014 A 
HETATM    7  C   UNK N   1      35.061  11.370  11.626  0.00  0.00     0.030 A 
HETATM    8  C   UNK N   1      33.253  15.293   3.222  0.00  0.00     0.030 A 
HETATM    9  C   UNK N   1      34.751  10.167   8.069  0.00  0.00     0.054 C 
HETATM   10  C   UNK N   1      33.663  10.741   8.975  0.00  0.00     0.131 C 
HETATM   11  C   UNK N   1      34.578  12.740   4.325  0.00  0.00     0.154 C 
HETATM   12  C   UNK N   1      33.719  11.607   4.873  0.00  0.00     0.188 C 
HETATM   13  C   UNK N   1      34.017  13.209   8.799  0.00  0.00     0.104 A 
HETATM   14  C   UNK N   1      34.637  14.260   6.301  0.00  0.00     0.104 A 
HETATM   15  C   UNK N   1      34.425  10.217   6.577  0.00  0.00     0.151 C 
HETATM   16  C   UNK N   1      35.049  13.619  10.723  0.00  0.00     0.003 A 
HETATM   17  C   UNK N   1      33.702  16.090   5.464  0.00  0.00     0.003 A 
HETATM   18  C   UNK N   1      34.603  14.228   9.554  0.00  0.00     0.007 A 
HETATM   19  C   UNK N   1      34.260  15.560   6.621  0.00  0.00     0.009 A 
HETATM   20  C   UNK N   1      34.732  12.287  10.628  0.00  0.00     0.045 A 
HETATM   21  C   UNK N   1      33.746  15.103   4.512  0.00  0.00     0.045 A 
HETATM   22  C   UNK N   1      34.683  15.675   9.160  0.00  0.00     0.044 A 
HETATM   23  C   UNK N   1      34.490  16.228   7.936  0.00  0.00     0.060 A 
HETATM   24  C   UNK N   1      34.938  16.819  10.068  0.00  0.00     0.155 A 
HETATM   25  C   UNK N   1      34.618  17.675   8.151  0.00  0.00     0.259 A 
HETATM   26  N   UNK N   1      34.888  17.933   9.438  0.00  0.00    -0.303 N 
ATOM     27  HN  UNK N   1      35.028  18.857   9.845  1.00  0.00     0.171 HD
HETATM   28  N   UNK N   1      34.109  12.039   9.467  0.00  0.00    -0.355 N 
HETATM   29  N   UNK N   1      34.314  13.996   5.018  0.00  0.00    -0.353 N 
HETATM   30  O   UNK N   1      34.548  18.546   7.299  0.00  0.00    -0.267 OA
HETATM   31  O   UNK N   1      33.852  11.472   6.265  0.00  0.00    -0.382 OA
ENDROOT
BRANCH  15  32
HETATM   32  C   UNK N   1      33.498   9.041   6.237  0.00  0.00     0.303 C 
BRANCH  32  33
HETATM   33  N   UNK N   1      34.032   7.800   6.781  0.00  0.00     0.082 N 
HETATM   34  C   UNK N   1      32.901   6.994   7.202  0.00  0.00     0.309 C 
HETATM   35  C   UNK N   1      34.693   7.082   5.707  0.00  0.00     0.309 C 
ENDBRANCH  32  33
ENDBRANCH  15  32
BRANCH  24  36
HETATM   36  O   UNK N   1      35.167  16.757  11.392  0.00  0.00    -0.345 OA
HETATM   37  H   UNK N   1      35.642  16.036  11.754  0.00  0.00     0.219 HD
ENDBRANCH  24  36
TORSDOF 3
ENDMDL
MODEL 3
REMARK VINA RESULT:      -8.3      3.568      4.151
REMARK  3 active torsions:
REMARK  status: ('A' for Active; 'I' for Inactive)
REMARK    1  A    between atoms: C_18  and  C_15 
REMARK    2  A    between atoms: N_31  and  C_15 
REMARK    3  A    between atoms: O_34  and  C_27 
ROOT
HETATM    1  C   UNK N   1      19.409  18.939   2.506  0.00  0.00     0.001 A 
HETATM    2  C   UNK N   1      25.526  10.416   1.479  0.00  0.00     0.001 A 
HETATM    3  C   UNK N   1      20.078  19.761   3.438  0.00  0.00     0.002 A 
HETATM    4  C   UNK N   1      26.846  10.844   1.738  0.00  0.00     0.002 A 
HETATM    5  C   UNK N   1      19.939  17.686   2.151  0.00  0.00     0.014 A 
HETATM    6  C   UNK N   1      24.474  11.348   1.417  0.00  0.00     0.014 A 
HETATM    7  C   UNK N   1      21.283  19.336   4.021  0.00  0.00     0.030 A 
HETATM    8  C   UNK N   1      27.125  12.208   1.938  0.00  0.00     0.030 A 
HETATM    9  C   UNK N   1      24.999  18.732   4.160  0.00  0.00     0.054 C 
HETATM   10  C   UNK N   1      23.898  18.065   4.982  0.00  0.00     0.131 C 
HETATM   11  C   UNK N   1      27.269  15.265   2.289  0.00  0.00     0.154 C 
HETATM   12  C   UNK N   1      27.232  15.878   3.684  0.00  0.00     0.188 C 
HETATM   13  C   UNK N   1      23.010  16.314   3.435  0.00  0.00     0.104 A 
HETATM   14  C   UNK N   1      24.836  14.896   1.891  0.00  0.00     0.104 A 
HETATM   15  C   UNK N   1      26.313  17.954   4.110  0.00  0.00     0.151 C 
HETATM   16  C   UNK N   1      21.133  17.282   2.746  0.00  0.00     0.003 A 
HETATM   17  C   UNK N   1      24.775  12.694   1.617  0.00  0.00     0.003 A 
HETATM   18  C   UNK N   1      21.912  16.139   2.590  0.00  0.00     0.007 A 
HETATM   19  C   UNK N   1      23.977  13.831   1.637  0.00  0.00     0.009 A 
HETATM   20  C   UNK N   1      21.779  18.087   3.649  0.00  0.00     0.045 A 
HETATM   21  C   UNK N   1      26.059  13.105   1.872  0.00  0.00     0.045 A 
HETATM   22  C   UNK N   1      21.650  14.933   1.733  0.00  0.00     0.044 A 
HETATM   23  C   UNK N   1      22.511  13.946   1.378  0.00  0.00     0.060 A 
HETATM   24  C   UNK N   1      20.348  14.546   1.138  0.00  0.00     0.155 A 
HETATM   25  C   UNK N   1      21.701  12.999   0.603  0.00  0.00     0.259 A 
HETATM   26  N   UNK N   1      20.438  13.435   0.506  0.00  0.00    -0.303 N 
ATOM     27  HN  UNK N   1      19.678  12.964   0.015  1.00  0.00     0.171 HD
HETATM   28  N   UNK N   1      22.912  17.504   4.066  0.00  0.00    -0.355 N 
HETATM   29  N   UNK N   1      26.096  14.437   2.036  0.00  0.00    -0.353 N 
HETATM   30  O   UNK N   1      22.093  11.977   0.062  0.00  0.00    -0.267 OA
HETATM   31  O   UNK N   1      26.037  16.580   3.917  0.00  0.00    -0.382 OA
ENDROOT
BRANCH  15  32
HETATM   32  C   UNK N   1      27.093  18.225   5.405  0.00  0.00     0.303 C 
BRANCH  32  33
HETATM   33  N   UNK N   1      27.213  19.659   5.634  0.00  0.00     0.082 N 
HETATM   34  C   UNK N   1      27.760  19.837   6.967  0.00  0.00     0.309 C 
HETATM   35  C   UNK N   1      28.187  20.187   4.697  0.00  0.00     0.309 C 
ENDBRANCH  32  33
ENDBRANCH  15  32
BRANCH  24  36
HETATM   36  O   UNK N   1      19.187  15.218   1.241  0.00  0.00    -0.345 OA
HETATM   37  H   UNK N   1      19.179  16.153   1.196  0.00  0.00     0.219 HD
ENDBRANCH  24  36
TORSDOF 3
ENDMDL
MODEL 4
REMARK VINA RESULT:      -8.3      5.627     10.100
REMARK  3 active torsions:
REMARK  status: ('A' for Active; 'I' for Inactive)
REMARK    1  A    between atoms: C_18  and  C_15 
REMARK    2  A    between atoms: N_31  and  C_15 
REMARK    3  A    between atoms: O_34  and  C_27 
ROOT
HETATM    1  C   UNK N   1      29.485  18.506   9.401  0.00  0.00     0.001 A 
HETATM    2  C   UNK N   1      35.216  13.776   1.925  0.00  0.00     0.001 A 
HETATM    3  C   UNK N   1      28.198  18.653   8.840  0.00  0.00     0.002 A 
HETATM    4  C   UNK N   1      34.312  13.004   1.164  0.00  0.00     0.002 A 
HETATM    5  C   UNK N   1      30.528  17.930   8.654  0.00  0.00     0.014 A 
HETATM    6  C   UNK N   1      34.783  14.444   3.085  0.00  0.00     0.014 A 
HETATM    7  C   UNK N   1      27.945  18.225   7.526  0.00  0.00     0.030 A 
HETATM    8  C   UNK N   1      32.966  12.892   1.557  0.00  0.00     0.030 A 
HETATM    9  C   UNK N   1      27.187  15.707   4.829  0.00  0.00     0.054 C 
HETATM   10  C   UNK N   1      27.812  17.092   4.684  0.00  0.00     0.131 C 
HETATM   11  C   UNK N   1      30.146  12.917   2.794  0.00  0.00     0.154 C 
HETATM   12  C   UNK N   1      29.096  13.899   2.290  0.00  0.00     0.188 C 
HETATM   13  C   UNK N   1      30.208  16.705   5.284  0.00  0.00     0.104 A 
HETATM   14  C   UNK N   1      31.420  14.379   4.361  0.00  0.00     0.104 A 
HETATM   15  C   UNK N   1      27.444  14.769   3.649  0.00  0.00     0.151 C 
HETATM   16  C   UNK N   1      30.255  17.516   7.351  0.00  0.00     0.003 A 
HETATM   17  C   UNK N   1      33.445  14.317   3.455  0.00  0.00     0.003 A 
HETATM   18  C   UNK N   1      31.044  16.899   6.385  0.00  0.00     0.007 A 
HETATM   19  C   UNK N   1      32.719  14.853   4.512  0.00  0.00     0.009 A 
HETATM   20  C   UNK N   1      29.002  17.660   6.813  0.00  0.00     0.045 A 
HETATM   21  C   UNK N   1      32.569  13.568   2.710  0.00  0.00     0.045 A 
HETATM   22  C   UNK N   1      32.499  16.529   6.456  0.00  0.00     0.044 A 
HETATM   23  C   UNK N   1      33.202  15.708   5.636  0.00  0.00     0.060 A 
HETATM   24  C   UNK N   1      33.490  17.051   7.427  0.00  0.00     0.155 A 
HETATM   25  C   UNK N   1      34.584  15.776   6.129  0.00  0.00     0.259 A 
HETATM   26  N   UNK N   1      34.661  16.588   7.191  0.00  0.00    -0.303 N 
ATOM     27  HN  UNK N   1      35.506  16.801   7.721  1.00  0.00     0.171 HD
HETATM   28  N   UNK N   1      28.972  17.171   5.564  0.00  0.00    -0.355 N 
HETATM   29  N   UNK N   1      31.345  13.605   3.259  0.00  0.00    -0.353 N 
HETATM   30  O   UNK N   1      35.542  15.157   5.695  0.00  0.00    -0.267 OA
HETATM   31  O   UNK N   1      28.795  14.884   3.246  0.00  0.00    -0.382 OA
ENDROOT
BRANCH  15  32
HETATM   32  C   UNK N   1      26.458  15.114   2.524  0.00  0.00     0.303 C 
BRANCH  32  33
HETATM   33  N   UNK N   1      25.233  14.340   2.668  0.00  0.00     0.082 N 
HETATM   34  C   UNK N   1      24.535  14.399   1.396  0.00  0.00     0.309 C 
HETATM   35  C   UNK N   1      25.598  12.953   2.891  0.00  0.00     0.309 C 
ENDBRANCH  32  33
ENDBRANCH  15  32
BRANCH  24  36
HETATM   36  O   UNK N   1      33.254  17.921   8.425  0.00  0.00    -0.345 OA
HETATM   37  H   UNK N   1      32.404  18.302   8.527  0.00  0.00     0.219 HD
ENDBRANCH  24  36
TORSDOF 3
ENDMDL
MODEL 5
REMARK VINA RESULT:      -8.2      5.364      9.967
REMARK  3 active torsions:
REMARK  status: ('A' for Active; 'I' for Inactive)
REMARK    1  A    between atoms: C_18  and  C_15 
REMARK    2  A    between atoms: N_31  and  C_15 
REMARK    3  A    between atoms: O_34  and  C_27 
ROOT
HETATM    1  C   UNK N   1      33.839  12.835   1.265  0.00  0.00     0.001 A 
HETATM    2  C   UNK N   1      30.033  18.357   9.398  0.00  0.00     0.001 A 
HETATM    3  C   UNK N   1      32.715  12.200   0.695  0.00  0.00     0.002 A 
HETATM    4  C   UNK N   1      28.702  18.688   9.063  0.00  0.00     0.002 A 
HETATM    5  C   UNK N   1      33.698  13.642   2.408  0.00  0.00     0.014 A 
HETATM    6  C   UNK N   1      30.866  17.717   8.463  0.00  0.00     0.014 A 
HETATM    7  C   UNK N   1      31.442  12.368   1.263  0.00  0.00     0.030 A 
HETATM    8  C   UNK N   1      28.193  18.381   7.788  0.00  0.00     0.030 A 
HETATM    9  C   UNK N   1      28.199  14.163   1.937  0.00  0.00     0.054 C 
HETATM   10  C   UNK N   1      28.863  13.063   2.762  0.00  0.00     0.131 C 
HETATM   11  C   UNK N   1      27.518  17.543   4.902  0.00  0.00     0.154 C 
HETATM   12  C   UNK N   1      26.824  16.213   4.633  0.00  0.00     0.188 C 
HETATM   13  C   UNK N   1      30.583  14.302   4.088  0.00  0.00     0.104 A 
HETATM   14  C   UNK N   1      29.882  16.782   5.131  0.00  0.00     0.104 A 
HETATM   15  C   UNK N   1      27.168  14.994   2.702  0.00  0.00     0.151 C 
HETATM   16  C   UNK N   1      32.426  13.792   2.958  0.00  0.00     0.003 A 
HETATM   17  C   UNK N   1      30.339  17.424   7.206  0.00  0.00     0.003 A 
HETATM   18  C   UNK N   1      31.960  14.527   4.044  0.00  0.00     0.007 A 
HETATM   19  C   UNK N   1      30.887  16.796   6.093  0.00  0.00     0.009 A 
HETATM   20  C   UNK N   1      31.338  13.172   2.397  0.00  0.00     0.045 A 
HETATM   21  C   UNK N   1      29.045  17.744   6.886  0.00  0.00     0.045 A 
HETATM   22  C   UNK N   1      32.741  15.372   5.011  0.00  0.00     0.044 A 
HETATM   23  C   UNK N   1      32.276  16.286   5.900  0.00  0.00     0.060 A 
HETATM   24  C   UNK N   1      34.207  15.328   5.228  0.00  0.00     0.155 A 
HETATM   25  C   UNK N   1      33.466  16.745   6.626  0.00  0.00     0.259 A 
HETATM   26  N   UNK N   1      34.562  16.131   6.161  0.00  0.00    -0.303 N 
ATOM     27  HN  UNK N   1      35.515  16.277   6.493  1.00  0.00     0.171 HD
HETATM   28  N   UNK N   1      30.224  13.480   3.079  0.00  0.00    -0.355 N 
HETATM   29  N   UNK N   1      28.768  17.357   5.630  0.00  0.00    -0.353 N 
HETATM   30  O   UNK N   1      33.503  17.598   7.498  0.00  0.00    -0.267 OA
HETATM   31  O   UNK N   1      27.673  15.298   3.987  0.00  0.00    -0.382 OA
ENDROOT
BRANCH  15  32
HETATM   32  C   UNK N   1      25.848  14.212   2.753  0.00  0.00     0.303 C 
BRANCH  32  33
HETATM   33  N   UNK N   1      24.800  14.938   2.048  0.00  0.00     0.082 N 
HETATM   34  C   UNK N   1      24.333  14.082   0.972  0.00  0.00     0.309 C 
HETATM   35  C   UNK N   1      23.687  15.125   2.959  0.00  0.00     0.309 C 
ENDBRANCH  32  33
ENDBRANCH  15  32
BRANCH  24  36
HETATM   36  O   UNK N   1      35.091  14.547   4.582  0.00  0.00    -0.345 OA
HETATM   37  H   UNK N   1      35.879  14.276   5.008  0.00  0.00     0.219 HD
ENDBRANCH  24  36
TORSDOF 3
ENDMDL
MODEL 6
REMARK VINA RESULT:      -8.1      5.102      8.533
REMARK  3 active torsions:
REMARK  status: ('A' for Active; 'I' for Inactive)
REMARK    1  A    between atoms: C_18  and  C_15 
REMARK    2  A    between atoms: N_31  and  C_15 
REMARK    3  A    between atoms: O_34  and  C_27 
ROOT
HETATM    1  C   UNK N   1      24.935  16.777   3.729  0.00  0.00     0.001 A 
HETATM    2  C   UNK N   1      34.184  17.593   8.720  0.00  0.00     0.001 A 
HETATM    3  C   UNK N   1      25.206  16.007   2.578  0.00  0.00     0.002 A 
HETATM    4  C   UNK N   1      34.917  16.434   8.385  0.00  0.00     0.002 A 
HETATM    5  C   UNK N   1      25.968  17.111   4.623  0.00  0.00     0.014 A 
HETATM    6  C   UNK N   1      32.846  17.735   8.307  0.00  0.00     0.014 A 
HETATM    7  C   UNK N   1      26.512  15.565   2.312  0.00  0.00     0.030 A 
HETATM    8  C   UNK N   1      34.318  15.407   7.634  0.00  0.00     0.030 A 
HETATM    9  C   UNK N   1      29.509  13.313   2.683  0.00  0.00     0.054 C 
HETATM   10  C   UNK N   1      29.460  14.748   2.162  0.00  0.00     0.131 C 
HETATM   11  C   UNK N   1      32.611  13.426   6.006  0.00  0.00     0.154 C 
HETATM   12  C   UNK N   1      32.688  13.419   4.484  0.00  0.00     0.188 C 
HETATM   13  C   UNK N   1      29.408  16.115   4.254  0.00  0.00     0.104 A 
HETATM   14  C   UNK N   1      31.022  15.314   6.371  0.00  0.00     0.104 A 
HETATM   15  C   UNK N   1      30.892  12.855   3.146  0.00  0.00     0.151 C 
HETATM   16  C   UNK N   1      27.258  16.665   4.338  0.00  0.00     0.003 A 
HETATM   17  C   UNK N   1      32.275  16.703   7.564  0.00  0.00     0.003 A 
HETATM   18  C   UNK N   1      28.463  16.800   5.021  0.00  0.00     0.007 A 
HETATM   19  C   UNK N   1      31.012  16.552   7.005  0.00  0.00     0.009 A 
HETATM   20  C   UNK N   1      27.513  15.915   3.218  0.00  0.00     0.045 A 
HETATM   21  C   UNK N   1      32.992  15.581   7.238  0.00  0.00     0.045 A 
HETATM   22  C   UNK N   1      28.742  17.543   6.296  0.00  0.00     0.044 A 
HETATM   23  C   UNK N   1      29.836  17.466   7.096  0.00  0.00     0.060 A 
HETATM   24  C   UNK N   1      27.878  18.575   6.917  0.00  0.00     0.155 A 
HETATM   25  C   UNK N   1      29.601  18.459   8.152  0.00  0.00     0.259 A 
HETATM   26  N   UNK N   1      28.419  19.063   7.971  0.00  0.00    -0.303 N 
ATOM     27  HN  UNK N   1      28.020  19.786   8.568  1.00  0.00     0.171 HD
HETATM   28  N   UNK N   1      28.811  15.582   3.166  0.00  0.00    -0.355 N 
HETATM   29  N   UNK N   1      32.234  14.739   6.518  0.00  0.00    -0.353 N 
HETATM   30  O   UNK N   1      30.328  18.694   9.104  0.00  0.00    -0.267 OA
HETATM   31  O   UNK N   1      31.501  13.888   3.896  0.00  0.00    -0.382 OA
ENDROOT
BRANCH  15  32
HETATM   32  C   UNK N   1      31.715  12.453   1.913  0.00  0.00     0.303 C 
BRANCH  32  33
HETATM   33  N   UNK N   1      30.923  11.610   1.027  0.00  0.00     0.082 N 
HETATM   34  C   UNK N   1      31.360  11.882  -0.330  0.00  0.00     0.309 C 
HETATM   35  C   UNK N   1      31.248  10.224   1.311  0.00  0.00     0.309 C 
ENDBRANCH  32  33
ENDBRANCH  15  32
BRANCH  24  36
HETATM   36  O   UNK N   1      26.688  19.005   6.461  0.00  0.00    -0.345 OA
HETATM   37  H   UNK N   1      26.162  18.451   5.920  0.00  0.00     0.219 HD
ENDBRANCH  24  36
TORSDOF 3
ENDMDL
MODEL 7
REMARK VINA RESULT:      -8.1      3.501      7.293
REMARK  3 active torsions:
REMARK  status: ('A' for Active; 'I' for Inactive)
REMARK    1  A    between atoms: C_18  and  C_15 
REMARK    2  A    between atoms: N_31  and  C_15 
REMARK    3  A    between atoms: O_34  and  C_27 
ROOT
HETATM    1  C   UNK N   1      27.815  20.500   5.807  0.00  0.00     0.001 A 
HETATM    2  C   UNK N   1      28.180  11.228   0.805  0.00  0.00     0.001 A 
HETATM    3  C   UNK N   1      26.475  20.926   5.693  0.00  0.00     0.002 A 
HETATM    4  C   UNK N   1      26.890  10.666   0.921  0.00  0.00     0.002 A 
HETATM    5  C   UNK N   1      28.233  19.294   5.216  0.00  0.00     0.014 A 
HETATM    6  C   UNK N   1      28.500  12.423   1.476  0.00  0.00     0.014 A 
HETATM    7  C   UNK N   1      25.541  20.148   4.988  0.00  0.00     0.030 A 
HETATM    8  C   UNK N   1      25.909  11.295   1.708  0.00  0.00     0.030 A 
HETATM    9  C   UNK N   1      23.102  17.317   4.513  0.00  0.00     0.054 C 
HETATM   10  C   UNK N   1      23.835  18.126   3.446  0.00  0.00     0.131 C 
HETATM   11  C   UNK N   1      24.102  12.990   3.538  0.00  0.00     0.154 C 
HETATM   12  C   UNK N   1      23.154  14.021   2.936  0.00  0.00     0.188 C 
HETATM   13  C   UNK N   1      26.095  17.059   3.373  0.00  0.00     0.104 A 
HETATM   14  C   UNK N   1      26.231  14.288   3.553  0.00  0.00     0.104 A 
HETATM   15  C   UNK N   1      22.569  15.968   4.031  0.00  0.00     0.151 C 
HETATM   16  C   UNK N   1      27.291  18.540   4.518  0.00  0.00     0.003 A 
HETATM   17  C   UNK N   1      27.511  13.027   2.251  0.00  0.00     0.003 A 
HETATM   18  C   UNK N   1      27.378  17.317   3.860  0.00  0.00     0.007 A 
HETATM   19  C   UNK N   1      27.506  14.195   3.004  0.00  0.00     0.009 A 
HETATM   20  C   UNK N   1      25.989  18.960   4.414  0.00  0.00     0.045 A 
HETATM   21  C   UNK N   1      26.258  12.479   2.357  0.00  0.00     0.045 A 
HETATM   22  C   UNK N   1      28.583  16.441   3.662  0.00  0.00     0.044 A 
HETATM   23  C   UNK N   1      28.627  15.146   3.256  0.00  0.00     0.060 A 
HETATM   24  C   UNK N   1      30.000  16.848   3.820  0.00  0.00     0.155 A 
HETATM   25  C   UNK N   1      30.058  14.828   3.169  0.00  0.00     0.259 A 
HETATM   26  N   UNK N   1      30.795  15.889   3.524  0.00  0.00    -0.303 N 
ATOM     27  HN  UNK N   1      31.814  15.926   3.554  1.00  0.00     0.171 HD
HETATM   28  N   UNK N   1      25.266  18.066   3.722  0.00  0.00    -0.355 N 
HETATM   29  N   UNK N   1      25.484  13.241   3.146  0.00  0.00    -0.353 N 
HETATM   30  O   UNK N   1      30.547  13.750   2.871  0.00  0.00    -0.267 OA
HETATM   31  O   UNK N   1      23.550  15.336   3.233  0.00  0.00    -0.382 OA
ENDROOT
BRANCH  15  32
HETATM   32  C   UNK N   1      21.251  16.201   3.278  0.00  0.00     0.303 C 
BRANCH  32  33
HETATM   33  N   UNK N   1      20.366  17.057   4.056  0.00  0.00     0.082 N 
HETATM   34  C   UNK N   1      19.722  17.968   3.127  0.00  0.00     0.309 C 
HETATM   35  C   UNK N   1      19.324  16.226   4.632  0.00  0.00     0.309 C 
ENDBRANCH  32  33
ENDBRANCH  15  32
BRANCH  24  36
HETATM   36  O   UNK N   1      30.449  18.060   4.191  0.00  0.00    -0.345 OA
HETATM   37  H   UNK N   1      29.844  18.735   4.429  0.00  0.00     0.219 HD
ENDBRANCH  24  36
TORSDOF 3
ENDMDL
MODEL 8
REMARK VINA RESULT:      -8.1      5.280      8.639
REMARK  3 active torsions:
REMARK  status: ('A' for Active; 'I' for Inactive)
REMARK    1  A    between atoms: C_18  and  C_15 
REMARK    2  A    between atoms: N_31  and  C_15 
REMARK    3  A    between atoms: O_34  and  C_27 
ROOT
HETATM    1  C   UNK N   1      30.635  11.089   3.188  0.00  0.00     0.001 A 
HETATM    2  C   UNK N   1      26.645  20.651   5.135  0.00  0.00     0.001 A 
HETATM    3  C   UNK N   1      31.833  11.033   3.932  0.00  0.00     0.002 A 
HETATM    4  C   UNK N   1      27.095  21.011   6.423  0.00  0.00     0.002 A 
HETATM    5  C   UNK N   1      29.846  12.254   3.193  0.00  0.00     0.014 A 
HETATM    6  C   UNK N   1      26.907  19.367   4.621  0.00  0.00     0.014 A 
HETATM    7  C   UNK N   1      32.252  12.142   4.685  0.00  0.00     0.030 A 
HETATM    8  C   UNK N   1      27.811  20.091   7.210  0.00  0.00     0.030 A 
HETATM    9  C   UNK N   1      32.281  14.448   7.664  0.00  0.00     0.054 C 
HETATM   10  C   UNK N   1      32.746  14.735   6.238  0.00  0.00     0.131 C 
HETATM   11  C   UNK N   1      29.309  17.769   8.570  0.00  0.00     0.154 C 
HETATM   12  C   UNK N   1      30.830  17.696   8.505  0.00  0.00     0.188 C 
HETATM   13  C   UNK N   1      30.617  15.250   5.034  0.00  0.00     0.104 A 
HETATM   14  C   UNK N   1      28.713  16.786   6.357  0.00  0.00     0.104 A 
HETATM   15  C   UNK N   1      31.984  15.695   8.496  0.00  0.00     0.151 C 
HETATM   16  C   UNK N   1      30.284  13.344   3.944  0.00  0.00     0.003 A 
HETATM   17  C   UNK N   1      27.617  18.472   5.420  0.00  0.00     0.003 A 
HETATM   18  C   UNK N   1      29.731  14.601   4.172  0.00  0.00     0.007 A 
HETATM   19  C   UNK N   1      28.042  17.167   5.200  0.00  0.00     0.009 A 
HETATM   20  C   UNK N   1      31.448  13.281   4.665  0.00  0.00     0.045 A 
HETATM   21  C   UNK N   1      28.055  18.828   6.670  0.00  0.00     0.045 A 
HETATM   22  C   UNK N   1      28.469  15.189   3.607  0.00  0.00     0.044 A 
HETATM   23  C   UNK N   1      27.795  16.293   4.016  0.00  0.00     0.060 A 
HETATM   24  C   UNK N   1      27.725  14.695   2.422  0.00  0.00     0.155 A 
HETATM   25  C   UNK N   1      26.688  16.435   3.062  0.00  0.00     0.259 A 
HETATM   26  N   UNK N   1      26.721  15.446   2.159  0.00  0.00    -0.303 N 
ATOM     27  HN  UNK N   1      26.060  15.313   1.393  1.00  0.00     0.171 HD
HETATM   28  N   UNK N   1      31.650  14.432   5.324  0.00  0.00    -0.355 N 
HETATM   29  N   UNK N   1      28.717  17.807   7.238  0.00  0.00    -0.353 N 
HETATM   30  O   UNK N   1      25.813  17.285   3.084  0.00  0.00    -0.267 OA
HETATM   31  O   UNK N   1      31.271  16.627   7.707  0.00  0.00    -0.382 OA
ENDROOT
BRANCH  15  32
HETATM   32  C   UNK N   1      33.311  16.259   9.025  0.00  0.00     0.303 C 
BRANCH  32  33
HETATM   33  N   UNK N   1      34.173  15.180   9.488  0.00  0.00     0.082 N 
HETATM   34  C   UNK N   1      35.516  15.471   9.020  0.00  0.00     0.309 C 
HETATM   35  C   UNK N   1      34.208  15.219  10.938  0.00  0.00     0.309 C 
ENDBRANCH  32  33
ENDBRANCH  15  32
BRANCH  24  36
HETATM   36  O   UNK N   1      28.036  13.626   1.668  0.00  0.00    -0.345 OA
HETATM   37  H   UNK N   1      27.381  12.991   1.459  0.00  0.00     0.219 HD
ENDBRANCH  24  36
TORSDOF 3
ENDMDL
MODEL 9
REMARK VINA RESULT:      -8.1     12.914     16.646
REMARK  3 active torsions:
REMARK  status: ('A' for Active; 'I' for Inactive)
REMARK    1  A    between atoms: C_18  and  C_15 
REMARK    2  A    between atoms: N_31  and  C_15 
REMARK    3  A    between atoms: O_34  and  C_27 
ROOT
HETATM    1  C   UNK N   1      35.894   6.086  10.662  0.00  0.00     0.001 A 
HETATM    2  C   UNK N   1      35.119  12.527  18.971  0.00  0.00     0.001 A 
HETATM    3  C   UNK N   1      35.487   6.862   9.557  0.00  0.00     0.002 A 
HETATM    4  C   UNK N   1      35.324  13.834  18.478  0.00  0.00     0.002 A 
HETATM    5  C   UNK N   1      35.885   6.631  11.959  0.00  0.00     0.014 A 
HETATM    6  C   UNK N   1      35.279  11.413  18.127  0.00  0.00     0.014 A 
HETATM    7  C   UNK N   1      35.067   8.190   9.740  0.00  0.00     0.030 A 
HETATM    8  C   UNK N   1      35.690  14.038  17.135  0.00  0.00     0.030 A 
HETATM    9  C   UNK N   1      35.535  11.893  10.251  0.00  0.00     0.054 C 
HETATM   10  C   UNK N   1      34.310  11.039  10.571  0.00  0.00     0.131 C 
HETATM   11  C   UNK N   1      36.492  14.006  14.161  0.00  0.00     0.154 C 
HETATM   12  C   UNK N   1      35.435  14.203  13.081  0.00  0.00     0.188 C 
HETATM   13  C   UNK N   1      34.898   9.998  12.767  0.00  0.00     0.104 A 
HETATM   14  C   UNK N   1      36.192  11.580  14.651  0.00  0.00     0.104 A 
HETATM   15  C   UNK N   1      35.588  13.228  10.993  0.00  0.00     0.151 C 
HETATM   16  C   UNK N   1      35.460   7.949  12.118  0.00  0.00     0.003 A 
HETATM   17  C   UNK N   1      35.643  11.640  16.800  0.00  0.00     0.003 A 
HETATM   18  C   UNK N   1      35.363   8.769  13.239  0.00  0.00     0.007 A 
HETATM   19  C   UNK N   1      35.856  10.774  15.735  0.00  0.00     0.009 A 
HETATM   20  C   UNK N   1      35.067   8.698  11.038  0.00  0.00     0.045 A 
HETATM   21  C   UNK N   1      35.837  12.912  16.325  0.00  0.00     0.045 A 
HETATM   22  C   UNK N   1      35.656   8.435  14.674  0.00  0.00     0.044 A 
HETATM   23  C   UNK N   1      35.813   9.283  15.722  0.00  0.00     0.060 A 
HETATM   24  C   UNK N   1      35.775   7.075  15.252  0.00  0.00     0.155 A 
HETATM   25  C   UNK N   1      36.003   8.410  16.888  0.00  0.00     0.259 A 
HETATM   26  N   UNK N   1      35.971   7.123  16.517  0.00  0.00    -0.303 N 
ATOM     27  HN  UNK N   1      36.084   6.320  17.135  1.00  0.00     0.171 HD
HETATM   28  N   UNK N   1      34.728   9.936  11.429  0.00  0.00    -0.355 N 
HETATM   29  N   UNK N   1      36.171  12.876  15.025  0.00  0.00    -0.353 N 
HETATM   30  O   UNK N   1      36.215   8.765  18.036  0.00  0.00    -0.267 OA
HETATM   31  O   UNK N   1      35.214  13.029  12.342  0.00  0.00    -0.382 OA
ENDROOT
BRANCH  15  32
HETATM   32  C   UNK N   1      34.679  14.230  10.267  0.00  0.00     0.303 C 
BRANCH  32  33
HETATM   33  N   UNK N   1      35.477  15.260   9.616  0.00  0.00     0.082 N 
HETATM   34  C   UNK N   1      35.102  15.272   8.214  0.00  0.00     0.309 C 
HETATM   35  C   UNK N   1      35.096  16.546  10.171  0.00  0.00     0.309 C 
ENDBRANCH  32  33
ENDBRANCH  15  32
BRANCH  24  36
HETATM   36  O   UNK N   1      35.668   5.910  14.589  0.00  0.00    -0.345 OA
HETATM   37  H   UNK N   1      34.927   5.745  14.041  0.00  0.00     0.219 HD
ENDBRANCH  24  36
TORSDOF 3
ENDMDL
