MODEL 1
REMARK VINA RESULT:      -7.7      0.000      0.000
REMARK  5 active torsions:
REMARK  status: ('A' for Active; 'I' for Inactive)
REMARK    1  A    between atoms: C_3  and  O_28 
REMARK    2  A    between atoms: C_6  and  C_7 
REMARK       I    between atoms: C_7  and  N_9 
REMARK    3  A    between atoms: N_9  and  C_10 
REMARK    4  A    between atoms: N_13  and  O_17 
REMARK    5  A    between atoms: O_28  and  C_29 
ROOT
HETATM    1  C   UNK N   1      20.609  15.683   7.746  0.00  0.00     0.021 A 
HETATM    2  C   UNK N   1      20.597  14.514   8.531  0.00  0.00     0.041 A 
HETATM    3  C   UNK N   1      21.718  13.668   8.576  0.00  0.00     0.109 A 
HETATM    4  C   UNK N   1      22.820  14.029   7.809  0.00  0.00     0.121 A 
HETATM    5  C   UNK N   1      22.848  15.178   7.027  0.00  0.00     0.031 A 
HETATM    6  C   UNK N   1      21.743  16.061   6.986  0.00  0.00     0.046 A 
HETATM    7  C   UNK N   1      24.069  15.128   6.385  0.00  0.00     0.027 A 
HETATM    8  C   UNK N   1      24.668  15.928   5.435  0.00  0.00     0.102 A 
HETATM    9  N   UNK N   1      25.907  15.580   4.970  0.00  0.00    -0.374 N 
ATOM     10  HN  UNK N   1      26.356  16.168   4.270  1.00  0.00     0.164 HD
HETATM   11  C   UNK N   1      26.560  14.462   5.420  0.00  0.00     0.090 A 
HETATM   12  C   UNK N   1      25.960  13.625   6.373  0.00  0.00     0.055 A 
HETATM   13  C   UNK N   1      24.702  13.994   6.831  0.00  0.00     0.090 A 
HETATM   14  O   UNK N   1      23.940  13.350   7.684  0.00  0.00    -0.306 OA
ENDROOT
BRANCH   6  15
HETATM   15  C   UNK N   1      21.640  17.327   6.192  0.00  0.00     0.257 C 
HETATM   16  O   UNK N   1      21.462  18.351   6.817  0.00  0.00    -0.267 OA
HETATM   17  N   UNK N   1      21.725  17.350   4.821  0.00  0.00    -0.320 N 
HETATM   18  H   UNK N   1      21.865  16.473   4.396  0.00  0.00     0.169 HD
BRANCH  17  19
HETATM   19  C   UNK N   1      21.642  18.475   3.903  0.00  0.00     0.081 A 
HETATM   20  C   UNK N   1      22.690  19.427   3.626  0.00  0.00     0.080 A 
HETATM   21  C   UNK N   1      22.428  20.501   2.769  0.00  0.00     0.148 A 
HETATM   22 Cl   UNK N   1      24.361  19.365   4.167  0.00  0.00    -0.080 Cl
HETATM   23  N   UNK N   1      21.221  20.658   2.179  0.00  0.00    -0.244 N 
HETATM   24  C   UNK N   1      20.244  19.744   2.348  0.00  0.00     0.148 A 
HETATM   25  C   UNK N   1      20.428  18.650   3.186  0.00  0.00     0.080 A 
HETATM   26 Cl   UNK N   1      19.105  17.517   3.254  0.00  0.00    -0.080 Cl
BRANCH  23  27
HETATM   27  O   UNK N   1      21.005  21.708   1.396  0.00  0.00    -0.284 OA
ATOM     28  HO  UNK N   1      21.112  22.586   1.746  1.00  0.00     0.245 HD
ENDBRANCH  23  27
ENDBRANCH  17  19
ENDBRANCH   6  15
BRANCH   3  29
HETATM   29  O   UNK N   1      21.761  12.519   9.304  0.00  0.00    -0.287 OA
BRANCH  29  30
HETATM   30  C   UNK N   1      22.080  12.361  10.645  0.00  0.00     0.505 C 
HETATM   31  F   UNK N   1      22.850  11.225  10.806  0.00  0.00    -0.184 F 
HETATM   32  F   UNK N   1      20.982  12.294  11.485  0.00  0.00    -0.184 F 
ENDBRANCH  29  30
ENDBRANCH   3  29
TORSDOF 5
ENDMDL
MODEL 2
REMARK VINA RESULT:      -7.5      3.743      5.330
REMARK  5 active torsions:
REMARK  status: ('A' for Active; 'I' for Inactive)
REMARK    1  A    between atoms: C_3  and  O_28 
REMARK    2  A    between atoms: C_6  and  C_7 
REMARK       I    between atoms: C_7  and  N_9 
REMARK    3  A    between atoms: N_9  and  C_10 
REMARK    4  A    between atoms: N_13  and  O_17 
REMARK    5  A    between atoms: O_28  and  C_29 
ROOT
HETATM    1  C   UNK N   1      20.981  16.594   6.393  0.00  0.00     0.021 A 
HETATM    2  C   UNK N   1      19.813  16.728   7.169  0.00  0.00     0.041 A 
HETATM    3  C   UNK N   1      19.647  15.985   8.350  0.00  0.00     0.109 A 
HETATM    4  C   UNK N   1      20.672  15.115   8.706  0.00  0.00     0.121 A 
HETATM    5  C   UNK N   1      21.830  14.970   7.950  0.00  0.00     0.031 A 
HETATM    6  C   UNK N   1      22.033  15.726   6.772  0.00  0.00     0.046 A 
HETATM    7  C   UNK N   1      22.540  13.978   8.597  0.00  0.00     0.027 A 
HETATM    8  C   UNK N   1      23.727  13.334   8.317  0.00  0.00     0.102 A 
HETATM    9  N   UNK N   1      24.155  12.349   9.166  0.00  0.00    -0.374 N 
ATOM     10  HN  UNK N   1      25.033  11.872   8.967  1.00  0.00     0.164 HD
HETATM   11  C   UNK N   1      23.437  11.989  10.276  0.00  0.00     0.090 A 
HETATM   12  C   UNK N   1      22.217  12.620  10.568  0.00  0.00     0.055 A 
HETATM   13  C   UNK N   1      21.799  13.615   9.694  0.00  0.00     0.090 A 
HETATM   14  O   UNK N   1      20.685  14.307   9.744  0.00  0.00    -0.306 OA
ENDROOT
BRANCH   6  15
HETATM   15  C   UNK N   1      23.228  15.670   5.869  0.00  0.00     0.257 C 
HETATM   16  O   UNK N   1      23.194  14.860   4.967  0.00  0.00    -0.267 OA
HETATM   17  N   UNK N   1      24.327  16.474   6.045  0.00  0.00    -0.320 N 
HETATM   18  H   UNK N   1      24.272  17.097   6.806  0.00  0.00     0.169 HD
BRANCH  17  19
HETATM   19  C   UNK N   1      25.560  16.545   5.277  0.00  0.00     0.081 A 
HETATM   20  C   UNK N   1      26.559  15.510   5.174  0.00  0.00     0.080 A 
HETATM   21  C   UNK N   1      27.730  15.761   4.451  0.00  0.00     0.148 A 
HETATM   22 Cl   UNK N   1      26.459  13.864   5.778  0.00  0.00    -0.080 Cl
HETATM   23  N   UNK N   1      27.940  16.945   3.831  0.00  0.00    -0.244 N 
HETATM   24  C   UNK N   1      26.994  17.906   3.835  0.00  0.00     0.148 A 
HETATM   25  C   UNK N   1      25.804  17.732   4.533  0.00  0.00     0.080 A 
HETATM   26 Cl   UNK N   1      24.647  19.028   4.394  0.00  0.00    -0.080 Cl
BRANCH  23  27
HETATM   27  O   UNK N   1      29.079  17.153   3.180  0.00  0.00    -0.284 OA
ATOM     28  HO  UNK N   1      29.278  18.020   2.845  1.00  0.00     0.245 HD
ENDBRANCH  23  27
ENDBRANCH  17  19
ENDBRANCH   6  15
BRANCH   3  29
HETATM   29  O   UNK N   1      18.536  16.061   9.134  0.00  0.00    -0.287 OA
BRANCH  29  30
HETATM   30  C   UNK N   1      17.826  17.191   9.514  0.00  0.00     0.505 C 
HETATM   31  F   UNK N   1      16.938  17.536   8.514  0.00  0.00    -0.184 F 
HETATM   32  F   UNK N   1      18.620  18.282   9.819  0.00  0.00    -0.184 F 
ENDBRANCH  29  30
ENDBRANCH   3  29
TORSDOF 5
ENDMDL
MODEL 3
REMARK VINA RESULT:      -7.3      8.901     12.747
REMARK  5 active torsions:
REMARK  status: ('A' for Active; 'I' for Inactive)
REMARK    1  A    between atoms: C_3  and  O_28 
REMARK    2  A    between atoms: C_6  and  C_7 
REMARK       I    between atoms: C_7  and  N_9 
REMARK    3  A    between atoms: N_9  and  C_10 
REMARK    4  A    between atoms: N_13  and  O_17 
REMARK    5  A    between atoms: O_28  and  C_29 
ROOT
HETATM    1  C   UNK N   1      33.001  15.595   4.366  0.00  0.00     0.021 A 
HETATM    2  C   UNK N   1      31.967  15.698   3.415  0.00  0.00     0.041 A 
HETATM    3  C   UNK N   1      30.746  16.308   3.747  0.00  0.00     0.109 A 
HETATM    4  C   UNK N   1      30.604  16.788   5.044  0.00  0.00     0.121 A 
HETATM    5  C   UNK N   1      31.614  16.693   5.995  0.00  0.00     0.031 A 
HETATM    6  C   UNK N   1      32.862  16.108   5.678  0.00  0.00     0.046 A 
HETATM    7  C   UNK N   1      31.053  17.212   7.145  0.00  0.00     0.027 A 
HETATM    8  C   UNK N   1      31.508  17.339   8.441  0.00  0.00     0.102 A 
HETATM    9  N   UNK N   1      30.674  17.886   9.378  0.00  0.00    -0.374 N 
ATOM     10  HN  UNK N   1      31.005  17.986  10.337  1.00  0.00     0.164 HD
HETATM   11  C   UNK N   1      29.408  18.304   9.064  0.00  0.00     0.090 A 
HETATM   12  C   UNK N   1      28.919  18.166   7.755  0.00  0.00     0.055 A 
HETATM   13  C   UNK N   1      29.780  17.608   6.819  0.00  0.00     0.090 A 
HETATM   14  O   UNK N   1      29.529  17.348   5.557  0.00  0.00    -0.306 OA
ENDROOT
BRANCH   6  15
HETATM   15  C   UNK N   1      34.031  15.942   6.602  0.00  0.00     0.257 C 
HETATM   16  O   UNK N   1      34.926  16.754   6.500  0.00  0.00    -0.267 OA
HETATM   17  N   UNK N   1      34.113  14.921   7.516  0.00  0.00    -0.320 N 
HETATM   18  H   UNK N   1      33.345  14.305   7.526  0.00  0.00     0.169 HD
BRANCH  17  19
HETATM   19  C   UNK N   1      35.164  14.612   8.473  0.00  0.00     0.081 A 
HETATM   20  C   UNK N   1      35.593  15.450   9.566  0.00  0.00     0.080 A 
HETATM   21  C   UNK N   1      36.672  15.042  10.356  0.00  0.00     0.148 A 
HETATM   22 Cl   UNK N   1      34.848  16.939  10.128  0.00  0.00    -0.080 Cl
HETATM   23  N   UNK N   1      37.312  13.871  10.133  0.00  0.00    -0.244 N 
HETATM   24  C   UNK N   1      36.886  13.023   9.174  0.00  0.00     0.148 A 
HETATM   25  C   UNK N   1      35.821  13.358   8.346  0.00  0.00     0.080 A 
HETATM   26 Cl   UNK N   1      35.339  12.138   7.198  0.00  0.00    -0.080 Cl
BRANCH  23  27
HETATM   27  O   UNK N   1      38.351  13.535  10.888  0.00  0.00    -0.284 OA
ATOM     28  HO  UNK N   1      38.205  13.096  11.719  1.00  0.00     0.245 HD
ENDBRANCH  23  27
ENDBRANCH  17  19
ENDBRANCH   6  15
BRANCH   3  29
HETATM   29  O   UNK N   1      29.705  16.425   2.876  0.00  0.00    -0.287 OA
BRANCH  29  30
HETATM   30  C   UNK N   1      28.680  15.522   2.634  0.00  0.00     0.505 C 
HETATM   31  F   UNK N   1      28.632  14.593   3.656  0.00  0.00    -0.184 F 
HETATM   32  F   UNK N   1      28.779  14.864   1.421  0.00  0.00    -0.184 F 
ENDBRANCH  29  30
ENDBRANCH   3  29
TORSDOF 5
ENDMDL
MODEL 4
REMARK VINA RESULT:      -7.2      6.951      9.820
REMARK  5 active torsions:
REMARK  status: ('A' for Active; 'I' for Inactive)
REMARK    1  A    between atoms: C_3  and  O_28 
REMARK    2  A    between atoms: C_6  and  C_7 
REMARK       I    between atoms: C_7  and  N_9 
REMARK    3  A    between atoms: N_9  and  C_10 
REMARK    4  A    between atoms: N_13  and  O_17 
REMARK    5  A    between atoms: O_28  and  C_29 
ROOT
HETATM    1  C   UNK N   1      28.132  19.170   5.859  0.00  0.00     0.021 A 
HETATM    2  C   UNK N   1      26.964  19.871   5.497  0.00  0.00     0.041 A 
HETATM    3  C   UNK N   1      26.027  19.299   4.621  0.00  0.00     0.109 A 
HETATM    4  C   UNK N   1      26.307  18.031   4.126  0.00  0.00     0.121 A 
HETATM    5  C   UNK N   1      27.456  17.326   4.471  0.00  0.00     0.031 A 
HETATM    6  C   UNK N   1      28.402  17.869   5.372  0.00  0.00     0.046 A 
HETATM    7  C   UNK N   1      27.386  16.168   3.722  0.00  0.00     0.027 A 
HETATM    8  C   UNK N   1      28.241  15.098   3.561  0.00  0.00     0.102 A 
HETATM    9  N   UNK N   1      27.883  14.097   2.700  0.00  0.00    -0.374 N 
ATOM     10  HN  UNK N   1      28.509  13.302   2.578  1.00  0.00     0.164 HD
HETATM   11  C   UNK N   1      26.707  14.133   1.997  0.00  0.00     0.090 A 
HETATM   12  C   UNK N   1      25.833  15.222   2.133  0.00  0.00     0.055 A 
HETATM   13  C   UNK N   1      26.214  16.229   3.010  0.00  0.00     0.090 A 
HETATM   14  O   UNK N   1      25.581  17.350   3.266  0.00  0.00    -0.306 OA
ENDROOT
BRANCH   6  15
HETATM   15  C   UNK N   1      29.674  17.220   5.828  0.00  0.00     0.257 C 
HETATM   16  O   UNK N   1      29.606  16.520   6.816  0.00  0.00    -0.267 OA
HETATM   17  N   UNK N   1      30.872  17.408   5.185  0.00  0.00    -0.320 N 
HETATM   18  H   UNK N   1      30.836  17.996   4.396  0.00  0.00     0.169 HD
BRANCH  17  19
HETATM   19  C   UNK N   1      32.187  16.868   5.492  0.00  0.00     0.081 A 
HETATM   20  C   UNK N   1      32.974  17.159   6.666  0.00  0.00     0.080 A 
HETATM   21  C   UNK N   1      34.257  16.615   6.780  0.00  0.00     0.148 A 
HETATM   22 Cl   UNK N   1      32.479  18.069   8.085  0.00  0.00    -0.080 Cl
HETATM   23  N   UNK N   1      34.771  15.806   5.825  0.00  0.00    -0.244 N 
HETATM   24  C   UNK N   1      34.035  15.445   4.755  0.00  0.00     0.148 A 
HETATM   25  C   UNK N   1      32.752  15.946   4.569  0.00  0.00     0.080 A 
HETATM   26 Cl   UNK N   1      31.894  15.339   3.178  0.00  0.00    -0.080 Cl
BRANCH  23  27
HETATM   27  O   UNK N   1      36.005  15.335   5.958  0.00  0.00    -0.284 OA
ATOM     28  HO  UNK N   1      36.325  14.676   5.352  1.00  0.00     0.245 HD
ENDBRANCH  23  27
ENDBRANCH  17  19
ENDBRANCH   6  15
BRANCH   3  29
HETATM   29  O   UNK N   1      24.888  19.932   4.225  0.00  0.00    -0.287 OA
BRANCH  29  30
HETATM   30  C   UNK N   1      24.577  20.437   2.970  0.00  0.00     0.505 C 
HETATM   31  F   UNK N   1      25.699  21.024   2.417  0.00  0.00    -0.184 F 
HETATM   32  F   UNK N   1      23.535  21.348   2.969  0.00  0.00    -0.184 F 
ENDBRANCH  29  30
ENDBRANCH   3  29
TORSDOF 5
ENDMDL
MODEL 5
REMARK VINA RESULT:      -7.2     14.697     15.808
REMARK  5 active torsions:
REMARK  status: ('A' for Active; 'I' for Inactive)
REMARK    1  A    between atoms: C_3  and  O_28 
REMARK    2  A    between atoms: C_6  and  C_7 
REMARK       I    between atoms: C_7  and  N_9 
REMARK    3  A    between atoms: N_9  and  C_10 
REMARK    4  A    between atoms: N_13  and  O_17 
REMARK    5  A    between atoms: O_28  and  C_29 
ROOT
HETATM    1  C   UNK N   1      27.566  22.881  -7.420  0.00  0.00     0.021 A 
HETATM    2  C   UNK N   1      28.035  21.862  -8.271  0.00  0.00     0.041 A 
HETATM    3  C   UNK N   1      29.100  21.034  -7.880  0.00  0.00     0.109 A 
HETATM    4  C   UNK N   1      29.670  21.272  -6.635  0.00  0.00     0.121 A 
HETATM    5  C   UNK N   1      29.221  22.276  -5.783  0.00  0.00     0.031 A 
HETATM    6  C   UNK N   1      28.133  23.105  -6.142  0.00  0.00     0.046 A 
HETATM    7  C   UNK N   1      30.083  22.224  -4.706  0.00  0.00     0.027 A 
HETATM    8  C   UNK N   1      30.215  22.989  -3.566  0.00  0.00     0.102 A 
HETATM    9  N   UNK N   1      31.217  22.687  -2.685  0.00  0.00    -0.374 N 
ATOM     10  HN  UNK N   1      31.318  23.246  -1.839  1.00  0.00     0.164 HD
HETATM   11  C   UNK N   1      32.089  21.653  -2.907  0.00  0.00     0.090 A 
HETATM   12  C   UNK N   1      31.983  20.875  -4.071  0.00  0.00     0.055 A 
HETATM   13  C   UNK N   1      30.961  21.197  -4.953  0.00  0.00     0.090 A 
HETATM   14  O   UNK N   1      30.697  20.638  -6.111  0.00  0.00    -0.306 OA
ENDROOT
BRANCH   6  15
HETATM   15  C   UNK N   1      27.549  24.217  -5.323  0.00  0.00     0.257 C 
HETATM   16  O   UNK N   1      26.709  23.909  -4.504  0.00  0.00    -0.267 OA
HETATM   17  N   UNK N   1      27.921  25.529  -5.485  0.00  0.00    -0.320 N 
HETATM   18  H   UNK N   1      28.604  25.688  -6.175  0.00  0.00     0.169 HD
BRANCH  17  19
HETATM   19  C   UNK N   1      27.458  26.719  -4.789  0.00  0.00     0.081 A 
HETATM   20  C   UNK N   1      26.136  27.292  -4.870  0.00  0.00     0.080 A 
HETATM   21  C   UNK N   1      25.868  28.487  -4.194  0.00  0.00     0.148 A 
HETATM   22 Cl   UNK N   1      24.722  26.611  -5.659  0.00  0.00    -0.080 Cl
HETATM   23  N   UNK N   1      26.812  29.108  -3.451  0.00  0.00    -0.244 N 
HETATM   24  C   UNK N   1      28.033  28.560  -3.284  0.00  0.00     0.148 A 
HETATM   25  C   UNK N   1      28.376  27.375  -3.925  0.00  0.00     0.080 A 
HETATM   26 Cl   UNK N   1      29.963  26.749  -3.563  0.00  0.00    -0.080 Cl
BRANCH  23  27
HETATM   27  O   UNK N   1      26.524  30.257  -2.850  0.00  0.00    -0.284 OA
ATOM     28  HO  UNK N   1      27.004  30.513  -2.070  1.00  0.00     0.245 HD
ENDBRANCH  23  27
ENDBRANCH  17  19
ENDBRANCH   6  15
BRANCH   3  29
HETATM   29  O   UNK N   1      29.606  20.042  -8.664  0.00  0.00    -0.287 OA
BRANCH  29  30
HETATM   30  C   UNK N   1      29.783  18.702  -8.350  0.00  0.00     0.505 C 
HETATM   31  F   UNK N   1      29.891  17.965  -9.514  0.00  0.00    -0.184 F 
HETATM   32  F   UNK N   1      28.781  18.168  -7.560  0.00  0.00    -0.184 F 
ENDBRANCH  29  30
ENDBRANCH   3  29
TORSDOF 5
ENDMDL
MODEL 6
REMARK VINA RESULT:      -7.2      4.932      8.445
REMARK  5 active torsions:
REMARK  status: ('A' for Active; 'I' for Inactive)
REMARK    1  A    between atoms: C_3  and  O_28 
REMARK    2  A    between atoms: C_6  and  C_7 
REMARK       I    between atoms: C_7  and  N_9 
REMARK    3  A    between atoms: N_9  and  C_10 
REMARK    4  A    between atoms: N_13  and  O_17 
REMARK    5  A    between atoms: O_28  and  C_29 
ROOT
HETATM    1  C   UNK N   1      25.472  19.636   3.081  0.00  0.00     0.021 A 
HETATM    2  C   UNK N   1      24.419  20.462   2.640  0.00  0.00     0.041 A 
HETATM    3  C   UNK N   1      23.105  20.251   3.090  0.00  0.00     0.109 A 
HETATM    4  C   UNK N   1      22.894  19.197   3.972  0.00  0.00     0.121 A 
HETATM    5  C   UNK N   1      23.922  18.372   4.416  0.00  0.00     0.031 A 
HETATM    6  C   UNK N   1      25.257  18.580   3.998  0.00  0.00     0.046 A 
HETATM    7  C   UNK N   1      23.290  17.429   5.202  0.00  0.00     0.027 A 
HETATM    8  C   UNK N   1      23.736  16.308   5.871  0.00  0.00     0.102 A 
HETATM    9  N   UNK N   1      22.826  15.548   6.555  0.00  0.00    -0.374 N 
ATOM     10  HN  UNK N   1      23.150  14.721   7.055  1.00  0.00     0.164 HD
HETATM   11  C   UNK N   1      21.495  15.869   6.589  0.00  0.00     0.090 A 
HETATM   12  C   UNK N   1      21.018  16.995   5.899  0.00  0.00     0.055 A 
HETATM   13  C   UNK N   1      21.956  17.752   5.209  0.00  0.00     0.090 A 
HETATM   14  O   UNK N   1      21.738  18.814   4.469  0.00  0.00    -0.306 OA
ENDROOT
BRANCH   6  15
HETATM   15  C   UNK N   1      26.454  17.771   4.398  0.00  0.00     0.257 C 
HETATM   16  O   UNK N   1      26.463  16.606   4.060  0.00  0.00    -0.267 OA
HETATM   17  N   UNK N   1      27.493  18.297   5.125  0.00  0.00    -0.320 N 
HETATM   18  H   UNK N   1      27.399  19.248   5.362  0.00  0.00     0.169 HD
BRANCH  17  19
HETATM   19  C   UNK N   1      28.712  17.661   5.598  0.00  0.00     0.081 A 
HETATM   20  C   UNK N   1      29.626  16.875   4.804  0.00  0.00     0.080 A 
HETATM   21  C   UNK N   1      30.720  16.266   5.426  0.00  0.00     0.148 A 
HETATM   22 Cl   UNK N   1      29.605  16.649   3.062  0.00  0.00    -0.080 Cl
HETATM   23  N   UNK N   1      30.955  16.411   6.750  0.00  0.00    -0.244 N 
HETATM   24  C   UNK N   1      30.171  17.205   7.508  0.00  0.00     0.148 A 
HETATM   25  C   UNK N   1      29.062  17.843   6.964  0.00  0.00     0.080 A 
HETATM   26 Cl   UNK N   1      28.182  18.889   8.045  0.00  0.00    -0.080 Cl
BRANCH  23  27
HETATM   27  O   UNK N   1      31.989  15.791   7.306  0.00  0.00    -0.284 OA
ATOM     28  HO  UNK N   1      32.398  15.062   6.854  1.00  0.00     0.245 HD
ENDBRANCH  23  27
ENDBRANCH  17  19
ENDBRANCH   6  15
BRANCH   3  29
HETATM   29  O   UNK N   1      22.045  21.006   2.689  0.00  0.00    -0.287 OA
BRANCH  29  30
HETATM   30  C   UNK N   1      21.021  20.659   1.819  0.00  0.00     0.505 C 
HETATM   31  F   UNK N   1      20.581  21.785   1.151  0.00  0.00    -0.184 F 
HETATM   32  F   UNK N   1      19.946  20.038   2.430  0.00  0.00    -0.184 F 
ENDBRANCH  29  30
ENDBRANCH   3  29
TORSDOF 5
ENDMDL
MODEL 7
REMARK VINA RESULT:      -7.1      6.617      8.406
REMARK  5 active torsions:
REMARK  status: ('A' for Active; 'I' for Inactive)
REMARK    1  A    between atoms: C_3  and  O_28 
REMARK    2  A    between atoms: C_6  and  C_7 
REMARK       I    between atoms: C_7  and  N_9 
REMARK    3  A    between atoms: N_9  and  C_10 
REMARK    4  A    between atoms: N_13  and  O_17 
REMARK    5  A    between atoms: O_28  and  C_29 
ROOT
HETATM    1  C   UNK N   1      30.047  17.979   8.210  0.00  0.00     0.021 A 
HETATM    2  C   UNK N   1      31.271  17.750   8.868  0.00  0.00     0.041 A 
HETATM    3  C   UNK N   1      32.269  16.962   8.272  0.00  0.00     0.109 A 
HETATM    4  C   UNK N   1      31.992  16.418   7.023  0.00  0.00     0.121 A 
HETATM    5  C   UNK N   1      30.789  16.633   6.360  0.00  0.00     0.031 A 
HETATM    6  C   UNK N   1      29.778  17.445   6.927  0.00  0.00     0.046 A 
HETATM    7  C   UNK N   1      30.889  15.874   5.211  0.00  0.00     0.027 A 
HETATM    8  C   UNK N   1      30.014  15.609   4.178  0.00  0.00     0.102 A 
HETATM    9  N   UNK N   1      30.419  14.770   3.176  0.00  0.00    -0.374 N 
ATOM     10  HN  UNK N   1      29.779  14.572   2.408  1.00  0.00     0.164 HD
HETATM   11  C   UNK N   1      31.660  14.190   3.174  0.00  0.00     0.090 A 
HETATM   12  C   UNK N   1      32.558  14.433   4.226  0.00  0.00     0.055 A 
HETATM   13  C   UNK N   1      32.128  15.285   5.235  0.00  0.00     0.090 A 
HETATM   14  O   UNK N   1      32.775  15.623   6.326  0.00  0.00    -0.306 OA
ENDROOT
BRANCH   6  15
HETATM   15  C   UNK N   1      28.443  17.759   6.324  0.00  0.00     0.257 C 
HETATM   16  O   UNK N   1      27.495  17.122   6.733  0.00  0.00    -0.267 OA
HETATM   17  N   UNK N   1      28.278  18.706   5.343  0.00  0.00    -0.320 N 
HETATM   18  H   UNK N   1      29.101  19.170   5.067  0.00  0.00     0.169 HD
BRANCH  17  19
HETATM   19  C   UNK N   1      27.070  19.128   4.652  0.00  0.00     0.081 A 
HETATM   20  C   UNK N   1      26.297  18.335   3.728  0.00  0.00     0.080 A 
HETATM   21  C   UNK N   1      25.197  18.913   3.086  0.00  0.00     0.148 A 
HETATM   22 Cl   UNK N   1      26.499  16.630   3.355  0.00  0.00    -0.080 Cl
HETATM   23  N   UNK N   1      24.829  20.192   3.324  0.00  0.00    -0.244 N 
HETATM   24  C   UNK N   1      25.476  20.938   4.242  0.00  0.00     0.148 A 
HETATM   25  C   UNK N   1      26.581  20.435   4.921  0.00  0.00     0.080 A 
HETATM   26 Cl   UNK N   1      27.275  21.487   6.125  0.00  0.00    -0.080 Cl
BRANCH  23  27
HETATM   27  O   UNK N   1      23.796  20.711   2.671  0.00  0.00    -0.284 OA
ATOM     28  HO  UNK N   1      23.461  20.272   1.897  1.00  0.00     0.245 HD
ENDBRANCH  23  27
ENDBRANCH  17  19
ENDBRANCH   6  15
BRANCH   3  29
HETATM   29  O   UNK N   1      33.466  16.693   8.865  0.00  0.00    -0.287 OA
BRANCH  29  30
HETATM   30  C   UNK N   1      34.653  17.406   8.771  0.00  0.00     0.505 C 
HETATM   31  F   UNK N   1      35.319  17.355   9.980  0.00  0.00    -0.184 F 
HETATM   32  F   UNK N   1      34.491  18.727   8.391  0.00  0.00    -0.184 F 
ENDBRANCH  29  30
ENDBRANCH   3  29
TORSDOF 5
ENDMDL
MODEL 8
REMARK VINA RESULT:      -7.1      4.992      8.074
REMARK  5 active torsions:
REMARK  status: ('A' for Active; 'I' for Inactive)
REMARK    1  A    between atoms: C_3  and  O_28 
REMARK    2  A    between atoms: C_6  and  C_7 
REMARK       I    between atoms: C_7  and  N_9 
REMARK    3  A    between atoms: N_9  and  C_10 
REMARK    4  A    between atoms: N_13  and  O_17 
REMARK    5  A    between atoms: O_28  and  C_29 
ROOT
HETATM    1  C   UNK N   1      25.940  15.178   6.625  0.00  0.00     0.021 A 
HETATM    2  C   UNK N   1      24.534  15.111   6.565  0.00  0.00     0.041 A 
HETATM    3  C   UNK N   1      23.803  16.044   5.813  0.00  0.00     0.109 A 
HETATM    4  C   UNK N   1      24.520  17.032   5.149  0.00  0.00     0.121 A 
HETATM    5  C   UNK N   1      25.908  17.114   5.198  0.00  0.00     0.031 A 
HETATM    6  C   UNK N   1      26.670  16.170   5.926  0.00  0.00     0.046 A 
HETATM    7  C   UNK N   1      26.211  18.253   4.479  0.00  0.00     0.027 A 
HETATM    8  C   UNK N   1      27.392  18.914   4.214  0.00  0.00     0.102 A 
HETATM    9  N   UNK N   1      27.348  20.064   3.473  0.00  0.00    -0.374 N 
ATOM     10  HN  UNK N   1      28.217  20.555   3.271  1.00  0.00     0.164 HD
HETATM   11  C   UNK N   1      26.169  20.572   2.996  0.00  0.00     0.090 A 
HETATM   12  C   UNK N   1      24.954  19.925   3.271  0.00  0.00     0.055 A 
HETATM   13  C   UNK N   1      25.019  18.760   4.025  0.00  0.00     0.090 A 
HETATM   14  O   UNK N   1      24.018  18.015   4.433  0.00  0.00    -0.306 OA
ENDROOT
BRANCH   6  15
HETATM   15  C   UNK N   1      28.162  16.141   6.061  0.00  0.00     0.257 C 
HETATM   16  O   UNK N   1      28.730  15.158   5.634  0.00  0.00    -0.267 OA
HETATM   17  N   UNK N   1      28.872  17.158   6.651  0.00  0.00    -0.320 N 
HETATM   18  H   UNK N   1      28.329  17.913   6.975  0.00  0.00     0.169 HD
BRANCH  17  19
HETATM   19  C   UNK N   1      30.304  17.288   6.868  0.00  0.00     0.081 A 
HETATM   20  C   UNK N   1      31.327  17.230   5.853  0.00  0.00     0.080 A 
HETATM   21  C   UNK N   1      32.671  17.299   6.234  0.00  0.00     0.148 A 
HETATM   22 Cl   UNK N   1      31.104  17.181   4.111  0.00  0.00    -0.080 Cl
HETATM   23  N   UNK N   1      33.034  17.438   7.530  0.00  0.00    -0.244 N 
HETATM   24  C   UNK N   1      32.105  17.579   8.497  0.00  0.00     0.148 A 
HETATM   25  C   UNK N   1      30.749  17.520   8.198  0.00  0.00     0.080 A 
HETATM   26 Cl   UNK N   1      29.665  17.786   9.537  0.00  0.00    -0.080 Cl
BRANCH  23  27
HETATM   27  O   UNK N   1      34.322  17.470   7.851  0.00  0.00    -0.284 OA
ATOM     28  HO  UNK N   1      34.931  17.959   7.308  1.00  0.00     0.245 HD
ENDBRANCH  23  27
ENDBRANCH  17  19
ENDBRANCH   6  15
BRANCH   3  29
HETATM   29  O   UNK N   1      22.443  16.039   5.729  0.00  0.00    -0.287 OA
BRANCH  29  30
HETATM   30  C   UNK N   1      21.525  16.619   6.592  0.00  0.00     0.505 C 
HETATM   31  F   UNK N   1      21.732  17.985   6.637  0.00  0.00    -0.184 F 
HETATM   32  F   UNK N   1      21.556  16.109   7.878  0.00  0.00    -0.184 F 
ENDBRANCH  29  30
ENDBRANCH   3  29
TORSDOF 5
ENDMDL
MODEL 9
REMARK VINA RESULT:      -7.0     15.390     16.809
REMARK  5 active torsions:
REMARK  status: ('A' for Active; 'I' for Inactive)
REMARK    1  A    between atoms: C_3  and  O_28 
REMARK    2  A    between atoms: C_6  and  C_7 
REMARK       I    between atoms: C_7  and  N_9 
REMARK    3  A    between atoms: N_9  and  C_10 
REMARK    4  A    between atoms: N_13  and  O_17 
REMARK    5  A    between atoms: O_28  and  C_29 
ROOT
HETATM    1  C   UNK N   1      29.081  24.917  -4.691  0.00  0.00     0.021 A 
HETATM    2  C   UNK N   1      27.951  25.691  -4.363  0.00  0.00     0.041 A 
HETATM    3  C   UNK N   1      26.684  25.361  -4.870  0.00  0.00     0.109 A 
HETATM    4  C   UNK N   1      26.600  24.256  -5.709  0.00  0.00     0.121 A 
HETATM    5  C   UNK N   1      27.706  23.482  -6.045  0.00  0.00     0.031 A 
HETATM    6  C   UNK N   1      28.988  23.778  -5.526  0.00  0.00     0.046 A 
HETATM    7  C   UNK N   1      27.215  22.549  -6.936  0.00  0.00     0.027 A 
HETATM    8  C   UNK N   1      27.810  21.549  -7.677  0.00  0.00     0.102 A 
HETATM    9  N   UNK N   1      27.028  20.797  -8.511  0.00  0.00    -0.374 N 
ATOM     10  HN  UNK N   1      27.461  20.055  -9.059  1.00  0.00     0.164 HD
HETATM   11  C   UNK N   1      25.680  21.013  -8.629  0.00  0.00     0.090 A 
HETATM   12  C   UNK N   1      25.059  22.037  -7.898  0.00  0.00     0.055 A 
HETATM   13  C   UNK N   1      25.869  22.791  -7.058  0.00  0.00     0.090 A 
HETATM   14  O   UNK N   1      25.519  23.815  -6.316  0.00  0.00    -0.306 OA
ENDROOT
BRANCH   6  15
HETATM   15  C   UNK N   1      30.258  23.030  -5.803  0.00  0.00     0.257 C 
HETATM   16  O   UNK N   1      31.037  23.545  -6.576  0.00  0.00    -0.267 OA
HETATM   17  N   UNK N   1      30.539  21.812  -5.233  0.00  0.00    -0.320 N 
HETATM   18  H   UNK N   1      29.848  21.466  -4.623  0.00  0.00     0.169 HD
BRANCH  17  19
HETATM   19  C   UNK N   1      31.704  20.958  -5.394  0.00  0.00     0.081 A 
HETATM   20  C   UNK N   1      32.108  20.289  -6.607  0.00  0.00     0.080 A 
HETATM   21  C   UNK N   1      33.218  19.438  -6.581  0.00  0.00     0.148 A 
HETATM   22 Cl   UNK N   1      31.423  20.482  -8.213  0.00  0.00    -0.080 Cl
HETATM   23  N   UNK N   1      33.933  19.242  -5.450  0.00  0.00    -0.244 N 
HETATM   24  C   UNK N   1      33.637  19.913  -4.318  0.00  0.00     0.148 A 
HETATM   25  C   UNK N   1      32.548  20.775  -4.265  0.00  0.00     0.080 A 
HETATM   26 Cl   UNK N   1      32.326  21.625  -2.759  0.00  0.00    -0.080 Cl
BRANCH  23  27
HETATM   27  O   UNK N   1      34.962  18.402  -5.461  0.00  0.00    -0.284 OA
ATOM     28  HO  UNK N   1      35.324  18.113  -6.292  1.00  0.00     0.245 HD
ENDBRANCH  23  27
ENDBRANCH  17  19
ENDBRANCH   6  15
BRANCH   3  29
HETATM   29  O   UNK N   1      25.558  26.078  -4.600  0.00  0.00    -0.287 OA
BRANCH  29  30
HETATM   30  C   UNK N   1      25.192  27.323  -5.091  0.00  0.00     0.505 C 
HETATM   31  F   UNK N   1      25.153  28.236  -4.054  0.00  0.00    -0.184 F 
HETATM   32  F   UNK N   1      23.980  27.335  -5.758  0.00  0.00    -0.184 F 
ENDBRANCH  29  30
ENDBRANCH   3  29
TORSDOF 5
ENDMDL
