MODEL 1
REMARK VINA RESULT:      -6.5      0.000      0.000
REMARK  1 active torsions:
REMARK  status: ('A' for Active; 'I' for Inactive)
REMARK    1  A    between atoms: C_10  and  C_3 
ROOT
HETATM    1  C   UNK N   1      35.926  10.323  18.223  0.00  0.00     0.023 A 
HETATM    2  C   UNK N   1      35.959  11.074  17.039  0.00  0.00     0.014 A 
HETATM    3  C   UNK N   1      35.620  12.441  17.067  0.00  0.00     0.004 A 
HETATM    4  C   UNK N   1      35.255  13.039  18.273  0.00  0.00     0.126 A 
HETATM    5  C   UNK N   1      35.218  12.293  19.439  0.00  0.00     0.065 A 
HETATM    6  C   UNK N   1      35.547  10.945  19.421  0.00  0.00     0.047 A 
HETATM    7  C   UNK N   1      35.494  10.230  20.658  0.00  0.00     0.099 C 
HETATM    8  N   UNK N   1      35.432   9.706  21.687  0.00  0.00    -0.191 NA
HETATM    9  F   UNK N   1      34.902  14.346  18.315  0.00  0.00    -0.205 F 
ENDROOT
BRANCH   3  10
HETATM   10  C   UNK N   1      35.516  13.268  15.828  0.00  0.00     0.127 C 
HETATM   11  C   UNK N   1      36.718  14.113  15.344  0.00  0.00     0.036 C 
HETATM   12  C   UNK N   1      36.451  14.338  13.825  0.00  0.00     0.061 C 
HETATM   13  C   UNK N   1      35.521  13.217  13.565  0.00  0.00     0.028 A 
HETATM   14  N   UNK N   1      35.081  12.622  14.634  0.00  0.00    -0.336 N 
HETATM   15  C   UNK N   1      35.008  12.596  12.454  0.00  0.00     0.114 A 
HETATM   16  C   UNK N   1      34.286  11.617  14.247  0.00  0.00     0.183 A 
HETATM   17  N   UNK N   1      34.232  11.571  12.894  0.00  0.00    -0.360 N 
ATOM     18  HN  UNK N   1      33.714  10.904  12.323  1.00  0.00     0.166 HD
ENDBRANCH   3  10
TORSDOF 1
ENDMDL
MODEL 2
REMARK VINA RESULT:      -6.5     12.235     15.808
REMARK  1 active torsions:
REMARK  status: ('A' for Active; 'I' for Inactive)
REMARK    1  A    between atoms: C_10  and  C_3 
ROOT
HETATM    1  C   UNK N   1      27.179  20.255   3.843  0.00  0.00     0.023 A 
HETATM    2  C   UNK N   1      28.123  19.536   4.590  0.00  0.00     0.014 A 
HETATM    3  C   UNK N   1      27.778  18.287   5.141  0.00  0.00     0.004 A 
HETATM    4  C   UNK N   1      26.498  17.771   4.938  0.00  0.00     0.126 A 
HETATM    5  C   UNK N   1      25.567  18.485   4.205  0.00  0.00     0.065 A 
HETATM    6  C   UNK N   1      25.895  19.720   3.661  0.00  0.00     0.047 A 
HETATM    7  C   UNK N   1      24.891  20.406   2.911  0.00  0.00     0.099 C 
HETATM    8  N   UNK N   1      24.039  20.913   2.317  0.00  0.00    -0.191 NA
HETATM    9  F   UNK N   1      26.141  16.582   5.480  0.00  0.00    -0.205 F 
ENDROOT
BRANCH   3  10
HETATM   10  C   UNK N   1      28.692  17.527   6.045  0.00  0.00     0.127 C 
HETATM   11  C   UNK N   1      30.157  17.252   5.632  0.00  0.00     0.036 C 
HETATM   12  C   UNK N   1      30.900  16.987   6.977  0.00  0.00     0.061 C 
HETATM   13  C   UNK N   1      29.964  17.647   7.914  0.00  0.00     0.028 A 
HETATM   14  N   UNK N   1      28.822  17.981   7.391  0.00  0.00    -0.336 N 
HETATM   15  C   UNK N   1      29.997  18.045   9.227  0.00  0.00     0.114 A 
HETATM   16  C   UNK N   1      28.100  18.594   8.336  0.00  0.00     0.183 A 
HETATM   17  N   UNK N   1      28.812  18.657   9.488  0.00  0.00    -0.360 N 
ATOM     18  HN  UNK N   1      28.518  19.077  10.368  1.00  0.00     0.166 HD
ENDBRANCH   3  10
TORSDOF 1
ENDMDL
MODEL 3
REMARK VINA RESULT:      -6.4     11.140     12.907
REMARK  1 active torsions:
REMARK  status: ('A' for Active; 'I' for Inactive)
REMARK    1  A    between atoms: C_10  and  C_3 
ROOT
HETATM    1  C   UNK N   1      32.219  17.466   8.311  0.00  0.00     0.023 A 
HETATM    2  C   UNK N   1      31.159  16.815   7.664  0.00  0.00     0.014 A 
HETATM    3  C   UNK N   1      31.213  16.601   6.273  0.00  0.00     0.004 A 
HETATM    4  C   UNK N   1      32.322  17.036   5.548  0.00  0.00     0.126 A 
HETATM    5  C   UNK N   1      33.364  17.683   6.190  0.00  0.00     0.065 A 
HETATM    6  C   UNK N   1      33.319  17.903   7.560  0.00  0.00     0.047 A 
HETATM    7  C   UNK N   1      34.427  18.573   8.164  0.00  0.00     0.099 C 
HETATM    8  N   UNK N   1      35.351  19.119   8.595  0.00  0.00    -0.191 NA
HETATM    9  F   UNK N   1      32.381  16.860   4.207  0.00  0.00    -0.205 F 
ENDROOT
BRANCH   3  10
HETATM   10  C   UNK N   1      30.069  16.025   5.504  0.00  0.00     0.127 C 
HETATM   11  C   UNK N   1      29.912  14.494   5.358  0.00  0.00     0.036 C 
HETATM   12  C   UNK N   1      28.401  14.285   5.034  0.00  0.00     0.061 C 
HETATM   13  C   UNK N   1      27.855  15.557   5.556  0.00  0.00     0.028 A 
HETATM   14  N   UNK N   1      28.754  16.447   5.856  0.00  0.00    -0.336 N 
HETATM   15  C   UNK N   1      26.609  16.051   5.849  0.00  0.00     0.114 A 
HETATM   16  C   UNK N   1      28.121  17.521   6.344  0.00  0.00     0.183 A 
HETATM   17  N   UNK N   1      26.785  17.298   6.360  0.00  0.00    -0.360 N 
ATOM     18  HN  UNK N   1      26.060  17.935   6.689  1.00  0.00     0.166 HD
ENDBRANCH   3  10
TORSDOF 1
ENDMDL
MODEL 4
REMARK VINA RESULT:      -6.3     12.092     15.557
REMARK  1 active torsions:
REMARK  status: ('A' for Active; 'I' for Inactive)
REMARK    1  A    between atoms: C_10  and  C_3 
ROOT
HETATM    1  C   UNK N   1      25.893  18.578   4.468  0.00  0.00     0.023 A 
HETATM    2  C   UNK N   1      26.753  18.191   5.506  0.00  0.00     0.014 A 
HETATM    3  C   UNK N   1      27.515  19.163   6.184  0.00  0.00     0.004 A 
HETATM    4  C   UNK N   1      27.406  20.506   5.819  0.00  0.00     0.126 A 
HETATM    5  C   UNK N   1      26.560  20.883   4.791  0.00  0.00     0.065 A 
HETATM    6  C   UNK N   1      25.808  19.932   4.114  0.00  0.00     0.047 A 
HETATM    7  C   UNK N   1      24.950  20.385   3.065  0.00  0.00     0.099 C 
HETATM    8  N   UNK N   1      24.277  20.811   2.227  0.00  0.00    -0.191 NA
HETATM    9  F   UNK N   1      28.148  21.451   6.444  0.00  0.00    -0.205 F 
ENDROOT
BRANCH   3  10
HETATM   10  C   UNK N   1      28.537  18.809   7.212  0.00  0.00     0.127 C 
HETATM   11  C   UNK N   1      28.107  18.390   8.638  0.00  0.00     0.036 C 
HETATM   12  C   UNK N   1      29.319  17.581   9.191  0.00  0.00     0.061 C 
HETATM   13  C   UNK N   1      29.972  17.206   7.918  0.00  0.00     0.028 A 
HETATM   14  N   UNK N   1      29.507  17.821   6.871  0.00  0.00    -0.336 N 
HETATM   15  C   UNK N   1      30.951  16.325   7.531  0.00  0.00     0.114 A 
HETATM   16  C   UNK N   1      30.162  17.359   5.798  0.00  0.00     0.183 A 
HETATM   17  N   UNK N   1      31.060  16.419   6.179  0.00  0.00    -0.360 N 
ATOM     18  HN  UNK N   1      31.688  15.891   5.575  1.00  0.00     0.166 HD
ENDBRANCH   3  10
TORSDOF 1
ENDMDL
MODEL 5
REMARK VINA RESULT:      -6.2     22.414     25.619
REMARK  1 active torsions:
REMARK  status: ('A' for Active; 'I' for Inactive)
REMARK    1  A    between atoms: C_10  and  C_3 
ROOT
HETATM    1  C   UNK N   1      30.966  23.933  -4.548  0.00  0.00     0.023 A 
HETATM    2  C   UNK N   1      29.996  24.786  -5.093  0.00  0.00     0.014 A 
HETATM    3  C   UNK N   1      28.714  24.852  -4.512  0.00  0.00     0.004 A 
HETATM    4  C   UNK N   1      28.419  24.068  -3.397  0.00  0.00     0.126 A 
HETATM    5  C   UNK N   1      29.378  23.223  -2.865  0.00  0.00     0.065 A 
HETATM    6  C   UNK N   1      30.643  23.149  -3.432  0.00  0.00     0.047 A 
HETATM    7  C   UNK N   1      31.590  22.260  -2.834  0.00  0.00     0.099 C 
HETATM    8  N   UNK N   1      32.310  21.525  -2.308  0.00  0.00    -0.191 NA
HETATM    9  F   UNK N   1      27.185  24.100  -2.840  0.00  0.00    -0.205 F 
ENDROOT
BRANCH   3  10
HETATM   10  C   UNK N   1      27.600  25.644  -5.113  0.00  0.00     0.127 C 
HETATM   11  C   UNK N   1      26.320  24.941  -5.620  0.00  0.00     0.036 C 
HETATM   12  C   UNK N   1      25.232  26.058  -5.619  0.00  0.00     0.061 C 
HETATM   13  C   UNK N   1      25.847  27.005  -4.663  0.00  0.00     0.028 A 
HETATM   14  N   UNK N   1      27.083  26.738  -4.358  0.00  0.00    -0.336 N 
HETATM   15  C   UNK N   1      25.434  28.110  -3.961  0.00  0.00     0.114 A 
HETATM   16  C   UNK N   1      27.492  27.648  -3.466  0.00  0.00     0.183 A 
HETATM   17  N   UNK N   1      26.481  28.508  -3.193  0.00  0.00    -0.360 N 
ATOM     18  HN  UNK N   1      26.503  29.294  -2.543  1.00  0.00     0.166 HD
ENDBRANCH   3  10
TORSDOF 1
ENDMDL
MODEL 6
REMARK VINA RESULT:      -6.2     27.077     28.367
REMARK  1 active torsions:
REMARK  status: ('A' for Active; 'I' for Inactive)
REMARK    1  A    between atoms: C_10  and  C_3 
ROOT
HETATM    1  C   UNK N   1      27.979  27.577  -4.719  0.00  0.00     0.023 A 
HETATM    2  C   UNK N   1      27.550  26.873  -5.854  0.00  0.00     0.014 A 
HETATM    3  C   UNK N   1      26.176  26.798  -6.153  0.00  0.00     0.004 A 
HETATM    4  C   UNK N   1      25.250  27.424  -5.319  0.00  0.00     0.126 A 
HETATM    5  C   UNK N   1      25.677  28.113  -4.197  0.00  0.00     0.065 A 
HETATM    6  C   UNK N   1      27.029  28.191  -3.891  0.00  0.00     0.047 A 
HETATM    7  C   UNK N   1      27.407  28.919  -2.721  0.00  0.00     0.099 C 
HETATM    8  N   UNK N   1      27.650  29.520  -1.764  0.00  0.00    -0.191 NA
HETATM    9  F   UNK N   1      23.923  27.342  -5.578  0.00  0.00    -0.205 F 
ENDROOT
BRANCH   3  10
HETATM   10  C   UNK N   1      25.642  25.967  -7.274  0.00  0.00     0.127 C 
HETATM   11  C   UNK N   1      26.091  26.229  -8.730  0.00  0.00     0.036 C 
HETATM   12  C   UNK N   1      25.812  24.888  -9.474  0.00  0.00     0.061 C 
HETATM   13  C   UNK N   1      25.781  23.963  -8.319  0.00  0.00     0.028 A 
HETATM   14  N   UNK N   1      25.751  24.550  -7.158  0.00  0.00    -0.336 N 
HETATM   15  C   UNK N   1      25.809  22.603  -8.140  0.00  0.00     0.114 A 
HETATM   16  C   UNK N   1      25.760  23.599  -6.217  0.00  0.00     0.183 A 
HETATM   17  N   UNK N   1      25.807  22.377  -6.800  0.00  0.00    -0.360 N 
ATOM     18  HN  UNK N   1      25.835  21.473  -6.329  1.00  0.00     0.166 HD
ENDBRANCH   3  10
TORSDOF 1
ENDMDL
MODEL 7
REMARK VINA RESULT:      -6.1     13.805     15.751
REMARK  1 active torsions:
REMARK  status: ('A' for Active; 'I' for Inactive)
REMARK    1  A    between atoms: C_10  and  C_3 
ROOT
HETATM    1  C   UNK N   1      21.552  12.392  11.131  0.00  0.00     0.023 A 
HETATM    2  C   UNK N   1      21.227  12.526   9.774  0.00  0.00     0.014 A 
HETATM    3  C   UNK N   1      22.245  12.483   8.802  0.00  0.00     0.004 A 
HETATM    4  C   UNK N   1      23.571  12.305   9.196  0.00  0.00     0.126 A 
HETATM    5  C   UNK N   1      23.889  12.179  10.537  0.00  0.00     0.065 A 
HETATM    6  C   UNK N   1      22.894  12.224  11.504  0.00  0.00     0.047 A 
HETATM    7  C   UNK N   1      23.285  12.084  12.871  0.00  0.00     0.099 C 
HETATM    8  N   UNK N   1      23.663  11.967  13.957  0.00  0.00    -0.191 NA
HETATM    9  F   UNK N   1      24.566  12.285   8.277  0.00  0.00    -0.205 F 
ENDROOT
BRANCH   3  10
HETATM   10  C   UNK N   1      21.984  12.739   7.354  0.00  0.00     0.127 C 
HETATM   11  C   UNK N   1      21.081  11.786   6.537  0.00  0.00     0.036 C 
HETATM   12  C   UNK N   1      20.600  12.643   5.327  0.00  0.00     0.061 C 
HETATM   13  C   UNK N   1      20.816  13.999   5.880  0.00  0.00     0.028 A 
HETATM   14  N   UNK N   1      21.501  14.028   6.985  0.00  0.00    -0.336 N 
HETATM   15  C   UNK N   1      20.445  15.276   5.540  0.00  0.00     0.114 A 
HETATM   16  C   UNK N   1      21.586  15.304   7.382  0.00  0.00     0.183 A 
HETATM   17  N   UNK N   1      20.929  16.101   6.506  0.00  0.00    -0.360 N 
ATOM     18  HN  UNK N   1      20.819  17.113   6.560  1.00  0.00     0.166 HD
ENDBRANCH   3  10
TORSDOF 1
ENDMDL
MODEL 8
REMARK VINA RESULT:      -6.1      7.625     10.507
REMARK  1 active torsions:
REMARK  status: ('A' for Active; 'I' for Inactive)
REMARK    1  A    between atoms: C_10  and  C_3 
ROOT
HETATM    1  C   UNK N   1      33.342  14.911   9.540  0.00  0.00     0.023 A 
HETATM    2  C   UNK N   1      32.339  15.439   8.714  0.00  0.00     0.014 A 
HETATM    3  C   UNK N   1      32.452  16.757   8.230  0.00  0.00     0.004 A 
HETATM    4  C   UNK N   1      33.562  17.528   8.575  0.00  0.00     0.126 A 
HETATM    5  C   UNK N   1      34.547  17.004   9.394  0.00  0.00     0.065 A 
HETATM    6  C   UNK N   1      34.444  15.708   9.879  0.00  0.00     0.047 A 
HETATM    7  C   UNK N   1      35.495  15.224  10.718  0.00  0.00     0.099 C 
HETATM    8  N   UNK N   1      36.374  14.890  11.390  0.00  0.00    -0.191 NA
HETATM    9  F   UNK N   1      33.676  18.805   8.138  0.00  0.00    -0.205 F 
ENDROOT
BRANCH   3  10
HETATM   10  C   UNK N   1      31.367  17.422   7.449  0.00  0.00     0.127 C 
HETATM   11  C   UNK N   1      30.779  16.747   6.188  0.00  0.00     0.036 C 
HETATM   12  C   UNK N   1      29.375  17.401   6.012  0.00  0.00     0.061 C 
HETATM   13  C   UNK N   1      29.153  17.892   7.390  0.00  0.00     0.028 A 
HETATM   14  N   UNK N   1      30.202  17.841   8.156  0.00  0.00    -0.336 N 
HETATM   15  C   UNK N   1      28.087  18.373   8.108  0.00  0.00     0.114 A 
HETATM   16  C   UNK N   1      29.846  18.279   9.370  0.00  0.00     0.183 A 
HETATM   17  N   UNK N   1      28.531  18.607   9.371  0.00  0.00    -0.360 N 
ATOM     18  HN  UNK N   1      27.987  18.957  10.159  1.00  0.00     0.166 HD
ENDBRANCH   3  10
TORSDOF 1
ENDMDL
MODEL 9
REMARK VINA RESULT:      -6.0     22.570     25.804
REMARK  1 active torsions:
REMARK  status: ('A' for Active; 'I' for Inactive)
REMARK    1  A    between atoms: C_10  and  C_3 
ROOT
HETATM    1  C   UNK N   1      30.902  24.500  -3.876  0.00  0.00     0.023 A 
HETATM    2  C   UNK N   1      29.921  25.422  -4.269  0.00  0.00     0.014 A 
HETATM    3  C   UNK N   1      28.573  25.199  -3.926  0.00  0.00     0.004 A 
HETATM    4  C   UNK N   1      28.223  24.062  -3.196  0.00  0.00     0.126 A 
HETATM    5  C   UNK N   1      29.194  23.152  -2.815  0.00  0.00     0.065 A 
HETATM    6  C   UNK N   1      30.525  23.360  -3.151  0.00  0.00     0.047 A 
HETATM    7  C   UNK N   1      31.480  22.386  -2.726  0.00  0.00     0.099 C 
HETATM    8  N   UNK N   1      32.204  21.565  -2.356  0.00  0.00    -0.191 NA
HETATM    9  F   UNK N   1      26.929  23.820  -2.878  0.00  0.00    -0.205 F 
ENDROOT
BRANCH   3  10
HETATM   10  C   UNK N   1      27.465  26.073  -4.413  0.00  0.00     0.127 C 
HETATM   11  C   UNK N   1      27.705  27.580  -4.664  0.00  0.00     0.036 C 
HETATM   12  C   UNK N   1      26.579  27.996  -5.658  0.00  0.00     0.061 C 
HETATM   13  C   UNK N   1      26.239  26.670  -6.220  0.00  0.00     0.028 A 
HETATM   14  N   UNK N   1      26.765  25.664  -5.586  0.00  0.00    -0.336 N 
HETATM   15  C   UNK N   1      25.519  26.206  -7.292  0.00  0.00     0.114 A 
HETATM   16  C   UNK N   1      26.404  24.543  -6.222  0.00  0.00     0.183 A 
HETATM   17  N   UNK N   1      25.636  24.852  -7.294  0.00  0.00    -0.360 N 
ATOM     18  HN  UNK N   1      25.229  24.201  -7.966  1.00  0.00     0.166 HD
ENDBRANCH   3  10
TORSDOF 1
ENDMDL
