MODEL 1
REMARK VINA RESULT:      -9.0      0.000      0.000
REMARK  4 active torsions:
REMARK  status: ('A' for Active; 'I' for Inactive)
REMARK       I    between atoms: N_2  and  C_3 
REMARK    1  A    between atoms: C_3  and  C_5 
REMARK    2  A    between atoms: C_8  and  C_12 
REMARK    3  A    between atoms: C_20  and  C_24 
REMARK    4  A    between atoms: C_24  and  C_25 
ROOT
HETATM    1  C   UNK N   1      34.951  14.730  10.197  0.00  0.00     0.075 A 
HETATM    2  C   UNK N   1      36.287  15.050   9.852  0.00  0.00     0.138 A 
HETATM    3  N   UNK N   1      37.321  14.412  10.487  0.00  0.00    -0.198 N 
ATOM      4  HN  UNK N   1      38.290  14.610  10.238  1.00  0.00     0.183 HD
HETATM    5  C   UNK N   1      37.022  13.507  11.456  0.00  0.00     0.703 A 
HETATM    6  N   UNK N   1      37.901  12.823  12.210  0.00  0.00    -0.198 N 
ATOM      7  HN  UNK N   1      38.919  12.838  12.149  1.00  0.00     0.183 HD
HETATM    8  C   UNK N   1      37.127  12.106  13.075  0.00  0.00     0.134 A 
HETATM    9  C   UNK N   1      35.789  12.382  12.805  0.00  0.00     0.072 A 
HETATM   10  N   UNK N   1      35.761  13.247  11.783  0.00  0.00    -0.088 N 
HETATM   11  N   UNK N   1      34.735  13.813  11.178  0.00  0.00    -0.278 N 
ATOM     12  HN  UNK N   1      33.783  13.563  11.444  1.00  0.00     0.188 HD
ENDROOT
BRANCH   1  13
HETATM   13  C   UNK N   1      33.769  15.341   9.573  0.00  0.00    -0.004 A 
HETATM   14  C   UNK N   1      32.552  14.673   9.375  0.00  0.00     0.015 A 
HETATM   15  C   UNK N   1      31.505  15.328   8.700  0.00  0.00     0.021 A 
HETATM   16  C   UNK N   1      31.662  16.656   8.245  0.00  0.00     0.070 A 
HETATM   17  C   UNK N   1      32.877  17.318   8.491  0.00  0.00     0.133 A 
HETATM   18  C   UNK N   1      33.905  16.656   9.129  0.00  0.00     0.057 A 
HETATM   19  F   UNK N   1      33.087  18.599   8.102  0.00  0.00    -0.205 F 
BRANCH  16  20
HETATM   20  C   UNK N   1      30.566  17.334   7.507  0.00  0.00     0.254 C 
HETATM   21  N   UNK N   1      29.495  17.827   8.181  0.00  0.00    -0.361 N 
HETATM   22  C   UNK N   1      28.415  18.516   7.525  0.00  0.00     0.149 C 
HETATM   23  H   UNK N   1      29.457  17.709   9.158  0.00  0.00     0.162 HD
HETATM   24  O   UNK N   1      30.639  17.466   6.293  0.00  0.00    -0.268 OA
ENDBRANCH  16  20
ENDBRANCH   1  13
BRANCH   9  25
HETATM   25  C   UNK N   1      34.618  11.839  13.605  0.00  0.00     0.100 C 
BRANCH  25  26
HETATM   26  C   UNK N   1      34.801  11.417  15.044  0.00  0.00    -0.051 A 
HETATM   27  C   UNK N   1      34.738  10.070  15.439  0.00  0.00     0.010 A 
HETATM   28  C   UNK N   1      34.877   9.717  16.789  0.00  0.00     0.031 A 
HETATM   29  C   UNK N   1      35.033  10.709  17.759  0.00  0.00     0.042 A 
HETATM   30  C   UNK N   1      35.044  12.065  17.375  0.00  0.00    -0.009 A 
HETATM   31  N   UNK N   1      35.157  10.373  19.073  0.00  0.00    -0.365 N 
HETATM   32  C   UNK N   1      34.935  12.411  16.023  0.00  0.00     0.021 A 
HETATM   33  C   UNK N   1      35.160  13.051  18.354  0.00  0.00     0.015 A 
HETATM   34  C   UNK N   1      35.274  12.683  19.697  0.00  0.00     0.018 A 
HETATM   35  C   UNK N   1      35.280  11.326  20.039  0.00  0.00     0.088 A 
ATOM     36  HN  UNK N   1      35.157   9.389  19.339  1.00  0.00     0.165 HD
ENDBRANCH  25  26
ENDBRANCH   9  25
TORSDOF 4
ENDMDL
MODEL 2
REMARK VINA RESULT:      -8.9     11.571     16.404
REMARK  4 active torsions:
REMARK  status: ('A' for Active; 'I' for Inactive)
REMARK       I    between atoms: N_2  and  C_3 
REMARK    1  A    between atoms: C_3  and  C_5 
REMARK    2  A    between atoms: C_8  and  C_12 
REMARK    3  A    between atoms: C_20  and  C_24 
REMARK    4  A    between atoms: C_24  and  C_25 
ROOT
HETATM    1  C   UNK N   1      20.420  15.446   4.440  0.00  0.00     0.075 A 
HETATM    2  C   UNK N   1      19.632  14.887   3.404  0.00  0.00     0.138 A 
HETATM    3  N   UNK N   1      19.455  15.584   2.238  0.00  0.00    -0.198 N 
ATOM      4  HN  UNK N   1      18.911  15.191   1.470  1.00  0.00     0.183 HD
HETATM    5  C   UNK N   1      20.025  16.813   2.129  0.00  0.00     0.703 A 
HETATM    6  N   UNK N   1      19.921  17.653   1.083  0.00  0.00    -0.198 N 
ATOM      7  HN  UNK N   1      19.443  17.489   0.197  1.00  0.00     0.183 HD
HETATM    8  C   UNK N   1      20.598  18.772   1.472  0.00  0.00     0.134 A 
HETATM    9  C   UNK N   1      21.098  18.564   2.755  0.00  0.00     0.072 A 
HETATM   10  N   UNK N   1      20.734  17.329   3.127  0.00  0.00    -0.088 N 
HETATM   11  N   UNK N   1      20.957  16.682   4.253  0.00  0.00    -0.278 N 
ATOM     12  HN  UNK N   1      21.530  17.106   4.982  1.00  0.00     0.188 HD
ENDROOT
BRANCH   1  13
HETATM   13  C   UNK N   1      20.687  14.782   5.724  0.00  0.00    -0.004 A 
HETATM   14  C   UNK N   1      20.893  13.402   5.865  0.00  0.00     0.015 A 
HETATM   15  C   UNK N   1      21.069  12.857   7.151  0.00  0.00     0.021 A 
HETATM   16  C   UNK N   1      21.063  13.689   8.292  0.00  0.00     0.070 A 
HETATM   17  C   UNK N   1      20.893  15.074   8.121  0.00  0.00     0.133 A 
HETATM   18  C   UNK N   1      20.696  15.593   6.858  0.00  0.00     0.057 A 
HETATM   19  F   UNK N   1      20.900  15.932   9.170  0.00  0.00    -0.205 F 
BRANCH  16  20
HETATM   20  C   UNK N   1      21.217  13.107   9.650  0.00  0.00     0.254 C 
HETATM   21  N   UNK N   1      22.441  12.708  10.084  0.00  0.00    -0.361 N 
HETATM   22  C   UNK N   1      22.659  12.161  11.397  0.00  0.00     0.149 C 
HETATM   23  H   UNK N   1      23.210  12.798   9.475  0.00  0.00     0.162 HD
HETATM   24  O   UNK N   1      20.245  13.008  10.385  0.00  0.00    -0.268 OA
ENDBRANCH  16  20
ENDBRANCH   1  13
BRANCH   9  25
HETATM   25  C   UNK N   1      21.843  19.605   3.571  0.00  0.00     0.100 C 
BRANCH  25  26
HETATM   26  C   UNK N   1      23.352  19.604   3.623  0.00  0.00    -0.051 A 
HETATM   27  C   UNK N   1      24.125  20.524   2.893  0.00  0.00     0.010 A 
HETATM   28  C   UNK N   1      25.525  20.471   2.936  0.00  0.00     0.031 A 
HETATM   29  C   UNK N   1      26.164  19.470   3.672  0.00  0.00     0.042 A 
HETATM   30  C   UNK N   1      25.395  18.512   4.362  0.00  0.00    -0.009 A 
HETATM   31  N   UNK N   1      27.524  19.406   3.708  0.00  0.00    -0.365 N 
HETATM   32  C   UNK N   1      23.998  18.587   4.341  0.00  0.00     0.021 A 
HETATM   33  C   UNK N   1      26.042  17.492   5.060  0.00  0.00     0.015 A 
HETATM   34  C   UNK N   1      27.438  17.441   5.074  0.00  0.00     0.018 A 
HETATM   35  C   UNK N   1      28.168  18.421   4.394  0.00  0.00     0.088 A 
ATOM     36  HN  UNK N   1      28.071  20.110   3.213  1.00  0.00     0.165 HD
ENDBRANCH  25  26
ENDBRANCH   9  25
TORSDOF 4
ENDMDL
MODEL 3
REMARK VINA RESULT:      -8.8      7.557     11.547
REMARK  4 active torsions:
REMARK  status: ('A' for Active; 'I' for Inactive)
REMARK       I    between atoms: N_2  and  C_3 
REMARK    1  A    between atoms: C_3  and  C_5 
REMARK    2  A    between atoms: C_8  and  C_12 
REMARK    3  A    between atoms: C_20  and  C_24 
REMARK    4  A    between atoms: C_24  and  C_25 
ROOT
HETATM    1  C   UNK N   1      28.502  18.559   6.965  0.00  0.00     0.075 A 
HETATM    2  C   UNK N   1      28.566  18.959   8.322  0.00  0.00     0.138 A 
HETATM    3  N   UNK N   1      29.516  18.410   9.144  0.00  0.00    -0.198 N 
ATOM      4  HN  UNK N   1      29.596  18.700  10.119  1.00  0.00     0.183 HD
HETATM    5  C   UNK N   1      30.351  17.470   8.627  0.00  0.00     0.703 A 
HETATM    6  N   UNK N   1      31.307  16.797   9.292  0.00  0.00    -0.198 N 
ATOM      7  HN  UNK N   1      31.588  16.912  10.265  1.00  0.00     0.183 HD
HETATM    8  C   UNK N   1      31.818  15.927   8.373  0.00  0.00     0.134 A 
HETATM    9  C   UNK N   1      31.146  16.113   7.166  0.00  0.00     0.072 A 
HETATM   10  N   UNK N   1      30.250  17.090   7.358  0.00  0.00    -0.088 N 
HETATM   11  N   UNK N   1      29.373  17.613   6.524  0.00  0.00    -0.278 N 
ATOM     12  HN  UNK N   1      29.349  17.309   5.550  1.00  0.00     0.188 HD
ENDROOT
BRANCH   1  13
HETATM   13  C   UNK N   1      27.534  19.091   5.994  0.00  0.00    -0.004 A 
HETATM   14  C   UNK N   1      27.033  20.400   6.023  0.00  0.00     0.015 A 
HETATM   15  C   UNK N   1      26.054  20.787   5.088  0.00  0.00     0.021 A 
HETATM   16  C   UNK N   1      25.594  19.877   4.110  0.00  0.00     0.070 A 
HETATM   17  C   UNK N   1      26.140  18.582   4.077  0.00  0.00     0.133 A 
HETATM   18  C   UNK N   1      27.080  18.207   5.015  0.00  0.00     0.057 A 
HETATM   19  F   UNK N   1      25.761  17.667   3.153  0.00  0.00    -0.205 F 
BRANCH  16  20
HETATM   20  C   UNK N   1      24.538  20.278   3.145  0.00  0.00     0.254 C 
HETATM   21  N   UNK N   1      23.242  19.948   3.379  0.00  0.00    -0.361 N 
HETATM   22  C   UNK N   1      22.173  20.329   2.495  0.00  0.00     0.149 C 
HETATM   23  H   UNK N   1      23.025  19.427   4.186  0.00  0.00     0.162 HD
HETATM   24  O   UNK N   1      24.836  20.924   2.150  0.00  0.00    -0.268 OA
ENDBRANCH  16  20
ENDBRANCH   1  13
BRANCH   9  25
HETATM   25  C   UNK N   1      31.369  15.279   5.917  0.00  0.00     0.100 C 
BRANCH  25  26
HETATM   26  C   UNK N   1      30.321  15.230   4.831  0.00  0.00    -0.051 A 
HETATM   27  C   UNK N   1      30.447  15.965   3.639  0.00  0.00     0.010 A 
HETATM   28  C   UNK N   1      29.438  15.924   2.667  0.00  0.00     0.031 A 
HETATM   29  C   UNK N   1      28.274  15.186   2.898  0.00  0.00     0.042 A 
HETATM   30  C   UNK N   1      28.119  14.489   4.113  0.00  0.00    -0.009 A 
HETATM   31  N   UNK N   1      27.285  15.152   1.962  0.00  0.00    -0.365 N 
HETATM   32  C   UNK N   1      29.142  14.509   5.068  0.00  0.00     0.021 A 
HETATM   33  C   UNK N   1      26.937  13.788   4.352  0.00  0.00     0.015 A 
HETATM   34  C   UNK N   1      25.932  13.777   3.382  0.00  0.00     0.018 A 
HETATM   35  C   UNK N   1      26.129  14.463   2.179  0.00  0.00     0.088 A 
ATOM     36  HN  UNK N   1      27.412  15.651   1.083  1.00  0.00     0.165 HD
ENDBRANCH  25  26
ENDBRANCH   9  25
TORSDOF 4
ENDMDL
MODEL 4
REMARK VINA RESULT:      -8.8      5.693      8.860
REMARK  4 active torsions:
REMARK  status: ('A' for Active; 'I' for Inactive)
REMARK       I    between atoms: N_2  and  C_3 
REMARK    1  A    between atoms: C_3  and  C_5 
REMARK    2  A    between atoms: C_8  and  C_12 
REMARK    3  A    between atoms: C_20  and  C_24 
REMARK    4  A    between atoms: C_24  and  C_25 
ROOT
HETATM    1  C   UNK N   1      29.440  16.473   4.838  0.00  0.00     0.075 A 
HETATM    2  C   UNK N   1      28.720  15.444   4.183  0.00  0.00     0.138 A 
HETATM    3  N   UNK N   1      29.397  14.370   3.665  0.00  0.00    -0.198 N 
ATOM      4  HN  UNK N   1      28.897  13.606   3.209  1.00  0.00     0.183 HD
HETATM    5  C   UNK N   1      30.752  14.348   3.774  0.00  0.00     0.703 A 
HETATM    6  N   UNK N   1      31.578  13.404   3.288  0.00  0.00    -0.198 N 
ATOM      7  HN  UNK N   1      31.324  12.542   2.806  1.00  0.00     0.183 HD
HETATM    8  C   UNK N   1      32.830  13.857   3.586  0.00  0.00     0.134 A 
HETATM    9  C   UNK N   1      32.714  15.073   4.255  0.00  0.00     0.072 A 
HETATM   10  N   UNK N   1      31.405  15.341   4.366  0.00  0.00    -0.088 N 
HETATM   11  N   UNK N   1      30.795  16.377   4.906  0.00  0.00    -0.278 N 
ATOM     12  HN  UNK N   1      31.336  17.103   5.374  1.00  0.00     0.188 HD
ENDROOT
BRANCH   1  13
HETATM   13  C   UNK N   1      28.816  17.660   5.441  0.00  0.00    -0.004 A 
HETATM   14  C   UNK N   1      28.829  17.941   6.815  0.00  0.00     0.015 A 
HETATM   15  C   UNK N   1      28.139  19.068   7.297  0.00  0.00     0.021 A 
HETATM   16  C   UNK N   1      27.456  19.928   6.408  0.00  0.00     0.070 A 
HETATM   17  C   UNK N   1      27.491  19.648   5.032  0.00  0.00     0.133 A 
HETATM   18  C   UNK N   1      28.149  18.525   4.574  0.00  0.00     0.057 A 
HETATM   19  F   UNK N   1      26.878  20.443   4.121  0.00  0.00    -0.205 F 
BRANCH  16  20
HETATM   20  C   UNK N   1      26.703  21.100   6.923  0.00  0.00     0.254 C 
HETATM   21  N   UNK N   1      25.997  21.001   8.080  0.00  0.00    -0.361 N 
HETATM   22  C   UNK N   1      25.268  22.107   8.642  0.00  0.00     0.149 C 
HETATM   23  H   UNK N   1      25.985  20.137   8.552  0.00  0.00     0.162 HD
HETATM   24  O   UNK N   1      26.736  22.161   6.316  0.00  0.00    -0.268 OA
ENDBRANCH  16  20
ENDBRANCH   1  13
BRANCH   9  25
HETATM   25  C   UNK N   1      33.886  15.937   4.685  0.00  0.00     0.100 C 
BRANCH  25  26
HETATM   26  C   UNK N   1      34.073  16.309   6.137  0.00  0.00    -0.051 A 
HETATM   27  C   UNK N   1      33.726  17.577   6.633  0.00  0.00     0.010 A 
HETATM   28  C   UNK N   1      33.946  17.901   7.979  0.00  0.00     0.031 A 
HETATM   29  C   UNK N   1      34.557  16.977   8.829  0.00  0.00     0.042 A 
HETATM   30  C   UNK N   1      34.956  15.722   8.325  0.00  0.00    -0.009 A 
HETATM   31  N   UNK N   1      34.785  17.289  10.135  0.00  0.00    -0.365 N 
HETATM   32  C   UNK N   1      34.707  15.393   6.989  0.00  0.00     0.021 A 
HETATM   33  C   UNK N   1      35.602  14.821   9.171  0.00  0.00     0.015 A 
HETATM   34  C   UNK N   1      35.835  15.169  10.504  0.00  0.00     0.018 A 
HETATM   35  C   UNK N   1      35.407  16.415  10.974  0.00  0.00     0.088 A 
ATOM     36  HN  UNK N   1      34.484  18.196  10.491  1.00  0.00     0.165 HD
ENDBRANCH  25  26
ENDBRANCH   9  25
TORSDOF 4
ENDMDL
MODEL 5
REMARK VINA RESULT:      -8.7      6.156     11.659
REMARK  4 active torsions:
REMARK  status: ('A' for Active; 'I' for Inactive)
REMARK       I    between atoms: N_2  and  C_3 
REMARK    1  A    between atoms: C_3  and  C_5 
REMARK    2  A    between atoms: C_8  and  C_12 
REMARK    3  A    between atoms: C_20  and  C_24 
REMARK    4  A    between atoms: C_24  and  C_25 
ROOT
HETATM    1  C   UNK N   1      27.030  17.845   5.893  0.00  0.00     0.075 A 
HETATM    2  C   UNK N   1      26.542  19.042   5.315  0.00  0.00     0.138 A 
HETATM    3  N   UNK N   1      25.254  19.092   4.850  0.00  0.00    -0.198 N 
ATOM      4  HN  UNK N   1      24.874  19.951   4.451  1.00  0.00     0.183 HD
HETATM    5  C   UNK N   1      24.494  17.969   4.935  0.00  0.00     0.703 A 
HETATM    6  N   UNK N   1      23.232  17.821   4.493  0.00  0.00    -0.198 N 
ATOM      7  HN  UNK N   1      22.634  18.530   4.068  1.00  0.00     0.183 HD
HETATM    8  C   UNK N   1      22.932  16.514   4.739  0.00  0.00     0.134 A 
HETATM    9  C   UNK N   1      24.037  15.910   5.335  0.00  0.00     0.072 A 
HETATM   10  N   UNK N   1      24.985  16.849   5.454  0.00  0.00    -0.088 N 
HETATM   11  N   UNK N   1      26.207  16.764   5.942  0.00  0.00    -0.278 N 
ATOM     12  HN  UNK N   1      26.533  15.890   6.355  1.00  0.00     0.188 HD
ENDROOT
BRANCH   1  13
HETATM   13  C   UNK N   1      28.388  17.684   6.435  0.00  0.00    -0.004 A 
HETATM   14  C   UNK N   1      29.418  16.995   5.779  0.00  0.00     0.015 A 
HETATM   15  C   UNK N   1      30.662  16.838   6.419  0.00  0.00     0.021 A 
HETATM   16  C   UNK N   1      30.886  17.387   7.700  0.00  0.00     0.070 A 
HETATM   17  C   UNK N   1      29.851  18.108   8.321  0.00  0.00     0.133 A 
HETATM   18  C   UNK N   1      28.627  18.233   7.695  0.00  0.00     0.057 A 
HETATM   19  F   UNK N   1      30.005  18.680   9.539  0.00  0.00    -0.205 F 
BRANCH  16  20
HETATM   20  C   UNK N   1      32.189  17.193   8.386  0.00  0.00     0.254 C 
HETATM   21  N   UNK N   1      32.445  16.033   9.045  0.00  0.00    -0.361 N 
HETATM   22  C   UNK N   1      33.697  15.776   9.706  0.00  0.00     0.149 C 
HETATM   23  H   UNK N   1      31.746  15.340   9.069  0.00  0.00     0.162 HD
HETATM   24  O   UNK N   1      33.040  18.070   8.339  0.00  0.00    -0.268 OA
ENDBRANCH  16  20
ENDBRANCH   1  13
BRANCH   9  25
HETATM   25  C   UNK N   1      24.128  14.437   5.690  0.00  0.00     0.100 C 
BRANCH  25  26
HETATM   26  C   UNK N   1      24.061  13.990   7.131  0.00  0.00    -0.051 A 
HETATM   27  C   UNK N   1      25.215  13.828   7.917  0.00  0.00     0.010 A 
HETATM   28  C   UNK N   1      25.119  13.376   9.240  0.00  0.00     0.031 A 
HETATM   29  C   UNK N   1      23.874  13.039   9.775  0.00  0.00     0.042 A 
HETATM   30  C   UNK N   1      22.718  13.148   8.975  0.00  0.00    -0.009 A 
HETATM   31  N   UNK N   1      23.775  12.588  11.057  0.00  0.00    -0.365 N 
HETATM   32  C   UNK N   1      22.816  13.627   7.665  0.00  0.00     0.021 A 
HETATM   33  C   UNK N   1      21.484  12.769   9.504  0.00  0.00     0.015 A 
HETATM   34  C   UNK N   1      21.409  12.300  10.817  0.00  0.00     0.018 A 
HETATM   35  C   UNK N   1      22.574  12.224  11.588  0.00  0.00     0.088 A 
ATOM     36  HN  UNK N   1      24.616  12.522  11.629  1.00  0.00     0.165 HD
ENDBRANCH  25  26
ENDBRANCH   9  25
TORSDOF 4
ENDMDL
MODEL 6
REMARK VINA RESULT:      -8.7      9.101     13.804
REMARK  4 active torsions:
REMARK  status: ('A' for Active; 'I' for Inactive)
REMARK       I    between atoms: N_2  and  C_3 
REMARK    1  A    between atoms: C_3  and  C_5 
REMARK    2  A    between atoms: C_8  and  C_12 
REMARK    3  A    between atoms: C_20  and  C_24 
REMARK    4  A    between atoms: C_24  and  C_25 
ROOT
HETATM    1  C   UNK N   1      22.715  17.691   5.140  0.00  0.00     0.075 A 
HETATM    2  C   UNK N   1      21.656  18.501   4.661  0.00  0.00     0.138 A 
HETATM    3  N   UNK N   1      21.926  19.520   3.786  0.00  0.00    -0.198 N 
ATOM      4  HN  UNK N   1      21.177  20.101   3.410  1.00  0.00     0.183 HD
HETATM    5  C   UNK N   1      23.220  19.736   3.429  0.00  0.00     0.703 A 
HETATM    6  N   UNK N   1      23.674  20.712   2.621  0.00  0.00    -0.198 N 
ATOM      7  HN  UNK N   1      23.127  21.409   2.117  1.00  0.00     0.183 HD
HETATM    8  C   UNK N   1      25.030  20.559   2.626  0.00  0.00     0.134 A 
HETATM    9  C   UNK N   1      25.351  19.478   3.445  0.00  0.00     0.072 A 
HETATM   10  N   UNK N   1      24.199  18.982   3.916  0.00  0.00    -0.088 N 
HETATM   11  N   UNK N   1      23.982  17.973   4.735  0.00  0.00    -0.278 N 
ATOM     12  HN  UNK N   1      24.762  17.404   5.064  1.00  0.00     0.188 HD
ENDROOT
BRANCH   1  13
HETATM   13  C   UNK N   1      22.537  16.566   6.070  0.00  0.00    -0.004 A 
HETATM   14  C   UNK N   1      23.381  15.447   6.117  0.00  0.00     0.015 A 
HETATM   15  C   UNK N   1      23.079  14.390   6.996  0.00  0.00     0.021 A 
HETATM   16  C   UNK N   1      21.952  14.459   7.844  0.00  0.00     0.070 A 
HETATM   17  C   UNK N   1      21.143  15.608   7.806  0.00  0.00     0.133 A 
HETATM   18  C   UNK N   1      21.434  16.626   6.921  0.00  0.00     0.057 A 
HETATM   19  F   UNK N   1      20.060  15.751   8.608  0.00  0.00    -0.205 F 
BRANCH  16  20
HETATM   20  C   UNK N   1      21.618  13.329   8.748  0.00  0.00     0.254 C 
HETATM   21  N   UNK N   1      21.880  13.422  10.078  0.00  0.00    -0.361 N 
HETATM   22  C   UNK N   1      21.557  12.372  11.007  0.00  0.00     0.149 C 
HETATM   23  H   UNK N   1      22.307  14.241  10.419  0.00  0.00     0.162 HD
HETATM   24  O   UNK N   1      21.088  12.323   8.298  0.00  0.00    -0.268 OA
ENDBRANCH  16  20
ENDBRANCH   1  13
BRANCH   9  25
HETATM   25  C   UNK N   1      26.765  19.036   3.775  0.00  0.00     0.100 C 
BRANCH  25  26
HETATM   26  C   UNK N   1      27.257  19.042   5.203  0.00  0.00    -0.051 A 
HETATM   27  C   UNK N   1      26.906  20.057   6.108  0.00  0.00     0.010 A 
HETATM   28  C   UNK N   1      27.410  20.051   7.416  0.00  0.00     0.031 A 
HETATM   29  C   UNK N   1      28.305  19.056   7.816  0.00  0.00     0.042 A 
HETATM   30  C   UNK N   1      28.703  18.065   6.896  0.00  0.00    -0.009 A 
HETATM   31  N   UNK N   1      28.808  19.051   9.082  0.00  0.00    -0.365 N 
HETATM   32  C   UNK N   1      28.174  18.058   5.601  0.00  0.00     0.021 A 
HETATM   33  C   UNK N   1      29.628  17.100   7.292  0.00  0.00     0.015 A 
HETATM   34  C   UNK N   1      30.138  17.122   8.592  0.00  0.00     0.018 A 
HETATM   35  C   UNK N   1      29.705  18.108   9.484  0.00  0.00     0.088 A 
ATOM     36  HN  UNK N   1      28.505  19.767   9.742  1.00  0.00     0.165 HD
ENDBRANCH  25  26
ENDBRANCH   9  25
TORSDOF 4
ENDMDL
MODEL 7
REMARK VINA RESULT:      -8.6      3.739      9.269
REMARK  4 active torsions:
REMARK  status: ('A' for Active; 'I' for Inactive)
REMARK       I    between atoms: N_2  and  C_3 
REMARK    1  A    between atoms: C_3  and  C_5 
REMARK    2  A    between atoms: C_8  and  C_12 
REMARK    3  A    between atoms: C_20  and  C_24 
REMARK    4  A    between atoms: C_24  and  C_25 
ROOT
HETATM    1  C   UNK N   1      34.723  13.404   7.311  0.00  0.00     0.075 A 
HETATM    2  C   UNK N   1      34.708  12.220   6.534  0.00  0.00     0.138 A 
HETATM    3  N   UNK N   1      34.440  12.296   5.192  0.00  0.00    -0.198 N 
ATOM      4  HN  UNK N   1      34.447  11.459   4.608  1.00  0.00     0.183 HD
HETATM    5  C   UNK N   1      34.166  13.515   4.657  0.00  0.00     0.703 A 
HETATM    6  N   UNK N   1      33.839  13.772   3.378  0.00  0.00    -0.198 N 
ATOM      7  HN  UNK N   1      33.788  13.111   2.603  1.00  0.00     0.183 HD
HETATM    8  C   UNK N   1      33.592  15.113   3.349  0.00  0.00     0.134 A 
HETATM    9  C   UNK N   1      33.787  15.628   4.629  0.00  0.00     0.072 A 
HETATM   10  N   UNK N   1      34.157  14.607   5.414  0.00  0.00    -0.088 N 
HETATM   11  N   UNK N   1      34.439  14.586   6.701  0.00  0.00    -0.278 N 
ATOM     12  HN  UNK N   1      34.445  15.453   7.238  1.00  0.00     0.188 HD
ENDROOT
BRANCH   1  13
HETATM   13  C   UNK N   1      35.011  13.441   8.753  0.00  0.00    -0.004 A 
HETATM   14  C   UNK N   1      35.428  12.328   9.498  0.00  0.00     0.015 A 
HETATM   15  C   UNK N   1      35.608  12.455  10.888  0.00  0.00     0.021 A 
HETATM   16  C   UNK N   1      35.395  13.694  11.531  0.00  0.00     0.070 A 
HETATM   17  C   UNK N   1      35.016  14.804  10.757  0.00  0.00     0.133 A 
HETATM   18  C   UNK N   1      34.818  14.662   9.399  0.00  0.00     0.057 A 
HETATM   19  F   UNK N   1      34.817  16.028  11.305  0.00  0.00    -0.205 F 
BRANCH  16  20
HETATM   20  C   UNK N   1      35.555  13.817  13.003  0.00  0.00     0.254 C 
HETATM   21  N   UNK N   1      36.644  14.444  13.518  0.00  0.00    -0.361 N 
HETATM   22  C   UNK N   1      36.842  14.617  14.933  0.00  0.00     0.149 C 
HETATM   23  H   UNK N   1      37.324  14.795  12.899  0.00  0.00     0.162 HD
HETATM   24  O   UNK N   1      34.694  13.373  13.749  0.00  0.00    -0.268 OA
ENDBRANCH  16  20
ENDBRANCH   1  13
BRANCH   9  25
HETATM   25  C   UNK N   1      33.534  17.070   5.027  0.00  0.00     0.100 C 
BRANCH  25  26
HETATM   26  C   UNK N   1      32.694  17.395   6.240  0.00  0.00    -0.051 A 
HETATM   27  C   UNK N   1      33.266  17.824   7.450  0.00  0.00     0.010 A 
HETATM   28  C   UNK N   1      32.459  18.082   8.567  0.00  0.00     0.031 A 
HETATM   29  C   UNK N   1      31.080  17.870   8.498  0.00  0.00     0.042 A 
HETATM   30  C   UNK N   1      30.507  17.390   7.303  0.00  0.00    -0.009 A 
HETATM   31  N   UNK N   1      30.292  18.108   9.583  0.00  0.00    -0.365 N 
HETATM   32  C   UNK N   1      31.312  17.163   6.181  0.00  0.00     0.021 A 
HETATM   33  C   UNK N   1      29.135  17.143   7.255  0.00  0.00     0.015 A 
HETATM   34  C   UNK N   1      28.350  17.384   8.385  0.00  0.00     0.018 A 
HETATM   35  C   UNK N   1      28.950  17.880   9.547  0.00  0.00     0.088 A 
ATOM     36  HN  UNK N   1      30.716  18.465  10.439  1.00  0.00     0.165 HD
ENDBRANCH  25  26
ENDBRANCH   9  25
TORSDOF 4
ENDMDL
MODEL 8
REMARK VINA RESULT:      -8.5     10.642     14.812
REMARK  4 active torsions:
REMARK  status: ('A' for Active; 'I' for Inactive)
REMARK       I    between atoms: N_2  and  C_3 
REMARK    1  A    between atoms: C_3  and  C_5 
REMARK    2  A    between atoms: C_8  and  C_12 
REMARK    3  A    between atoms: C_20  and  C_24 
REMARK    4  A    between atoms: C_24  and  C_25 
ROOT
HETATM    1  C   UNK N   1      23.929  19.320   3.609  0.00  0.00     0.075 A 
HETATM    2  C   UNK N   1      23.492  20.515   2.986  0.00  0.00     0.138 A 
HETATM    3  N   UNK N   1      22.172  20.657   2.647  0.00  0.00    -0.198 N 
ATOM      4  HN  UNK N   1      21.830  21.518   2.219  1.00  0.00     0.183 HD
HETATM    5  C   UNK N   1      21.327  19.621   2.896  0.00  0.00     0.703 A 
HETATM    6  N   UNK N   1      20.018  19.566   2.592  0.00  0.00    -0.198 N 
ATOM      7  HN  UNK N   1      19.444  20.297   2.173  1.00  0.00     0.183 HD
HETATM    8  C   UNK N   1      19.629  18.314   2.971  0.00  0.00     0.134 A 
HETATM    9  C   UNK N   1      20.732  17.650   3.503  0.00  0.00     0.072 A 
HETATM   10  N   UNK N   1      21.768  18.499   3.453  0.00  0.00    -0.088 N 
HETATM   11  N   UNK N   1      23.021  18.330   3.825  0.00  0.00    -0.278 N 
ATOM     12  HN  UNK N   1      23.310  17.461   4.273  1.00  0.00     0.188 HD
ENDROOT
BRANCH   1  13
HETATM   13  C   UNK N   1      25.316  19.067   4.027  0.00  0.00    -0.004 A 
HETATM   14  C   UNK N   1      26.368  19.976   3.843  0.00  0.00     0.015 A 
HETATM   15  C   UNK N   1      27.674  19.605   4.215  0.00  0.00     0.021 A 
HETATM   16  C   UNK N   1      27.927  18.340   4.790  0.00  0.00     0.070 A 
HETATM   17  C   UNK N   1      26.850  17.462   5.000  0.00  0.00     0.133 A 
HETATM   18  C   UNK N   1      25.578  17.827   4.607  0.00  0.00     0.057 A 
HETATM   19  F   UNK N   1      27.017  16.243   5.567  0.00  0.00    -0.205 F 
BRANCH  16  20
HETATM   20  C   UNK N   1      29.311  17.940   5.152  0.00  0.00     0.254 C 
HETATM   21  N   UNK N   1      30.270  17.864   4.193  0.00  0.00    -0.361 N 
HETATM   22  C   UNK N   1      31.633  17.507   4.486  0.00  0.00     0.149 C 
HETATM   23  H   UNK N   1      30.022  18.062   3.261  0.00  0.00     0.162 HD
HETATM   24  O   UNK N   1      29.591  17.700   6.318  0.00  0.00    -0.268 OA
ENDBRANCH  16  20
ENDBRANCH   1  13
BRANCH   9  25
HETATM   25  C   UNK N   1      20.729  16.204   3.965  0.00  0.00     0.100 C 
BRANCH  25  26
HETATM   26  C   UNK N   1      20.760  15.869   5.438  0.00  0.00    -0.051 A 
HETATM   27  C   UNK N   1      20.616  16.854   6.430  0.00  0.00     0.010 A 
HETATM   28  C   UNK N   1      20.686  16.514   7.788  0.00  0.00     0.031 A 
HETATM   29  C   UNK N   1      20.946  15.194   8.165  0.00  0.00     0.042 A 
HETATM   30  C   UNK N   1      21.143  14.211   7.174  0.00  0.00    -0.009 A 
HETATM   31  N   UNK N   1      21.027  14.858   9.483  0.00  0.00    -0.365 N 
HETATM   32  C   UNK N   1      21.043  14.550   5.821  0.00  0.00     0.021 A 
HETATM   33  C   UNK N   1      21.443  12.905   7.560  0.00  0.00     0.015 A 
HETATM   34  C   UNK N   1      21.531  12.587   8.917  0.00  0.00     0.018 A 
HETATM   35  C   UNK N   1      21.309  13.584   9.872  0.00  0.00     0.088 A 
ATOM     36  HN  UNK N   1      20.872  15.575  10.191  1.00  0.00     0.165 HD
ENDBRANCH  25  26
ENDBRANCH   9  25
TORSDOF 4
ENDMDL
MODEL 9
REMARK VINA RESULT:      -8.5      6.599     12.928
REMARK  4 active torsions:
REMARK  status: ('A' for Active; 'I' for Inactive)
REMARK       I    between atoms: N_2  and  C_3 
REMARK    1  A    between atoms: C_3  and  C_5 
REMARK    2  A    between atoms: C_8  and  C_12 
REMARK    3  A    between atoms: C_20  and  C_24 
REMARK    4  A    between atoms: C_24  and  C_25 
ROOT
HETATM    1  C   UNK N   1      27.482  18.861   5.906  0.00  0.00     0.075 A 
HETATM    2  C   UNK N   1      27.546  20.167   5.360  0.00  0.00     0.138 A 
HETATM    3  N   UNK N   1      26.487  20.651   4.638  0.00  0.00    -0.198 N 
ATOM      4  HN  UNK N   1      26.502  21.597   4.255  1.00  0.00     0.183 HD
HETATM    5  C   UNK N   1      25.414  19.839   4.444  0.00  0.00     0.703 A 
HETATM    6  N   UNK N   1      24.312  20.127   3.728  0.00  0.00    -0.198 N 
ATOM      7  HN  UNK N   1      24.085  21.003   3.259  1.00  0.00     0.183 HD
HETATM    8  C   UNK N   1      23.566  18.985   3.771  0.00  0.00     0.134 A 
HETATM    9  C   UNK N   1      24.252  18.036   4.526  0.00  0.00     0.072 A 
HETATM   10  N   UNK N   1      25.392  18.607   4.940  0.00  0.00    -0.088 N 
HETATM   11  N   UNK N   1      26.373  18.111   5.667  0.00  0.00    -0.278 N 
ATOM     12  HN  UNK N   1      26.300  17.169   6.050  1.00  0.00     0.188 HD
ENDROOT
BRANCH   1  13
HETATM   13  C   UNK N   1      28.552  18.248   6.707  0.00  0.00    -0.004 A 
HETATM   14  C   UNK N   1      28.620  18.314   8.106  0.00  0.00     0.015 A 
HETATM   15  C   UNK N   1      29.727  17.754   8.771  0.00  0.00     0.021 A 
HETATM   16  C   UNK N   1      30.752  17.109   8.045  0.00  0.00     0.070 A 
HETATM   17  C   UNK N   1      30.641  17.021   6.646  0.00  0.00     0.133 A 
HETATM   18  C   UNK N   1      29.565  17.597   6.003  0.00  0.00     0.057 A 
HETATM   19  F   UNK N   1      31.576  16.396   5.890  0.00  0.00    -0.205 F 
BRANCH  16  20
HETATM   20  C   UNK N   1      31.934  16.547   8.747  0.00  0.00     0.254 C 
HETATM   21  N   UNK N   1      33.095  17.251   8.796  0.00  0.00    -0.361 N 
HETATM   22  C   UNK N   1      34.265  16.771   9.482  0.00  0.00     0.149 C 
HETATM   23  H   UNK N   1      33.136  18.125   8.345  0.00  0.00     0.162 HD
HETATM   24  O   UNK N   1      31.855  15.458   9.299  0.00  0.00    -0.268 OA
ENDBRANCH  16  20
ENDBRANCH   1  13
BRANCH   9  25
HETATM   25  C   UNK N   1      23.789  16.607   4.742  0.00  0.00     0.100 C 
BRANCH  25  26
HETATM   26  C   UNK N   1      22.807  16.276   5.841  0.00  0.00    -0.051 A 
HETATM   27  C   UNK N   1      21.804  17.175   6.241  0.00  0.00     0.010 A 
HETATM   28  C   UNK N   1      20.933  16.851   7.290  0.00  0.00     0.031 A 
HETATM   29  C   UNK N   1      21.085  15.644   7.978  0.00  0.00     0.042 A 
HETATM   30  C   UNK N   1      22.123  14.762   7.616  0.00  0.00    -0.009 A 
HETATM   31  N   UNK N   1      20.250  15.328   9.006  0.00  0.00    -0.365 N 
HETATM   32  C   UNK N   1      22.972  15.077   6.549  0.00  0.00     0.021 A 
HETATM   33  C   UNK N   1      22.294  13.579   8.335  0.00  0.00     0.015 A 
HETATM   34  C   UNK N   1      21.430  13.281   9.392  0.00  0.00     0.018 A 
HETATM   35  C   UNK N   1      20.399  14.171   9.709  0.00  0.00     0.088 A 
ATOM     36  HN  UNK N   1      19.496  15.970   9.252  1.00  0.00     0.165 HD
ENDBRANCH  25  26
ENDBRANCH   9  25
TORSDOF 4
ENDMDL
