MODEL 1
REMARK VINA RESULT:      -8.5      0.000      0.000
REMARK  8 active torsions:
REMARK  status: ('A' for Active; 'I' for Inactive)
REMARK    1  A    between atoms: C_2  and  S_4 
REMARK    2  A    between atoms: S_4  and  C_7 
REMARK    3  A    between atoms: C_10  and  C_13 
REMARK    4  A    between atoms: C_17  and  N_36 
REMARK    5  A    between atoms: C_18  and  C_21 
REMARK    6  A    between atoms: C_23  and  C_27 
REMARK    7  A    between atoms: C_30  and  C_33 
REMARK    8  A    between atoms: C_33  and  N_34 
ROOT
HETATM    1  C   UNK N   1      35.987  13.386  13.401  0.00  0.00     0.058 A 
HETATM    2  C   UNK N   1      37.111  12.730  12.884  0.00  0.00     0.120 A 
HETATM    3  N   UNK N   1      37.614  13.128  11.681  0.00  0.00    -0.349 N 
ATOM      4  HN  UNK N   1      38.467  12.693  11.328  1.00  0.00     0.167 HD
HETATM    5  C   UNK N   1      37.000  14.099  10.939  0.00  0.00     0.129 A 
HETATM    6  C   UNK N   1      35.831  14.698  11.448  0.00  0.00     0.113 A 
HETATM    7  N   UNK N   1      35.395  14.334  12.648  0.00  0.00    -0.349 N 
ATOM      8  HN  UNK N   1      34.567  14.798  13.021  1.00  0.00     0.166 HD
ENDROOT
BRANCH   6   9
HETATM    9  C   UNK N   1      35.103  15.785  10.813  0.00  0.00     0.131 A 
HETATM   10  C   UNK N   1      34.045  15.584  10.006  0.00  0.00     0.074 A 
HETATM   11  C   UNK N   1      33.990  16.733   9.261  0.00  0.00     0.068 A 
HETATM   12  N   UNK N   1      34.950  17.586   9.651  0.00  0.00    -0.260 N 
HETATM   13  O   UNK N   1      35.613  16.980  10.592  0.00  0.00    -0.235 OA
ATOM     14  HN  UNK N   1      35.124  18.522   9.284  1.00  0.00     0.195 HD
BRANCH  11  15
HETATM   15  C   UNK N   1      33.374  16.717   7.948  0.00  0.00    -0.007 A 
HETATM   16  C   UNK N   1      34.201  17.044   6.867  0.00  0.00     0.014 A 
HETATM   17  C   UNK N   1      33.667  17.345   5.635  0.00  0.00     0.010 A 
HETATM   18  C   UNK N   1      32.292  17.325   5.460  0.00  0.00    -0.041 A 
HETATM   19  C   UNK N   1      31.442  16.971   6.522  0.00  0.00     0.010 A 
HETATM   20  C   UNK N   1      31.985  16.691   7.782  0.00  0.00     0.014 A 
BRANCH  18  21
HETATM   21  C   UNK N   1      31.760  17.610   4.105  0.00  0.00     0.152 C 
BRANCH  21  22
HETATM   22  N   UNK N   1      30.311  17.471   4.109  0.00  0.00    -0.422 N 
HETATM   23  C   UNK N   1      29.945  16.456   3.128  0.00  0.00     0.140 C 
HETATM   24  H   UNK N   1      29.663  17.995   4.696  0.00  0.00     0.153 HD
ENDBRANCH  21  22
ENDBRANCH  18  21
ENDBRANCH  11  15
ENDBRANCH   6   9
BRANCH   5  25
HETATM   25  N   UNK N   1      37.534  14.467   9.689  0.00  0.00    -0.384 N 
HETATM   26  H   UNK N   1      37.829  15.349   9.364  0.00  0.00     0.157 HD
HETATM   27  H   UNK N   1      37.625  13.732   9.041  0.00  0.00     0.157 HD
ENDBRANCH   5  25
BRANCH   1  28
HETATM   28  C   UNK N   1      35.177  12.913  14.508  0.00  0.00    -0.008 A 
HETATM   29  C   UNK N   1      35.578  13.276  15.796  0.00  0.00     0.015 A 
HETATM   30  C   UNK N   1      35.462  12.346  16.831  0.00  0.00     0.024 A 
HETATM   31  C   UNK N   1      34.926  11.077  16.571  0.00  0.00     0.059 A 
HETATM   32  C   UNK N   1      34.399  10.775  15.322  0.00  0.00     0.024 A 
HETATM   33  C   UNK N   1      34.528  11.685  14.297  0.00  0.00     0.015 A 
BRANCH  31  34
HETATM   34  S   UNK N   1      35.286   9.720  17.660  0.00  0.00     0.178 S 
HETATM   35  O   UNK N   1      35.193   8.424  16.836  0.00  0.00    -0.222 OA
HETATM   36  O   UNK N   1      36.821   9.780  17.749  0.00  0.00    -0.222 OA
BRANCH  34  37
HETATM   37  C   UNK N   1      34.749   9.392  19.350  0.00  0.00     0.105 C 
HETATM   38  C   UNK N   1      33.341   8.829  19.325  0.00  0.00     0.026 C 
HETATM   39  C   UNK N   1      34.760  10.688  20.127  0.00  0.00     0.026 C 
ENDBRANCH  34  37
ENDBRANCH  31  34
ENDBRANCH   1  28
TORSDOF 8
ENDMDL
MODEL 2
REMARK VINA RESULT:      -8.5      9.584     14.660
REMARK  8 active torsions:
REMARK  status: ('A' for Active; 'I' for Inactive)
REMARK    1  A    between atoms: C_2  and  S_4 
REMARK    2  A    between atoms: S_4  and  C_7 
REMARK    3  A    between atoms: C_10  and  C_13 
REMARK    4  A    between atoms: C_17  and  N_36 
REMARK    5  A    between atoms: C_18  and  C_21 
REMARK    6  A    between atoms: C_23  and  C_27 
REMARK    7  A    between atoms: C_30  and  C_33 
REMARK    8  A    between atoms: C_33  and  N_34 
ROOT
HETATM    1  C   UNK N   1      24.630  19.673   3.854  0.00  0.00     0.058 A 
HETATM    2  C   UNK N   1      24.243  20.550   2.833  0.00  0.00     0.120 A 
HETATM    3  N   UNK N   1      22.920  20.663   2.523  0.00  0.00    -0.349 N 
ATOM      4  HN  UNK N   1      22.629  21.342   1.820  1.00  0.00     0.167 HD
HETATM    5  C   UNK N   1      21.977  19.884   3.134  0.00  0.00     0.129 A 
HETATM    6  C   UNK N   1      22.397  18.960   4.111  0.00  0.00     0.113 A 
HETATM    7  N   UNK N   1      23.683  18.911   4.437  0.00  0.00    -0.349 N 
ATOM      8  HN  UNK N   1      23.971  18.261   5.168  1.00  0.00     0.166 HD
ENDROOT
BRANCH   6   9
HETATM    9  C   UNK N   1      21.514  18.111   4.895  0.00  0.00     0.131 A 
HETATM   10  C   UNK N   1      21.722  17.843   6.197  0.00  0.00     0.074 A 
HETATM   11  C   UNK N   1      21.021  16.682   6.400  0.00  0.00     0.068 A 
HETATM   12  N   UNK N   1      20.395  16.315   5.270  0.00  0.00    -0.260 N 
HETATM   13  O   UNK N   1      20.717  17.199   4.373  0.00  0.00    -0.235 OA
ATOM     14  HN  UNK N   1      19.788  15.505   5.143  1.00  0.00     0.195 HD
BRANCH  11  15
HETATM   15  C   UNK N   1      21.405  15.782   7.469  0.00  0.00    -0.007 A 
HETATM   16  C   UNK N   1      22.381  14.827   7.161  0.00  0.00     0.014 A 
HETATM   17  C   UNK N   1      22.605  13.752   7.991  0.00  0.00     0.010 A 
HETATM   18  C   UNK N   1      21.853  13.611   9.148  0.00  0.00    -0.041 A 
HETATM   19  C   UNK N   1      20.888  14.572   9.494  0.00  0.00     0.010 A 
HETATM   20  C   UNK N   1      20.643  15.651   8.636  0.00  0.00     0.014 A 
BRANCH  18  21
HETATM   21  C   UNK N   1      22.157  12.464  10.037  0.00  0.00     0.152 C 
BRANCH  21  22
HETATM   22  N   UNK N   1      23.296  12.788  10.883  0.00  0.00    -0.422 N 
HETATM   23  C   UNK N   1      23.269  11.911  12.047  0.00  0.00     0.140 C 
HETATM   24  H   UNK N   1      23.994  13.508  10.694  0.00  0.00     0.153 HD
ENDBRANCH  21  22
ENDBRANCH  18  21
ENDBRANCH  11  15
ENDBRANCH   6   9
BRANCH   5  25
HETATM   25  N   UNK N   1      20.623  20.010   2.770  0.00  0.00    -0.384 N 
HETATM   26  H   UNK N   1      20.039  20.803   2.777  0.00  0.00     0.157 HD
HETATM   27  H   UNK N   1      20.194  19.178   2.465  0.00  0.00     0.157 HD
ENDBRANCH   5  25
BRANCH   1  28
HETATM   28  C   UNK N   1      25.989  19.236   4.113  0.00  0.00    -0.008 A 
HETATM   29  C   UNK N   1      26.202  17.864   4.261  0.00  0.00     0.015 A 
HETATM   30  C   UNK N   1      27.112  17.418   5.222  0.00  0.00     0.024 A 
HETATM   31  C   UNK N   1      27.811  18.348   6.004  0.00  0.00     0.059 A 
HETATM   32  C   UNK N   1      27.699  19.708   5.753  0.00  0.00     0.024 A 
HETATM   33  C   UNK N   1      26.791  20.150   4.817  0.00  0.00     0.015 A 
BRANCH  31  34
HETATM   34  S   UNK N   1      28.499  17.854   7.566  0.00  0.00     0.178 S 
HETATM   35  O   UNK N   1      28.077  18.902   8.613  0.00  0.00    -0.222 OA
HETATM   36  O   UNK N   1      27.531  16.743   8.006  0.00  0.00    -0.222 OA
BRANCH  34  37
HETATM   37  C   UNK N   1      30.135  17.219   7.985  0.00  0.00     0.105 C 
HETATM   38  C   UNK N   1      30.878  18.257   8.804  0.00  0.00     0.026 C 
HETATM   39  C   UNK N   1      30.895  16.946   6.709  0.00  0.00     0.026 C 
ENDBRANCH  34  37
ENDBRANCH  31  34
ENDBRANCH   1  28
TORSDOF 8
ENDMDL
MODEL 3
REMARK VINA RESULT:      -7.9      3.631     11.630
REMARK  8 active torsions:
REMARK  status: ('A' for Active; 'I' for Inactive)
REMARK    1  A    between atoms: C_2  and  S_4 
REMARK    2  A    between atoms: S_4  and  C_7 
REMARK    3  A    between atoms: C_10  and  C_13 
REMARK    4  A    between atoms: C_17  and  N_36 
REMARK    5  A    between atoms: C_18  and  C_21 
REMARK    6  A    between atoms: C_23  and  C_27 
REMARK    7  A    between atoms: C_30  and  C_33 
REMARK    8  A    between atoms: C_33  and  N_34 
ROOT
HETATM    1  C   UNK N   1      34.853  14.416  10.971  0.00  0.00     0.058 A 
HETATM    2  C   UNK N   1      35.761  15.419  11.333  0.00  0.00     0.120 A 
HETATM    3  N   UNK N   1      36.467  15.286  12.492  0.00  0.00    -0.349 N 
ATOM      4  HN  UNK N   1      37.171  15.984  12.730  1.00  0.00     0.167 HD
HETATM    5  C   UNK N   1      36.252  14.235  13.340  0.00  0.00     0.129 A 
HETATM    6  C   UNK N   1      35.284  13.273  12.988  0.00  0.00     0.113 A 
HETATM    7  N   UNK N   1      34.652  13.394  11.827  0.00  0.00    -0.349 N 
ATOM      8  HN  UNK N   1      33.977  12.675  11.567  1.00  0.00     0.166 HD
ENDROOT
BRANCH   6   9
HETATM    9  C   UNK N   1      34.987  12.069  13.747  0.00  0.00     0.131 A 
HETATM   10  C   UNK N   1      34.534  12.095  15.014  0.00  0.00     0.074 A 
HETATM   11  C   UNK N   1      34.862  10.854  15.496  0.00  0.00     0.068 A 
HETATM   12  N   UNK N   1      35.442  10.121  14.532  0.00  0.00    -0.260 N 
HETATM   13  O   UNK N   1      35.508  10.887  13.483  0.00  0.00    -0.235 OA
ATOM     14  HN  UNK N   1      35.764   9.155  14.609  1.00  0.00     0.195 HD
BRANCH  11  15
HETATM   15  C   UNK N   1      35.050  10.656  16.920  0.00  0.00    -0.007 A 
HETATM   16  C   UNK N   1      34.543   9.467  17.457  0.00  0.00     0.014 A 
HETATM   17  C   UNK N   1      34.403   9.309  18.817  0.00  0.00     0.010 A 
HETATM   18  C   UNK N   1      34.767  10.341  19.668  0.00  0.00    -0.041 A 
HETATM   19  C   UNK N   1      35.305  11.534  19.155  0.00  0.00     0.010 A 
HETATM   20  C   UNK N   1      35.423  11.703  17.770  0.00  0.00     0.014 A 
BRANCH  18  21
HETATM   21  C   UNK N   1      34.642  10.113  21.128  0.00  0.00     0.152 C 
BRANCH  21  22
HETATM   22  N   UNK N   1      33.647  11.020  21.682  0.00  0.00    -0.422 N 
HETATM   23  C   UNK N   1      32.918  10.317  22.731  0.00  0.00     0.140 C 
HETATM   24  H   UNK N   1      33.488  11.983  21.386  0.00  0.00     0.153 HD
ENDBRANCH  21  22
ENDBRANCH  18  21
ENDBRANCH  11  15
ENDBRANCH   6   9
BRANCH   5  25
HETATM   25  N   UNK N   1      36.982  14.142  14.540  0.00  0.00    -0.384 N 
HETATM   26  H   UNK N   1      37.833  13.683  14.726  0.00  0.00     0.157 HD
HETATM   27  H   UNK N   1      36.581  14.607  15.309  0.00  0.00     0.157 HD
ENDBRANCH   5  25
BRANCH   1  28
HETATM   28  C   UNK N   1      33.841  14.536   9.938  0.00  0.00    -0.008 A 
HETATM   29  C   UNK N   1      33.893  13.621   8.884  0.00  0.00     0.015 A 
HETATM   30  C   UNK N   1      33.605  14.061   7.590  0.00  0.00     0.024 A 
HETATM   31  C   UNK N   1      33.248  15.399   7.371  0.00  0.00     0.059 A 
HETATM   32  C   UNK N   1      33.061  16.263   8.440  0.00  0.00     0.024 A 
HETATM   33  C   UNK N   1      33.360  15.836   9.715  0.00  0.00     0.015 A 
BRANCH  31  34
HETATM   34  S   UNK N   1      33.443  16.117   5.757  0.00  0.00     0.178 S 
HETATM   35  O   UNK N   1      34.219  17.435   5.925  0.00  0.00    -0.222 OA
HETATM   36  O   UNK N   1      34.599  15.287   5.174  0.00  0.00    -0.222 OA
BRANCH  34  37
HETATM   37  C   UNK N   1      32.275  16.283   4.393  0.00  0.00     0.105 C 
HETATM   38  C   UNK N   1      33.026  16.691   3.141  0.00  0.00     0.026 C 
HETATM   39  C   UNK N   1      31.263  17.348   4.743  0.00  0.00     0.026 C 
ENDBRANCH  34  37
ENDBRANCH  31  34
ENDBRANCH   1  28
TORSDOF 8
ENDMDL
MODEL 4
REMARK VINA RESULT:      -7.9      9.921     14.933
REMARK  8 active torsions:
REMARK  status: ('A' for Active; 'I' for Inactive)
REMARK    1  A    between atoms: C_2  and  S_4 
REMARK    2  A    between atoms: S_4  and  C_7 
REMARK    3  A    between atoms: C_10  and  C_13 
REMARK    4  A    between atoms: C_17  and  N_36 
REMARK    5  A    between atoms: C_18  and  C_21 
REMARK    6  A    between atoms: C_23  and  C_27 
REMARK    7  A    between atoms: C_30  and  C_33 
REMARK    8  A    between atoms: C_33  and  N_34 
ROOT
HETATM    1  C   UNK N   1      20.561  17.372   3.595  0.00  0.00     0.058 A 
HETATM    2  C   UNK N   1      19.395  17.994   3.133  0.00  0.00     0.120 A 
HETATM    3  N   UNK N   1      19.483  19.231   2.566  0.00  0.00    -0.349 N 
ATOM      4  HN  UNK N   1      18.645  19.662   2.176  1.00  0.00     0.167 HD
HETATM    5  C   UNK N   1      20.672  19.904   2.510  0.00  0.00     0.129 A 
HETATM    6  C   UNK N   1      21.821  19.288   3.043  0.00  0.00     0.113 A 
HETATM    7  N   UNK N   1      21.720  18.059   3.536  0.00  0.00    -0.349 N 
ATOM      8  HN  UNK N   1      22.564  17.610   3.889  1.00  0.00     0.166 HD
ENDROOT
BRANCH   6   9
HETATM    9  C   UNK N   1      23.165  19.843   3.001  0.00  0.00     0.131 A 
HETATM   10  C   UNK N   1      24.241  19.192   3.478  0.00  0.00     0.074 A 
HETATM   11  C   UNK N   1      25.146  20.196   3.708  0.00  0.00     0.068 A 
HETATM   12  N   UNK N   1      24.630  21.378   3.337  0.00  0.00    -0.260 N 
HETATM   13  O   UNK N   1      23.424  21.133   2.916  0.00  0.00    -0.235 OA
ATOM     14  HN  UNK N   1      25.093  22.287   3.376  1.00  0.00     0.195 HD
BRANCH  11  15
HETATM   15  C   UNK N   1      26.192  20.017   4.696  0.00  0.00    -0.007 A 
HETATM   16  C   UNK N   1      26.660  18.710   4.879  0.00  0.00     0.014 A 
HETATM   17  C   UNK N   1      27.425  18.381   5.975  0.00  0.00     0.010 A 
HETATM   18  C   UNK N   1      27.735  19.355   6.912  0.00  0.00    -0.041 A 
HETATM   19  C   UNK N   1      27.301  20.680   6.736  0.00  0.00     0.010 A 
HETATM   20  C   UNK N   1      26.501  21.008   5.634  0.00  0.00     0.014 A 
BRANCH  18  21
HETATM   21  C   UNK N   1      28.598  18.969   8.054  0.00  0.00     0.152 C 
BRANCH  21  22
HETATM   22  N   UNK N   1      27.781  18.397   9.114  0.00  0.00    -0.422 N 
HETATM   23  C   UNK N   1      28.442  17.194   9.606  0.00  0.00     0.140 C 
HETATM   24  H   UNK N   1      26.896  18.774   9.454  0.00  0.00     0.153 HD
ENDBRANCH  21  22
ENDBRANCH  18  21
ENDBRANCH  11  15
ENDBRANCH   6   9
BRANCH   5  25
HETATM   25  N   UNK N   1      20.721  21.191   1.940  0.00  0.00    -0.384 N 
HETATM   26  H   UNK N   1      21.424  21.879   1.997  0.00  0.00     0.157 HD
HETATM   27  H   UNK N   1      19.934  21.441   1.405  0.00  0.00     0.157 HD
ENDBRANCH   5  25
BRANCH   1  28
HETATM   28  C   UNK N   1      20.604  16.206   4.457  0.00  0.00    -0.008 A 
HETATM   29  C   UNK N   1      20.771  16.428   5.825  0.00  0.00     0.015 A 
HETATM   30  C   UNK N   1      21.582  15.559   6.560  0.00  0.00     0.024 A 
HETATM   31  C   UNK N   1      22.195  14.471   5.923  0.00  0.00     0.059 A 
HETATM   32  C   UNK N   1      21.909  14.178   4.596  0.00  0.00     0.024 A 
HETATM   33  C   UNK N   1      21.123  15.041   3.867  0.00  0.00     0.015 A 
BRANCH  31  34
HETATM   34  S   UNK N   1      23.637  13.720   6.638  0.00  0.00     0.178 S 
HETATM   35  O   UNK N   1      23.406  13.622   8.157  0.00  0.00    -0.222 OA
HETATM   36  O   UNK N   1      23.417  12.232   6.314  0.00  0.00    -0.222 OA
BRANCH  34  37
HETATM   37  C   UNK N   1      25.390  13.996   6.319  0.00  0.00     0.105 C 
HETATM   38  C   UNK N   1      25.813  15.304   6.959  0.00  0.00     0.026 C 
HETATM   39  C   UNK N   1      25.610  14.072   4.827  0.00  0.00     0.026 C 
ENDBRANCH  34  37
ENDBRANCH  31  34
ENDBRANCH   1  28
TORSDOF 8
ENDMDL
MODEL 5
REMARK VINA RESULT:      -7.8      7.252     12.156
REMARK  8 active torsions:
REMARK  status: ('A' for Active; 'I' for Inactive)
REMARK    1  A    between atoms: C_2  and  S_4 
REMARK    2  A    between atoms: S_4  and  C_7 
REMARK    3  A    between atoms: C_10  and  C_13 
REMARK    4  A    between atoms: C_17  and  N_36 
REMARK    5  A    between atoms: C_18  and  C_21 
REMARK    6  A    between atoms: C_23  and  C_27 
REMARK    7  A    between atoms: C_30  and  C_33 
REMARK    8  A    between atoms: C_33  and  N_34 
ROOT
HETATM    1  C   UNK N   1      24.411  17.044   5.039  0.00  0.00     0.058 A 
HETATM    2  C   UNK N   1      24.022  18.385   5.152  0.00  0.00     0.120 A 
HETATM    3  N   UNK N   1      24.976  19.358   5.108  0.00  0.00    -0.349 N 
ATOM      4  HN  UNK N   1      24.692  20.337   5.132  1.00  0.00     0.167 HD
HETATM    5  C   UNK N   1      26.306  19.047   5.033  0.00  0.00     0.129 A 
HETATM    6  C   UNK N   1      26.679  17.689   4.989  0.00  0.00     0.113 A 
HETATM    7  N   UNK N   1      25.728  16.763   4.973  0.00  0.00    -0.349 N 
ATOM      8  HN  UNK N   1      26.008  15.785   4.908  1.00  0.00     0.166 HD
ENDROOT
BRANCH   6   9
HETATM    9  C   UNK N   1      28.041  17.200   4.842  0.00  0.00     0.131 A 
HETATM   10  C   UNK N   1      28.800  16.823   5.887  0.00  0.00     0.074 A 
HETATM   11  C   UNK N   1      30.079  16.925   5.405  0.00  0.00     0.068 A 
HETATM   12  N   UNK N   1      30.061  17.303   4.117  0.00  0.00    -0.260 N 
HETATM   13  O   UNK N   1      28.809  17.467   3.804  0.00  0.00    -0.235 OA
ATOM     14  HN  UNK N   1      30.868  17.434   3.506  1.00  0.00     0.195 HD
BRANCH  11  15
HETATM   15  C   UNK N   1      31.184  17.140   6.320  0.00  0.00    -0.007 A 
HETATM   16  C   UNK N   1      32.436  17.379   5.742  0.00  0.00     0.014 A 
HETATM   17  C   UNK N   1      33.587  17.303   6.493  0.00  0.00     0.010 A 
HETATM   18  C   UNK N   1      33.506  16.985   7.840  0.00  0.00    -0.041 A 
HETATM   19  C   UNK N   1      32.259  16.770   8.450  0.00  0.00     0.010 A 
HETATM   20  C   UNK N   1      31.091  16.822   7.680  0.00  0.00     0.014 A 
BRANCH  18  21
HETATM   21  C   UNK N   1      34.766  16.959   8.623  0.00  0.00     0.152 C 
BRANCH  21  22
HETATM   22  N   UNK N   1      34.470  17.158  10.034  0.00  0.00    -0.422 N 
HETATM   23  C   UNK N   1      35.463  16.433  10.818  0.00  0.00     0.140 C 
HETATM   24  H   UNK N   1      33.698  17.709  10.409  0.00  0.00     0.153 HD
ENDBRANCH  21  22
ENDBRANCH  18  21
ENDBRANCH  11  15
ENDBRANCH   6   9
BRANCH   5  25
HETATM   25  N   UNK N   1      27.266  20.077   5.015  0.00  0.00    -0.384 N 
HETATM   26  H   UNK N   1      28.170  20.104   5.405  0.00  0.00     0.157 HD
HETATM   27  H   UNK N   1      26.991  20.895   4.542  0.00  0.00     0.157 HD
ENDBRANCH   5  25
BRANCH   1  28
HETATM   28  C   UNK N   1      23.572  15.900   5.341  0.00  0.00    -0.008 A 
HETATM   29  C   UNK N   1      22.265  16.158   5.759  0.00  0.00     0.015 A 
HETATM   30  C   UNK N   1      21.704  15.366   6.763  0.00  0.00     0.024 A 
HETATM   31  C   UNK N   1      22.447  14.314   7.318  0.00  0.00     0.059 A 
HETATM   32  C   UNK N   1      23.689  13.977   6.798  0.00  0.00     0.024 A 
HETATM   33  C   UNK N   1      24.250  14.767   5.819  0.00  0.00     0.015 A 
BRANCH  31  34
HETATM   34  S   UNK N   1      22.031  13.685   8.926  0.00  0.00     0.178 S 
HETATM   35  O   UNK N   1      21.113  14.716   9.607  0.00  0.00    -0.222 OA
HETATM   36  O   UNK N   1      20.942  12.650   8.593  0.00  0.00    -0.222 OA
BRANCH  34  37
HETATM   37  C   UNK N   1      23.052  12.879  10.176  0.00  0.00     0.105 C 
HETATM   38  C   UNK N   1      23.879  11.792   9.519  0.00  0.00     0.026 C 
HETATM   39  C   UNK N   1      22.151  12.264  11.221  0.00  0.00     0.026 C 
ENDBRANCH  34  37
ENDBRANCH  31  34
ENDBRANCH   1  28
TORSDOF 8
ENDMDL
MODEL 6
REMARK VINA RESULT:      -7.8      9.949     15.191
REMARK  8 active torsions:
REMARK  status: ('A' for Active; 'I' for Inactive)
REMARK    1  A    between atoms: C_2  and  S_4 
REMARK    2  A    between atoms: S_4  and  C_7 
REMARK    3  A    between atoms: C_10  and  C_13 
REMARK    4  A    between atoms: C_17  and  N_36 
REMARK    5  A    between atoms: C_18  and  C_21 
REMARK    6  A    between atoms: C_23  and  C_27 
REMARK    7  A    between atoms: C_30  and  C_33 
REMARK    8  A    between atoms: C_33  and  N_34 
ROOT
HETATM    1  C   UNK N   1      20.486  17.441   3.170  0.00  0.00     0.058 A 
HETATM    2  C   UNK N   1      19.406  18.310   2.970  0.00  0.00     0.120 A 
HETATM    3  N   UNK N   1      19.652  19.636   2.768  0.00  0.00    -0.349 N 
ATOM      4  HN  UNK N   1      18.873  20.263   2.564  1.00  0.00     0.167 HD
HETATM    5  C   UNK N   1      20.921  20.142   2.831  0.00  0.00     0.129 A 
HETATM    6  C   UNK N   1      21.985  19.260   3.102  0.00  0.00     0.113 A 
HETATM    7  N   UNK N   1      21.726  17.964   3.236  0.00  0.00    -0.349 N 
ATOM      8  HN  UNK N   1      22.508  17.330   3.399  1.00  0.00     0.166 HD
ENDROOT
BRANCH   6   9
HETATM    9  C   UNK N   1      23.391  19.630   3.136  0.00  0.00     0.131 A 
HETATM   10  C   UNK N   1      24.363  18.778   3.510  0.00  0.00     0.074 A 
HETATM   11  C   UNK N   1      25.389  19.608   3.881  0.00  0.00     0.068 A 
HETATM   12  N   UNK N   1      25.042  20.890   3.687  0.00  0.00    -0.260 N 
HETATM   13  O   UNK N   1      23.821  20.872   3.239  0.00  0.00    -0.235 OA
ATOM     14  HN  UNK N   1      25.621  21.714   3.857  1.00  0.00     0.195 HD
BRANCH  11  15
HETATM   15  C   UNK N   1      26.386  19.150   4.830  0.00  0.00    -0.007 A 
HETATM   16  C   UNK N   1      26.443  17.770   5.056  0.00  0.00     0.014 A 
HETATM   17  C   UNK N   1      27.132  17.259   6.133  0.00  0.00     0.010 A 
HETATM   18  C   UNK N   1      27.778  18.122   7.005  0.00  0.00    -0.041 A 
HETATM   19  C   UNK N   1      27.760  19.509   6.783  0.00  0.00     0.010 A 
HETATM   20  C   UNK N   1      27.036  20.029   5.703  0.00  0.00     0.014 A 
BRANCH  18  21
HETATM   21  C   UNK N   1      28.547  17.527   8.126  0.00  0.00     0.152 C 
BRANCH  21  22
HETATM   22  N   UNK N   1      28.358  18.327   9.327  0.00  0.00    -0.422 N 
HETATM   23  C   UNK N   1      29.669  18.626   9.892  0.00  0.00     0.140 C 
HETATM   24  H   UNK N   1      27.461  18.627   9.709  0.00  0.00     0.153 HD
ENDBRANCH  21  22
ENDBRANCH  18  21
ENDBRANCH  11  15
ENDBRANCH   6   9
BRANCH   5  25
HETATM   25  N   UNK N   1      21.135  21.521   2.642  0.00  0.00    -0.384 N 
HETATM   26  H   UNK N   1      21.050  22.265   3.281  0.00  0.00     0.157 HD
HETATM   27  H   UNK N   1      21.409  21.780   1.733  0.00  0.00     0.157 HD
ENDBRANCH   5  25
BRANCH   1  28
HETATM   28  C   UNK N   1      20.386  16.081   3.667  0.00  0.00    -0.008 A 
HETATM   29  C   UNK N   1      19.356  15.804   4.569  0.00  0.00     0.015 A 
HETATM   30  C   UNK N   1      19.604  14.941   5.638  0.00  0.00     0.024 A 
HETATM   31  C   UNK N   1      20.867  14.350   5.779  0.00  0.00     0.059 A 
HETATM   32  C   UNK N   1      21.838  14.520   4.802  0.00  0.00     0.024 A 
HETATM   33  C   UNK N   1      21.601  15.383   3.756  0.00  0.00     0.015 A 
BRANCH  31  34
HETATM   34  S   UNK N   1      21.394  13.748   7.365  0.00  0.00     0.178 S 
HETATM   35  O   UNK N   1      20.937  12.282   7.482  0.00  0.00    -0.222 OA
HETATM   36  O   UNK N   1      22.886  13.465   7.121  0.00  0.00    -0.222 OA
BRANCH  34  37
HETATM   37  C   UNK N   1      21.342  14.520   8.995  0.00  0.00     0.105 C 
HETATM   38  C   UNK N   1      21.620  13.469  10.053  0.00  0.00     0.026 C 
HETATM   39  C   UNK N   1      19.967  15.104   9.215  0.00  0.00     0.026 C 
ENDBRANCH  34  37
ENDBRANCH  31  34
ENDBRANCH   1  28
TORSDOF 8
ENDMDL
MODEL 7
REMARK VINA RESULT:      -7.6     10.165     14.658
REMARK  8 active torsions:
REMARK  status: ('A' for Active; 'I' for Inactive)
REMARK    1  A    between atoms: C_2  and  S_4 
REMARK    2  A    between atoms: S_4  and  C_7 
REMARK    3  A    between atoms: C_10  and  C_13 
REMARK    4  A    between atoms: C_17  and  N_36 
REMARK    5  A    between atoms: C_18  and  C_21 
REMARK    6  A    between atoms: C_23  and  C_27 
REMARK    7  A    between atoms: C_30  and  C_33 
REMARK    8  A    between atoms: C_33  and  N_34 
ROOT
HETATM    1  C   UNK N   1      25.478  19.377   4.643  0.00  0.00     0.058 A 
HETATM    2  C   UNK N   1      25.476  20.264   3.560  0.00  0.00     0.120 A 
HETATM    3  N   UNK N   1      24.298  20.534   2.927  0.00  0.00    -0.349 N 
ATOM      4  HN  UNK N   1      24.282  21.223   2.176  1.00  0.00     0.167 HD
HETATM    5  C   UNK N   1      23.139  19.898   3.280  0.00  0.00     0.129 A 
HETATM    6  C   UNK N   1      23.179  18.958   4.328  0.00  0.00     0.113 A 
HETATM    7  N   UNK N   1      24.325  18.758   4.967  0.00  0.00    -0.349 N 
ATOM      8  HN  UNK N   1      24.335  18.099   5.746  1.00  0.00     0.166 HD
ENDROOT
BRANCH   6   9
HETATM    9  C   UNK N   1      22.026  18.251   4.862  0.00  0.00     0.131 A 
HETATM   10  C   UNK N   1      21.984  17.759   6.114  0.00  0.00     0.074 A 
HETATM   11  C   UNK N   1      21.017  16.790   6.044  0.00  0.00     0.068 A 
HETATM   12  N   UNK N   1      20.487  16.752   4.811  0.00  0.00    -0.260 N 
HETATM   13  O   UNK N   1      21.123  17.647   4.115  0.00  0.00    -0.235 OA
ATOM     14  HN  UNK N   1      19.735  16.143   4.487  1.00  0.00     0.195 HD
BRANCH  11  15
HETATM   15  C   UNK N   1      21.033  15.681   6.978  0.00  0.00    -0.007 A 
HETATM   16  C   UNK N   1      20.237  15.816   8.121  0.00  0.00     0.014 A 
HETATM   17  C   UNK N   1      20.398  14.975   9.198  0.00  0.00     0.010 A 
HETATM   18  C   UNK N   1      21.364  13.980   9.152  0.00  0.00    -0.041 A 
HETATM   19  C   UNK N   1      22.156  13.806   8.005  0.00  0.00     0.010 A 
HETATM   20  C   UNK N   1      22.009  14.679   6.920  0.00  0.00     0.014 A 
BRANCH  18  21
HETATM   21  C   UNK N   1      21.475  13.067  10.316  0.00  0.00     0.152 C 
BRANCH  21  22
HETATM   22  N   UNK N   1      22.862  12.992  10.749  0.00  0.00    -0.422 N 
HETATM   23  C   UNK N   1      23.189  11.594  11.005  0.00  0.00     0.140 C 
HETATM   24  H   UNK N   1      23.498  13.783  10.855  0.00  0.00     0.153 HD
ENDBRANCH  21  22
ENDBRANCH  18  21
ENDBRANCH  11  15
ENDBRANCH   6   9
BRANCH   5  25
HETATM   25  N   UNK N   1      21.947  20.183   2.588  0.00  0.00    -0.384 N 
HETATM   26  H   UNK N   1      21.071  20.473   2.933  0.00  0.00     0.157 HD
HETATM   27  H   UNK N   1      21.996  20.075   1.611  0.00  0.00     0.157 HD
ENDBRANCH   5  25
BRANCH   1  28
HETATM   28  C   UNK N   1      26.661  18.780   5.235  0.00  0.00    -0.008 A 
HETATM   29  C   UNK N   1      27.894  19.354   4.917  0.00  0.00     0.015 A 
HETATM   30  C   UNK N   1      28.997  18.522   4.712  0.00  0.00     0.024 A 
HETATM   31  C   UNK N   1      28.859  17.134   4.850  0.00  0.00     0.059 A 
HETATM   32  C   UNK N   1      27.668  16.585   5.304  0.00  0.00     0.024 A 
HETATM   33  C   UNK N   1      26.575  17.401   5.491  0.00  0.00     0.015 A 
BRANCH  31  34
HETATM   34  S   UNK N   1      30.019  16.044   4.060  0.00  0.00     0.178 S 
HETATM   35  O   UNK N   1      29.530  14.602   4.287  0.00  0.00    -0.222 OA
HETATM   36  O   UNK N   1      29.608  16.156   2.582  0.00  0.00    -0.222 OA
BRANCH  34  37
HETATM   37  C   UNK N   1      31.822  16.065   4.029  0.00  0.00     0.105 C 
HETATM   38  C   UNK N   1      32.337  16.593   5.354  0.00  0.00     0.026 C 
HETATM   39  C   UNK N   1      32.281  16.973   2.912  0.00  0.00     0.026 C 
ENDBRANCH  34  37
ENDBRANCH  31  34
ENDBRANCH   1  28
TORSDOF 8
ENDMDL
MODEL 8
REMARK VINA RESULT:      -7.6      5.610      9.308
REMARK  8 active torsions:
REMARK  status: ('A' for Active; 'I' for Inactive)
REMARK    1  A    between atoms: C_2  and  S_4 
REMARK    2  A    between atoms: S_4  and  C_7 
REMARK    3  A    between atoms: C_10  and  C_13 
REMARK    4  A    between atoms: C_17  and  N_36 
REMARK    5  A    between atoms: C_18  and  C_21 
REMARK    6  A    between atoms: C_23  and  C_27 
REMARK    7  A    between atoms: C_30  and  C_33 
REMARK    8  A    between atoms: C_33  and  N_34 
ROOT
HETATM    1  C   UNK N   1      30.437  17.388   8.178  0.00  0.00     0.058 A 
HETATM    2  C   UNK N   1      30.035  17.985   9.379  0.00  0.00     0.120 A 
HETATM    3  N   UNK N   1      28.895  18.733   9.397  0.00  0.00    -0.349 N 
ATOM      4  HN  UNK N   1      28.567  19.122  10.282  1.00  0.00     0.167 HD
HETATM    5  C   UNK N   1      28.183  18.973   8.255  0.00  0.00     0.129 A 
HETATM    6  C   UNK N   1      28.644  18.418   7.045  0.00  0.00     0.113 A 
HETATM    7  N   UNK N   1      29.723  17.645   7.064  0.00  0.00    -0.349 N 
ATOM      8  HN  UNK N   1      30.029  17.222   6.188  1.00  0.00     0.166 HD
ENDROOT
BRANCH   6   9
HETATM    9  C   UNK N   1      27.966  18.525   5.763  0.00  0.00     0.131 A 
HETATM   10  C   UNK N   1      26.961  17.709   5.396  0.00  0.00     0.074 A 
HETATM   11  C   UNK N   1      26.962  17.797   4.028  0.00  0.00     0.068 A 
HETATM   12  N   UNK N   1      27.901  18.665   3.619  0.00  0.00    -0.260 N 
HETATM   13  O   UNK N   1      28.498  19.087   4.695  0.00  0.00    -0.235 OA
ATOM     14  HN  UNK N   1      28.104  18.938   2.657  1.00  0.00     0.195 HD
BRANCH  11  15
HETATM   15  C   UNK N   1      26.432  16.707   3.231  0.00  0.00    -0.007 A 
HETATM   16  C   UNK N   1      25.057  16.466   3.339  0.00  0.00     0.014 A 
HETATM   17  C   UNK N   1      24.506  15.296   2.869  0.00  0.00     0.010 A 
HETATM   18  C   UNK N   1      25.322  14.341   2.281  0.00  0.00    -0.041 A 
HETATM   19  C   UNK N   1      26.701  14.572   2.135  0.00  0.00     0.010 A 
HETATM   20  C   UNK N   1      27.264  15.752   2.637  0.00  0.00     0.014 A 
BRANCH  18  21
HETATM   21  C   UNK N   1      24.682  13.115   1.747  0.00  0.00     0.152 C 
BRANCH  21  22
HETATM   22  N   UNK N   1      23.535  13.479   0.928  0.00  0.00    -0.422 N 
HETATM   23  C   UNK N   1      23.553  12.659  -0.278  0.00  0.00     0.140 C 
HETATM   24  H   UNK N   1      22.839  14.188   1.158  0.00  0.00     0.153 HD
ENDBRANCH  21  22
ENDBRANCH  18  21
ENDBRANCH  11  15
ENDBRANCH   6   9
BRANCH   5  25
HETATM   25  N   UNK N   1      27.024  19.771   8.307  0.00  0.00    -0.384 N 
HETATM   26  H   UNK N   1      26.089  19.515   8.482  0.00  0.00     0.157 HD
HETATM   27  H   UNK N   1      27.170  20.730   8.142  0.00  0.00     0.157 HD
ENDBRANCH   5  25
BRANCH   1  28
HETATM   28  C   UNK N   1      31.743  16.807   7.927  0.00  0.00    -0.008 A 
HETATM   29  C   UNK N   1      31.943  15.485   8.333  0.00  0.00     0.015 A 
HETATM   30  C   UNK N   1      33.174  15.123   8.883  0.00  0.00     0.024 A 
HETATM   31  C   UNK N   1      34.194  16.077   9.000  0.00  0.00     0.059 A 
HETATM   32  C   UNK N   1      34.035  17.349   8.465  0.00  0.00     0.024 A 
HETATM   33  C   UNK N   1      32.816  17.712   7.937  0.00  0.00     0.015 A 
BRANCH  31  34
HETATM   34  S   UNK N   1      35.504  15.838  10.176  0.00  0.00     0.178 S 
HETATM   35  O   UNK N   1      35.975  17.229  10.638  0.00  0.00    -0.222 OA
HETATM   36  O   UNK N   1      34.726  15.466  11.450  0.00  0.00    -0.222 OA
BRANCH  34  37
HETATM   37  C   UNK N   1      36.909  14.708  10.159  0.00  0.00     0.105 C 
HETATM   38  C   UNK N   1      36.918  13.943   8.850  0.00  0.00     0.026 C 
HETATM   39  C   UNK N   1      36.771  13.738  11.309  0.00  0.00     0.026 C 
ENDBRANCH  34  37
ENDBRANCH  31  34
ENDBRANCH   1  28
TORSDOF 8
ENDMDL
MODEL 9
REMARK VINA RESULT:      -7.5      5.115      9.148
REMARK  8 active torsions:
REMARK  status: ('A' for Active; 'I' for Inactive)
REMARK    1  A    between atoms: C_2  and  S_4 
REMARK    2  A    between atoms: S_4  and  C_7 
REMARK    3  A    between atoms: C_10  and  C_13 
REMARK    4  A    between atoms: C_17  and  N_36 
REMARK    5  A    between atoms: C_18  and  C_21 
REMARK    6  A    between atoms: C_23  and  C_27 
REMARK    7  A    between atoms: C_30  and  C_33 
REMARK    8  A    between atoms: C_33  and  N_34 
ROOT
HETATM    1  C   UNK N   1      30.744  16.973   8.218  0.00  0.00     0.058 A 
HETATM    2  C   UNK N   1      30.130  17.277   9.439  0.00  0.00     0.120 A 
HETATM    3  N   UNK N   1      28.969  17.992   9.437  0.00  0.00    -0.349 N 
ATOM      4  HN  UNK N   1      28.489  18.166  10.320  1.00  0.00     0.167 HD
HETATM    5  C   UNK N   1      28.436  18.480   8.276  0.00  0.00     0.129 A 
HETATM    6  C   UNK N   1      29.107  18.220   7.065  0.00  0.00     0.113 A 
HETATM    7  N   UNK N   1      30.204  17.471   7.088  0.00  0.00    -0.349 N 
ATOM      8  HN  UNK N   1      30.663  17.262   6.201  1.00  0.00     0.166 HD
ENDROOT
BRANCH   6   9
HETATM    9  C   UNK N   1      28.636  18.611   5.746  0.00  0.00     0.131 A 
HETATM   10  C   UNK N   1      27.504  19.313   5.552  0.00  0.00     0.074 A 
HETATM   11  C   UNK N   1      27.176  19.035   4.251  0.00  0.00     0.068 A 
HETATM   12  N   UNK N   1      28.104  18.238   3.698  0.00  0.00    -0.260 N 
HETATM   13  O   UNK N   1      28.975  17.994   4.632  0.00  0.00    -0.235 OA
ATOM     14  HN  UNK N   1      28.122  17.895   2.737  1.00  0.00     0.195 HD
BRANCH  11  15
HETATM   15  C   UNK N   1      25.796  19.133   3.815  0.00  0.00    -0.007 A 
HETATM   16  C   UNK N   1      25.473  20.229   3.007  0.00  0.00     0.014 A 
HETATM   17  C   UNK N   1      24.161  20.580   2.783  0.00  0.00     0.010 A 
HETATM   18  C   UNK N   1      23.144  19.838   3.366  0.00  0.00    -0.041 A 
HETATM   19  C   UNK N   1      23.442  18.716   4.157  0.00  0.00     0.010 A 
HETATM   20  C   UNK N   1      24.778  18.376   4.405  0.00  0.00     0.014 A 
BRANCH  18  21
HETATM   21  C   UNK N   1      21.744  20.222   3.063  0.00  0.00     0.152 C 
BRANCH  21  22
HETATM   22  N   UNK N   1      20.842  19.164   3.493  0.00  0.00    -0.422 N 
HETATM   23  C   UNK N   1      19.925  18.869   2.398  0.00  0.00     0.140 C 
HETATM   24  H   UNK N   1      20.851  18.707   4.405  0.00  0.00     0.153 HD
ENDBRANCH  21  22
ENDBRANCH  18  21
ENDBRANCH  11  15
ENDBRANCH   6   9
BRANCH   5  25
HETATM   25  N   UNK N   1      27.249  19.236   8.315  0.00  0.00    -0.384 N 
HETATM   26  H   UNK N   1      26.311  18.938   8.299  0.00  0.00     0.157 HD
HETATM   27  H   UNK N   1      27.376  20.211   8.364  0.00  0.00     0.157 HD
ENDBRANCH   5  25
BRANCH   1  28
HETATM   28  C   UNK N   1      32.098  16.474   8.061  0.00  0.00    -0.008 A 
HETATM   29  C   UNK N   1      32.297  15.103   8.229  0.00  0.00     0.015 A 
HETATM   30  C   UNK N   1      33.450  14.659   8.880  0.00  0.00     0.024 A 
HETATM   31  C   UNK N   1      34.397  15.589   9.332  0.00  0.00     0.059 A 
HETATM   32  C   UNK N   1      34.259  16.938   9.035  0.00  0.00     0.024 A 
HETATM   33  C   UNK N   1      33.115  17.378   8.408  0.00  0.00     0.015 A 
BRANCH  31  34
HETATM   34  S   UNK N   1      35.531  15.144  10.625  0.00  0.00     0.178 S 
HETATM   35  O   UNK N   1      36.740  14.455   9.967  0.00  0.00    -0.222 OA
HETATM   36  O   UNK N   1      36.218  16.488  10.926  0.00  0.00    -0.222 OA
BRANCH  34  37
HETATM   37  C   UNK N   1      35.240  14.414  12.249  0.00  0.00     0.105 C 
HETATM   38  C   UNK N   1      36.522  14.467  13.056  0.00  0.00     0.026 C 
HETATM   39  C   UNK N   1      34.816  12.976  12.069  0.00  0.00     0.026 C 
ENDBRANCH  34  37
ENDBRANCH  31  34
ENDBRANCH   1  28
TORSDOF 8
ENDMDL
