MODEL 1
REMARK VINA RESULT:      -7.1      0.000      0.000
REMARK  3 active torsions:
REMARK  status: ('A' for Active; 'I' for Inactive)
REMARK    1  A    between atoms: C_2  and  C_3 
REMARK    2  A    between atoms: C_3  and  C_4 
REMARK    3  A    between atoms: C_6  and  O_21 
ROOT
HETATM    1  C   UNK N   1      34.834  10.038  20.049  0.00  0.00    -0.053 A 
HETATM    2  C   UNK N   1      35.103  11.396  20.218  0.00  0.00     0.044 A 
HETATM    3  C   UNK N   1      35.261  12.241  19.113  0.00  0.00     0.075 A 
HETATM    4  C   UNK N   1      35.149  11.718  17.803  0.00  0.00     0.017 A 
HETATM    5  C   UNK N   1      34.876  10.341  17.633  0.00  0.00     0.080 A 
HETATM    6  C   UNK N   1      34.723   9.515  18.756  0.00  0.00     0.044 A 
HETATM    7  O   UNK N   1      34.739   9.791  16.402  0.00  0.00    -0.340 OA
HETATM    8  C   UNK N   1      34.928  10.457  15.196  0.00  0.00     0.065 C 
HETATM    9  C   UNK N   1      35.760  11.745  15.375  0.00  0.00     0.032 C 
HETATM   10  C   UNK N   1      35.255  12.578  16.550  0.00  0.00     0.054 C 
HETATM   11  C   UNK N   1      36.056  13.850  16.694  0.00  0.00    -0.014 C 
HETATM   12  C   UNK N   1      36.688  14.431  15.661  0.00  0.00    -0.087 C 
HETATM   13  C   UNK N   1      36.681  13.837  14.272  0.00  0.00     0.034 C 
HETATM   14  C   UNK N   1      35.785  12.607  14.108  0.00  0.00     0.013 C 
HETATM   15  C   UNK N   1      37.459  15.682  15.897  0.00  0.00     0.043 C 
HETATM   16  C   UNK N   1      33.557  10.740  14.596  0.00  0.00     0.046 C 
HETATM   17  C   UNK N   1      35.678   9.531  14.256  0.00  0.00     0.046 C 
ENDROOT
BRANCH   1  18
HETATM   18  C   UNK N   1      34.686   9.177  21.276  0.00  0.00     0.038 C 
BRANCH  18  19
HETATM   19  C   UNK N   1      33.277   8.647  21.517  0.00  0.00     0.000 C 
HETATM   20  C   UNK N   1      32.355   9.758  21.976  0.00  0.00     0.005 C 
ENDBRANCH  18  19
ENDBRANCH   1  18
BRANCH   3  21
HETATM   21  O   UNK N   1      35.508  13.542  19.334  0.00  0.00    -0.360 OA
HETATM   22  H   UNK N   1      35.238  13.963  20.126  0.00  0.00     0.217 HD
ENDBRANCH   3  21
TORSDOF 3
ENDMDL
MODEL 2
REMARK VINA RESULT:      -6.8     26.000     27.954
REMARK  3 active torsions:
REMARK  status: ('A' for Active; 'I' for Inactive)
REMARK    1  A    between atoms: C_2  and  C_3 
REMARK    2  A    between atoms: C_3  and  C_4 
REMARK    3  A    between atoms: C_6  and  O_21 
ROOT
HETATM    1  C   UNK N   1      26.705  25.791  -4.169  0.00  0.00    -0.053 A 
HETATM    2  C   UNK N   1      28.039  25.392  -4.091  0.00  0.00     0.044 A 
HETATM    3  C   UNK N   1      28.546  24.405  -4.946  0.00  0.00     0.075 A 
HETATM    4  C   UNK N   1      27.700  23.800  -5.904  0.00  0.00     0.017 A 
HETATM    5  C   UNK N   1      26.347  24.205  -5.982  0.00  0.00     0.080 A 
HETATM    6  C   UNK N   1      25.864  25.194  -5.113  0.00  0.00     0.044 A 
HETATM    7  O   UNK N   1      25.497  23.672  -6.893  0.00  0.00    -0.340 OA
HETATM    8  C   UNK N   1      25.803  22.639  -7.773  0.00  0.00     0.065 C 
HETATM    9  C   UNK N   1      27.038  21.836  -7.311  0.00  0.00     0.032 C 
HETATM   10  C   UNK N   1      28.184  22.758  -6.905  0.00  0.00     0.054 C 
HETATM   11  C   UNK N   1      29.396  21.960  -6.486  0.00  0.00    -0.014 C 
HETATM   12  C   UNK N   1      29.638  20.717  -6.936  0.00  0.00    -0.087 C 
HETATM   13  C   UNK N   1      28.696  19.999  -7.872  0.00  0.00     0.034 C 
HETATM   14  C   UNK N   1      27.526  20.847  -8.374  0.00  0.00     0.013 C 
HETATM   15  C   UNK N   1      30.857  20.004  -6.464  0.00  0.00     0.043 C 
HETATM   16  C   UNK N   1      26.000  23.245  -9.156  0.00  0.00     0.046 C 
HETATM   17  C   UNK N   1      24.614  21.697  -7.830  0.00  0.00     0.046 C 
ENDROOT
BRANCH   1  18
HETATM   18  C   UNK N   1      26.215  26.847  -3.214  0.00  0.00     0.038 C 
BRANCH  18  19
HETATM   19  C   UNK N   1      25.569  28.058  -3.879  0.00  0.00     0.000 C 
HETATM   20  C   UNK N   1      26.385  29.309  -3.629  0.00  0.00     0.005 C 
ENDBRANCH  18  19
ENDBRANCH   1  18
BRANCH   3  21
HETATM   21  O   UNK N   1      29.841  24.068  -4.836  0.00  0.00    -0.360 OA
HETATM   22  H   UNK N   1      30.144  23.211  -5.065  0.00  0.00     0.217 HD
ENDBRANCH   3  21
TORSDOF 3
ENDMDL
MODEL 3
REMARK VINA RESULT:      -6.8     12.606     15.604
REMARK  3 active torsions:
REMARK  status: ('A' for Active; 'I' for Inactive)
REMARK    1  A    between atoms: C_2  and  C_3 
REMARK    2  A    between atoms: C_3  and  C_4 
REMARK    3  A    between atoms: C_6  and  O_21 
ROOT
HETATM    1  C   UNK N   1      26.976  19.919   4.810  0.00  0.00    -0.053 A 
HETATM    2  C   UNK N   1      27.662  19.028   3.986  0.00  0.00     0.044 A 
HETATM    3  C   UNK N   1      28.559  18.096   4.523  0.00  0.00     0.075 A 
HETATM    4  C   UNK N   1      28.777  18.053   5.920  0.00  0.00     0.017 A 
HETATM    5  C   UNK N   1      28.081  18.958   6.755  0.00  0.00     0.080 A 
HETATM    6  C   UNK N   1      27.190  19.882   6.191  0.00  0.00     0.044 A 
HETATM    7  O   UNK N   1      28.238  18.948   8.100  0.00  0.00    -0.340 OA
HETATM    8  C   UNK N   1      29.131  18.144   8.802  0.00  0.00     0.065 C 
HETATM    9  C   UNK N   1      30.254  17.602   7.892  0.00  0.00     0.032 C 
HETATM   10  C   UNK N   1      29.695  17.037   6.589  0.00  0.00     0.054 C 
HETATM   11  C   UNK N   1      30.801  16.482   5.723  0.00  0.00    -0.014 C 
HETATM   12  C   UNK N   1      31.960  16.029   6.228  0.00  0.00    -0.087 C 
HETATM   13  C   UNK N   1      32.271  16.073   7.705  0.00  0.00     0.034 C 
HETATM   14  C   UNK N   1      31.110  16.539   8.587  0.00  0.00     0.013 C 
HETATM   15  C   UNK N   1      32.996  15.503   5.297  0.00  0.00     0.043 C 
HETATM   16  C   UNK N   1      28.336  17.023   9.458  0.00  0.00     0.046 C 
HETATM   17  C   UNK N   1      29.765  18.983   9.896  0.00  0.00     0.046 C 
ENDROOT
BRANCH   1  18
HETATM   18  C   UNK N   1      26.034  20.907   4.172  0.00  0.00     0.038 C 
BRANCH  18  19
HETATM   19  C   UNK N   1      25.369  20.418   2.890  0.00  0.00     0.000 C 
HETATM   20  C   UNK N   1      23.860  20.456   3.018  0.00  0.00     0.005 C 
ENDBRANCH  18  19
ENDBRANCH   1  18
BRANCH   3  21
HETATM   21  O   UNK N   1      29.183  17.254   3.685  0.00  0.00    -0.360 OA
HETATM   22  H   UNK N   1      28.745  16.508   3.326  0.00  0.00     0.217 HD
ENDBRANCH   3  21
TORSDOF 3
ENDMDL
MODEL 4
REMARK VINA RESULT:      -6.7     24.512     27.710
REMARK  3 active torsions:
REMARK  status: ('A' for Active; 'I' for Inactive)
REMARK    1  A    between atoms: C_2  and  C_3 
REMARK    2  A    between atoms: C_3  and  C_4 
REMARK    3  A    between atoms: C_6  and  O_21 
ROOT
HETATM    1  C   UNK N   1      26.153  27.081  -4.513  0.00  0.00    -0.053 A 
HETATM    2  C   UNK N   1      25.490  26.268  -5.432  0.00  0.00     0.044 A 
HETATM    3  C   UNK N   1      26.005  25.016  -5.788  0.00  0.00     0.075 A 
HETATM    4  C   UNK N   1      27.214  24.562  -5.212  0.00  0.00     0.017 A 
HETATM    5  C   UNK N   1      27.886  25.386  -4.280  0.00  0.00     0.080 A 
HETATM    6  C   UNK N   1      27.350  26.638  -3.942  0.00  0.00     0.044 A 
HETATM    7  O   UNK N   1      29.037  24.993  -3.683  0.00  0.00    -0.340 OA
HETATM    8  C   UNK N   1      29.729  23.819  -3.961  0.00  0.00     0.065 C 
HETATM    9  C   UNK N   1      29.330  23.227  -5.330  0.00  0.00     0.032 C 
HETATM   10  C   UNK N   1      27.815  23.192  -5.504  0.00  0.00     0.054 C 
HETATM   11  C   UNK N   1      27.438  22.582  -6.833  0.00  0.00    -0.014 C 
HETATM   12  C   UNK N   1      28.225  21.705  -7.478  0.00  0.00    -0.087 C 
HETATM   13  C   UNK N   1      29.574  21.285  -6.945  0.00  0.00     0.034 C 
HETATM   14  C   UNK N   1      29.905  21.824  -5.552  0.00  0.00     0.013 C 
HETATM   15  C   UNK N   1      27.774  21.158  -8.788  0.00  0.00     0.043 C 
HETATM   16  C   UNK N   1      29.473  22.843  -2.820  0.00  0.00     0.046 C 
HETATM   17  C   UNK N   1      31.212  24.138  -3.992  0.00  0.00     0.046 C 
ENDROOT
BRANCH   1  18
HETATM   18  C   UNK N   1      25.556  28.423  -4.180  0.00  0.00     0.038 C 
BRANCH  18  19
HETATM   19  C   UNK N   1      26.508  29.390  -3.484  0.00  0.00     0.000 C 
HETATM   20  C   UNK N   1      27.036  30.422  -4.459  0.00  0.00     0.005 C 
ENDBRANCH  18  19
ENDBRANCH   1  18
BRANCH   3  21
HETATM   21  O   UNK N   1      25.320  24.270  -6.669  0.00  0.00    -0.360 OA
HETATM   22  H   UNK N   1      25.232  24.530  -7.565  0.00  0.00     0.217 HD
ENDBRANCH   3  21
TORSDOF 3
ENDMDL
MODEL 5
REMARK VINA RESULT:      -6.6     11.741     14.215
REMARK  3 active torsions:
REMARK  status: ('A' for Active; 'I' for Inactive)
REMARK    1  A    between atoms: C_2  and  C_3 
REMARK    2  A    between atoms: C_3  and  C_4 
REMARK    3  A    between atoms: C_6  and  O_21 
ROOT
HETATM    1  C   UNK N   1      31.888  16.532   8.174  0.00  0.00    -0.053 A 
HETATM    2  C   UNK N   1      31.134  17.526   8.797  0.00  0.00     0.044 A 
HETATM    3  C   UNK N   1      29.981  18.040   8.192  0.00  0.00     0.075 A 
HETATM    4  C   UNK N   1      29.568  17.551   6.931  0.00  0.00     0.017 A 
HETATM    5  C   UNK N   1      30.333  16.544   6.299  0.00  0.00     0.080 A 
HETATM    6  C   UNK N   1      31.486  16.046   6.926  0.00  0.00     0.044 A 
HETATM    7  O   UNK N   1      29.974  16.025   5.100  0.00  0.00    -0.340 OA
HETATM    8  C   UNK N   1      28.904  16.457   4.323  0.00  0.00     0.065 C 
HETATM    9  C   UNK N   1      28.444  17.877   4.717  0.00  0.00     0.032 C 
HETATM   10  C   UNK N   1      28.299  18.019   6.229  0.00  0.00     0.054 C 
HETATM   11  C   UNK N   1      27.818  19.402   6.599  0.00  0.00    -0.014 C 
HETATM   12  C   UNK N   1      27.094  20.166   5.763  0.00  0.00    -0.087 C 
HETATM   13  C   UNK N   1      26.732  19.718   4.367  0.00  0.00     0.034 C 
HETATM   14  C   UNK N   1      27.132  18.278   4.035  0.00  0.00     0.013 C 
HETATM   15  C   UNK N   1      26.667  21.520   6.211  0.00  0.00     0.043 C 
HETATM   16  C   UNK N   1      27.783  15.435   4.459  0.00  0.00     0.046 C 
HETATM   17  C   UNK N   1      29.352  16.484   2.873  0.00  0.00     0.046 C 
ENDROOT
BRANCH   1  18
HETATM   18  C   UNK N   1      33.125  16.028   8.868  0.00  0.00     0.038 C 
BRANCH  18  19
HETATM   19  C   UNK N   1      34.123  17.112   9.261  0.00  0.00     0.000 C 
HETATM   20  C   UNK N   1      34.510  17.948   8.059  0.00  0.00     0.005 C 
ENDBRANCH  18  19
ENDBRANCH   1  18
BRANCH   3  21
HETATM   21  O   UNK N   1      29.287  18.988   8.842  0.00  0.00    -0.360 OA
HETATM   22  H   UNK N   1      29.350  19.891   8.602  0.00  0.00     0.217 HD
ENDBRANCH   3  21
TORSDOF 3
ENDMDL
MODEL 6
REMARK VINA RESULT:      -6.5     23.428     26.275
REMARK  3 active torsions:
REMARK  status: ('A' for Active; 'I' for Inactive)
REMARK    1  A    between atoms: C_2  and  C_3 
REMARK    2  A    between atoms: C_3  and  C_4 
REMARK    3  A    between atoms: C_6  and  O_21 
ROOT
HETATM    1  C   UNK N   1      27.890  21.981  -7.786  0.00  0.00    -0.053 A 
HETATM    2  C   UNK N   1      28.612  20.791  -7.882  0.00  0.00     0.044 A 
HETATM    3  C   UNK N   1      29.554  20.440  -6.907  0.00  0.00     0.075 A 
HETATM    4  C   UNK N   1      29.784  21.299  -5.808  0.00  0.00     0.017 A 
HETATM    5  C   UNK N   1      29.052  22.505  -5.711  0.00  0.00     0.080 A 
HETATM    6  C   UNK N   1      28.115  22.835  -6.702  0.00  0.00     0.044 A 
HETATM    7  O   UNK N   1      29.218  23.356  -4.670  0.00  0.00    -0.340 OA
HETATM    8  C   UNK N   1      30.151  23.208  -3.649  0.00  0.00     0.065 C 
HETATM    9  C   UNK N   1      31.293  22.248  -4.048  0.00  0.00     0.032 C 
HETATM   10  C   UNK N   1      30.751  20.968  -4.678  0.00  0.00     0.054 C 
HETATM   11  C   UNK N   1      31.876  20.024  -5.035  0.00  0.00    -0.014 C 
HETATM   12  C   UNK N   1      33.058  20.031  -4.398  0.00  0.00    -0.087 C 
HETATM   13  C   UNK N   1      33.376  21.011  -3.294  0.00  0.00     0.034 C 
HETATM   14  C   UNK N   1      32.202  21.894  -2.867  0.00  0.00     0.013 C 
HETATM   15  C   UNK N   1      34.111  19.067  -4.820  0.00  0.00     0.043 C 
HETATM   16  C   UNK N   1      29.414  22.733  -2.405  0.00  0.00     0.046 C 
HETATM   17  C   UNK N   1      30.753  24.570  -3.356  0.00  0.00     0.046 C 
ENDROOT
BRANCH   1  18
HETATM   18  C   UNK N   1      26.900  22.309  -8.872  0.00  0.00     0.038 C 
BRANCH  18  19
HETATM   19  C   UNK N   1      25.698  21.374  -8.944  0.00  0.00     0.000 C 
HETATM   20  C   UNK N   1      24.874  21.458  -7.676  0.00  0.00     0.005 C 
ENDBRANCH  18  19
ENDBRANCH   1  18
BRANCH   3  21
HETATM   21  O   UNK N   1      30.211  19.278  -7.044  0.00  0.00    -0.360 OA
HETATM   22  H   UNK N   1      30.977  19.088  -6.539  0.00  0.00     0.217 HD
ENDBRANCH   3  21
TORSDOF 3
ENDMDL
MODEL 7
REMARK VINA RESULT:      -6.5     17.073     19.627
REMARK  3 active torsions:
REMARK  status: ('A' for Active; 'I' for Inactive)
REMARK    1  A    between atoms: C_2  and  C_3 
REMARK    2  A    between atoms: C_3  and  C_4 
REMARK    3  A    between atoms: C_6  and  O_21 
ROOT
HETATM    1  C   UNK N   1      26.767  18.846   4.366  0.00  0.00    -0.053 A 
HETATM    2  C   UNK N   1      26.355  19.909   3.563  0.00  0.00     0.044 A 
HETATM    3  C   UNK N   1      24.998  20.122   3.291  0.00  0.00     0.075 A 
HETATM    4  C   UNK N   1      24.025  19.251   3.834  0.00  0.00     0.017 A 
HETATM    5  C   UNK N   1      24.443  18.173   4.648  0.00  0.00     0.080 A 
HETATM    6  C   UNK N   1      25.809  17.980   4.904  0.00  0.00     0.044 A 
HETATM    7  O   UNK N   1      23.553  17.319   5.209  0.00  0.00    -0.340 OA
HETATM    8  C   UNK N   1      22.179  17.334   4.998  0.00  0.00     0.065 C 
HETATM    9  C   UNK N   1      21.803  18.102   3.712  0.00  0.00     0.032 C 
HETATM   10  C   UNK N   1      22.527  19.443   3.631  0.00  0.00     0.054 C 
HETATM   11  C   UNK N   1      22.127  20.198   2.385  0.00  0.00    -0.014 C 
HETATM   12  C   UNK N   1      20.943  20.016   1.776  0.00  0.00    -0.087 C 
HETATM   13  C   UNK N   1      19.928  19.012   2.265  0.00  0.00     0.034 C 
HETATM   14  C   UNK N   1      20.293  18.325   3.583  0.00  0.00     0.013 C 
HETATM   15  C   UNK N   1      20.636  20.802   0.549  0.00  0.00     0.043 C 
HETATM   16  C   UNK N   1      21.520  17.931   6.234  0.00  0.00     0.046 C 
HETATM   17  C   UNK N   1      21.707  15.898   4.852  0.00  0.00     0.046 C 
ENDROOT
BRANCH   1  18
HETATM   18  C   UNK N   1      28.241  18.661   4.612  0.00  0.00     0.038 C 
BRANCH  18  19
HETATM   19  C   UNK N   1      28.598  18.175   6.013  0.00  0.00     0.000 C 
HETATM   20  C   UNK N   1      28.176  19.187   7.058  0.00  0.00     0.005 C 
ENDBRANCH  18  19
ENDBRANCH   1  18
BRANCH   3  21
HETATM   21  O   UNK N   1      24.657  21.168   2.522  0.00  0.00    -0.360 OA
HETATM   22  H   UNK N   1      25.265  21.856   2.336  0.00  0.00     0.217 HD
ENDBRANCH   3  21
TORSDOF 3
ENDMDL
MODEL 8
REMARK VINA RESULT:      -6.3      2.271      5.738
REMARK  3 active torsions:
REMARK  status: ('A' for Active; 'I' for Inactive)
REMARK    1  A    between atoms: C_2  and  C_3 
REMARK    2  A    between atoms: C_3  and  C_4 
REMARK    3  A    between atoms: C_6  and  O_21 
ROOT
HETATM    1  C   UNK N   1      34.614  10.626  12.545  0.00  0.00    -0.053 A 
HETATM    2  C   UNK N   1      34.818  11.977  12.826  0.00  0.00     0.044 A 
HETATM    3  C   UNK N   1      35.166  12.399  14.114  0.00  0.00     0.075 A 
HETATM    4  C   UNK N   1      35.316  11.449  15.151  0.00  0.00     0.017 A 
HETATM    5  C   UNK N   1      35.109  10.080  14.866  0.00  0.00     0.080 A 
HETATM    6  C   UNK N   1      34.759   9.682  13.567  0.00  0.00     0.044 A 
HETATM    7  O   UNK N   1      35.258   9.125  15.816  0.00  0.00    -0.340 OA
HETATM    8  C   UNK N   1      35.533   9.361  17.159  0.00  0.00     0.065 C 
HETATM    9  C   UNK N   1      35.193  10.810  17.570  0.00  0.00     0.032 C 
HETATM   10  C   UNK N   1      35.744  11.819  16.566  0.00  0.00     0.054 C 
HETATM   11  C   UNK N   1      35.433  13.233  16.996  0.00  0.00    -0.014 C 
HETATM   12  C   UNK N   1      35.241  13.575  18.281  0.00  0.00    -0.087 C 
HETATM   13  C   UNK N   1      35.282  12.564  19.402  0.00  0.00     0.034 C 
HETATM   14  C   UNK N   1      35.699  11.155  18.974  0.00  0.00     0.013 C 
HETATM   15  C   UNK N   1      34.934  14.994  18.611  0.00  0.00     0.043 C 
HETATM   16  C   UNK N   1      36.998   9.026  17.404  0.00  0.00     0.046 C 
HETATM   17  C   UNK N   1      34.682   8.417  17.990  0.00  0.00     0.046 C 
ENDROOT
BRANCH   1  18
HETATM   18  C   UNK N   1      34.228  10.234  11.143  0.00  0.00     0.038 C 
BRANCH  18  19
HETATM   19  C   UNK N   1      33.710   8.807  10.999  0.00  0.00     0.000 C 
HETATM   20  C   UNK N   1      32.438   8.776  10.177  0.00  0.00     0.005 C 
ENDBRANCH  18  19
ENDBRANCH   1  18
BRANCH   3  21
HETATM   21  O   UNK N   1      35.361  13.710  14.326  0.00  0.00    -0.360 OA
HETATM   22  H   UNK N   1      35.189  14.102  15.159  0.00  0.00     0.217 HD
ENDBRANCH   3  21
TORSDOF 3
ENDMDL
MODEL 9
REMARK VINA RESULT:      -6.2      2.150      6.910
REMARK  3 active torsions:
REMARK  status: ('A' for Active; 'I' for Inactive)
REMARK    1  A    between atoms: C_2  and  C_3 
REMARK    2  A    between atoms: C_3  and  C_4 
REMARK    3  A    between atoms: C_6  and  O_21 
ROOT
HETATM    1  C   UNK N   1      35.495  10.390  18.128  0.00  0.00    -0.053 A 
HETATM    2  C   UNK N   1      36.107  10.738  19.331  0.00  0.00     0.044 A 
HETATM    3  C   UNK N   1      35.603  10.277  20.554  0.00  0.00     0.075 A 
HETATM    4  C   UNK N   1      34.457   9.449  20.577  0.00  0.00     0.017 A 
HETATM    5  C   UNK N   1      33.837   9.097  19.356  0.00  0.00     0.080 A 
HETATM    6  C   UNK N   1      34.361   9.572  18.145  0.00  0.00     0.044 A 
HETATM    7  O   UNK N   1      32.749   8.290  19.318  0.00  0.00    -0.340 OA
HETATM    8  C   UNK N   1      32.073   7.796  20.429  0.00  0.00     0.065 C 
HETATM    9  C   UNK N   1      32.380   8.616  21.700  0.00  0.00     0.032 C 
HETATM   10  C   UNK N   1      33.877   8.863  21.859  0.00  0.00     0.054 C 
HETATM   11  C   UNK N   1      34.166   9.638  23.123  0.00  0.00    -0.014 C 
HETATM   12  C   UNK N   1      33.357   9.606  24.194  0.00  0.00    -0.087 C 
HETATM   13  C   UNK N   1      32.068   8.820  24.211  0.00  0.00     0.034 C 
HETATM   14  C   UNK N   1      31.831   7.956  22.970  0.00  0.00     0.013 C 
HETATM   15  C   UNK N   1      33.719  10.406  25.396  0.00  0.00     0.043 C 
HETATM   16  C   UNK N   1      32.448   6.329  20.591  0.00  0.00     0.046 C 
HETATM   17  C   UNK N   1      30.583   7.880  20.153  0.00  0.00     0.046 C 
ENDROOT
BRANCH   1  18
HETATM   18  C   UNK N   1      36.076  10.927  16.846  0.00  0.00     0.038 C 
BRANCH  18  19
HETATM   19  C   UNK N   1      35.203  11.952  16.130  0.00  0.00     0.000 C 
HETATM   20  C   UNK N   1      34.924  13.141  17.027  0.00  0.00     0.005 C 
ENDBRANCH  18  19
ENDBRANCH   1  18
BRANCH   3  21
HETATM   21  O   UNK N   1      36.239  10.634  21.681  0.00  0.00    -0.360 OA
HETATM   22  H   UNK N   1      35.766  10.868  22.456  0.00  0.00     0.217 HD
ENDBRANCH   3  21
TORSDOF 3
ENDMDL
