MODEL 1
REMARK VINA RESULT:      -7.2      0.000      0.000
REMARK  3 active torsions:
REMARK  status: ('A' for Active; 'I' for Inactive)
REMARK    1  A    between atoms: C_2  and  C_3 
REMARK    2  A    between atoms: N_6  and  C_9 
REMARK    3  A    between atoms: C_19  and  C_23 
ROOT
HETATM    1  C   UNK N   1      32.666  16.967   5.358  0.00  0.00     0.034 A 
HETATM    2  C   UNK N   1      33.359  16.261   6.306  0.00  0.00    -0.000 A 
HETATM    3  C   UNK N   1      32.571  16.266   7.420  0.00  0.00     0.105 A 
HETATM    4  N   UNK N   1      31.442  16.968   7.152  0.00  0.00    -0.283 N 
HETATM    5  N   UNK N   1      31.501  17.396   5.895  0.00  0.00    -0.301 N 
ATOM      6  HN  UNK N   1      30.791  17.952   5.418  1.00  0.00     0.187 HD
HETATM    7  C   UNK N   1      33.037  15.571   8.618  0.00  0.00     0.153 A 
HETATM    8  N   UNK N   1      32.434  15.444   9.815  0.00  0.00    -0.282 N 
ATOM      9  HN  UNK N   1      31.523  15.820  10.080  1.00  0.00     0.188 HD
HETATM   10  N   UNK N   1      33.257  14.732  10.585  0.00  0.00    -0.282 N 
ATOM     11  HN  UNK N   1      33.095  14.463  11.556  1.00  0.00     0.188 HD
HETATM   12  C   UNK N   1      34.345  14.432   9.840  0.00  0.00     0.141 A 
HETATM   13  N   UNK N   1      34.225  14.951   8.607  0.00  0.00    -0.314 N 
HETATM   14  C   UNK N   1      35.171  14.890   7.483  0.00  0.00     0.137 A 
HETATM   15  C   UNK N   1      34.695  15.590   6.189  0.00  0.00     0.063 A 
ENDROOT
BRANCH   4  16
HETATM   16  C   UNK N   1      30.288  17.252   8.000  0.00  0.00     0.108 C 
HETATM   17  C   UNK N   1      30.540  18.347   8.998  0.00  0.00     0.027 C 
HETATM   18  C   UNK N   1      29.144  18.705   9.455  0.00  0.00     0.002 C 
HETATM   19  C   UNK N   1      28.235  18.447   8.256  0.00  0.00     0.002 C 
HETATM   20  C   UNK N   1      29.059  17.677   7.234  0.00  0.00     0.027 C 
ENDBRANCH   4  16
BRANCH   1  21
HETATM   21  C   UNK N   1      33.125  17.200   3.953  0.00  0.00     0.055 C 
HETATM   22  C   UNK N   1      32.039  16.910   2.936  0.00  0.00     0.011 C 
ENDBRANCH   1  21
BRANCH  12  23
HETATM   23  C   UNK N   1      35.504  13.643  10.312  0.00  0.00     0.050 A 
HETATM   24  C   UNK N   1      36.590  14.115  11.046  0.00  0.00     0.023 A 
HETATM   25  C   UNK N   1      37.543  13.094  11.343  0.00  0.00     0.009 A 
HETATM   26  C   UNK N   1      37.201  11.826  10.852  0.00  0.00     0.050 A 
HETATM   27  S   UNK N   1      35.755  12.021  10.073  0.00  0.00    -0.098 SA
ENDBRANCH  12  23
TORSDOF 3
ENDMDL
MODEL 2
REMARK VINA RESULT:      -7.2      2.660      7.281
REMARK  3 active torsions:
REMARK  status: ('A' for Active; 'I' for Inactive)
REMARK    1  A    between atoms: C_2  and  C_3 
REMARK    2  A    between atoms: N_6  and  C_9 
REMARK    3  A    between atoms: C_19  and  C_23 
ROOT
HETATM    1  C   UNK N   1      37.840  13.349  10.515  0.00  0.00     0.034 A 
HETATM    2  C   UNK N   1      36.758  13.829   9.825  0.00  0.00    -0.000 A 
HETATM    3  C   UNK N   1      35.782  14.024  10.758  0.00  0.00     0.105 A 
HETATM    4  N   UNK N   1      36.261  13.659  11.973  0.00  0.00    -0.283 N 
HETATM    5  N   UNK N   1      37.516  13.246  11.824  0.00  0.00    -0.301 N 
ATOM      6  HN  UNK N   1      38.127  12.910  12.568  1.00  0.00     0.187 HD
HETATM    7  C   UNK N   1      34.489  14.551  10.328  0.00  0.00     0.153 A 
HETATM    8  N   UNK N   1      33.395  14.823  11.064  0.00  0.00    -0.282 N 
ATOM      9  HN  UNK N   1      33.295  14.706  12.072  1.00  0.00     0.188 HD
HETATM   10  N   UNK N   1      32.467  15.275  10.219  0.00  0.00    -0.282 N 
ATOM     11  HN  UNK N   1      31.519  15.566  10.461  1.00  0.00     0.188 HD
HETATM   12  C   UNK N   1      33.016  15.277   8.983  0.00  0.00     0.141 A 
HETATM   13  N   UNK N   1      34.280  14.825   9.032  0.00  0.00    -0.314 N 
HETATM   14  C   UNK N   1      35.239  14.640   7.933  0.00  0.00     0.137 A 
HETATM   15  C   UNK N   1      36.628  14.112   8.359  0.00  0.00     0.063 A 
ENDROOT
BRANCH   4  16
HETATM   16  C   UNK N   1      35.619  13.689  13.284  0.00  0.00     0.108 C 
HETATM   17  C   UNK N   1      34.965  12.387  13.655  0.00  0.00     0.027 C 
HETATM   18  C   UNK N   1      34.737  12.545  15.142  0.00  0.00     0.002 C 
HETATM   19  C   UNK N   1      35.873  13.430  15.646  0.00  0.00     0.002 C 
HETATM   20  C   UNK N   1      36.564  14.005  14.418  0.00  0.00     0.027 C 
ENDBRANCH   4  16
BRANCH   1  21
HETATM   21  C   UNK N   1      39.168  13.017   9.910  0.00  0.00     0.055 C 
HETATM   22  C   UNK N   1      39.199  11.620   9.320  0.00  0.00     0.011 C 
ENDBRANCH   1  21
BRANCH  12  23
HETATM   23  C   UNK N   1      32.327  15.715   7.750  0.00  0.00     0.050 A 
HETATM   24  C   UNK N   1      32.057  17.027   7.367  0.00  0.00     0.023 A 
HETATM   25  C   UNK N   1      31.374  17.109   6.115  0.00  0.00     0.009 A 
HETATM   26  C   UNK N   1      31.118  15.868   5.516  0.00  0.00     0.050 A 
HETATM   27  S   UNK N   1      31.733  14.734   6.552  0.00  0.00    -0.098 SA
ENDBRANCH  12  23
TORSDOF 3
ENDMDL
MODEL 3
REMARK VINA RESULT:      -7.0      4.580      6.566
REMARK  3 active torsions:
REMARK  status: ('A' for Active; 'I' for Inactive)
REMARK    1  A    between atoms: C_2  and  C_3 
REMARK    2  A    between atoms: N_6  and  C_9 
REMARK    3  A    between atoms: C_19  and  C_23 
ROOT
HETATM    1  C   UNK N   1      28.903  18.331   8.232  0.00  0.00     0.034 A 
HETATM    2  C   UNK N   1      29.617  17.668   7.268  0.00  0.00    -0.000 A 
HETATM    3  C   UNK N   1      28.974  17.920   6.092  0.00  0.00     0.105 A 
HETATM    4  N   UNK N   1      27.895  18.703   6.344  0.00  0.00    -0.283 N 
HETATM    5  N   UNK N   1      27.852  18.952   7.650  0.00  0.00    -0.301 N 
ATOM      6  HN  UNK N   1      27.147  19.513   8.128  1.00  0.00     0.187 HD
HETATM    7  C   UNK N   1      29.510  17.353   4.857  0.00  0.00     0.153 A 
HETATM    8  N   UNK N   1      29.050  17.470   3.598  0.00  0.00    -0.282 N 
ATOM      9  HN  UNK N   1      28.230  17.996   3.296  1.00  0.00     0.188 HD
HETATM   10  N   UNK N   1      29.873  16.765   2.822  0.00  0.00    -0.282 N 
ATOM     11  HN  UNK N   1      29.798  16.647   1.810  1.00  0.00     0.188 HD
HETATM   12  C   UNK N   1      30.826  16.236   3.622  0.00  0.00     0.141 A 
HETATM   13  N   UNK N   1      30.613  16.592   4.900  0.00  0.00    -0.314 N 
HETATM   14  C   UNK N   1      31.382  16.231   6.100  0.00  0.00     0.137 A 
HETATM   15  C   UNK N   1      30.859  16.841   7.420  0.00  0.00     0.063 A 
ENDROOT
BRANCH   4  16
HETATM   16  C   UNK N   1      26.901  19.256   5.430  0.00  0.00     0.108 C 
HETATM   17  C   UNK N   1      27.493  20.158   4.384  0.00  0.00     0.027 C 
HETATM   18  C   UNK N   1      26.374  20.272   3.374  0.00  0.00     0.002 C 
HETATM   19  C   UNK N   1      25.620  18.947   3.437  0.00  0.00     0.002 C 
HETATM   20  C   UNK N   1      26.124  18.210   4.669  0.00  0.00     0.027 C 
ENDBRANCH   4  16
BRANCH   1  21
HETATM   21  C   UNK N   1      29.253  18.371   9.687  0.00  0.00     0.055 C 
HETATM   22  C   UNK N   1      28.983  17.051  10.381  0.00  0.00     0.011 C 
ENDBRANCH   1  21
BRANCH  12  23
HETATM   23  C   UNK N   1      31.946  15.386   3.161  0.00  0.00     0.050 A 
HETATM   24  C   UNK N   1      33.254  15.795   2.913  0.00  0.00     0.023 A 
HETATM   25  C   UNK N   1      34.094  14.725   2.477  0.00  0.00     0.009 A 
HETATM   26  C   UNK N   1      33.450  13.484   2.391  0.00  0.00     0.050 A 
HETATM   27  S   UNK N   1      31.883  13.759   2.846  0.00  0.00    -0.098 SA
ENDBRANCH  12  23
TORSDOF 3
ENDMDL
MODEL 4
REMARK VINA RESULT:      -6.9     13.476     16.234
REMARK  3 active torsions:
REMARK  status: ('A' for Active; 'I' for Inactive)
REMARK    1  A    between atoms: C_2  and  C_3 
REMARK    2  A    between atoms: N_6  and  C_9 
REMARK    3  A    between atoms: C_19  and  C_23 
ROOT
HETATM    1  C   UNK N   1      26.531  23.317  -7.096  0.00  0.00     0.034 A 
HETATM    2  C   UNK N   1      27.741  23.011  -6.531  0.00  0.00    -0.000 A 
HETATM    3  C   UNK N   1      28.036  24.051  -5.701  0.00  0.00     0.105 A 
HETATM    4  N   UNK N   1      27.036  24.965  -5.774  0.00  0.00    -0.283 N 
HETATM    5  N   UNK N   1      26.118  24.517  -6.626  0.00  0.00    -0.301 N 
ATOM      6  HN  UNK N   1      25.255  24.996  -6.881  1.00  0.00     0.187 HD
HETATM    7  C   UNK N   1      29.278  24.013  -4.932  0.00  0.00     0.153 A 
HETATM    8  N   UNK N   1      29.766  24.914  -4.060  0.00  0.00    -0.282 N 
ATOM      9  HN  UNK N   1      29.328  25.793  -3.784  1.00  0.00     0.188 HD
HETATM   10  N   UNK N   1      30.933  24.436  -3.627  0.00  0.00    -0.282 N 
ATOM     11  HN  UNK N   1      31.560  24.884  -2.958  1.00  0.00     0.188 HD
HETATM   12  C   UNK N   1      31.131  23.246  -4.239  0.00  0.00     0.141 A 
HETATM   13  N   UNK N   1      30.106  22.966  -5.061  0.00  0.00    -0.314 N 
HETATM   14  C   UNK N   1      29.913  21.799  -5.933  0.00  0.00     0.137 A 
HETATM   15  C   UNK N   1      28.593  21.794  -6.737  0.00  0.00     0.063 A 
ENDROOT
BRANCH   4  16
HETATM   16  C   UNK N   1      26.871  26.236  -5.076  0.00  0.00     0.108 C 
HETATM   17  C   UNK N   1      25.823  27.120  -5.693  0.00  0.00     0.027 C 
HETATM   18  C   UNK N   1      25.574  28.144  -4.608  0.00  0.00     0.002 C 
HETATM   19  C   UNK N   1      25.815  27.418  -3.288  0.00  0.00     0.002 C 
HETATM   20  C   UNK N   1      26.474  26.089  -3.627  0.00  0.00     0.027 C 
ENDBRANCH   4  16
BRANCH   1  21
HETATM   21  C   UNK N   1      25.785  22.447  -8.058  0.00  0.00     0.055 C 
HETATM   22  C   UNK N   1      24.814  21.515  -7.359  0.00  0.00     0.011 C 
ENDBRANCH   1  21
BRANCH  12  23
HETATM   23  C   UNK N   1      32.308  22.373  -4.034  0.00  0.00     0.050 A 
HETATM   24  C   UNK N   1      32.500  21.464  -2.996  0.00  0.00     0.023 A 
HETATM   25  C   UNK N   1      33.748  20.775  -3.088  0.00  0.00     0.009 A 
HETATM   26  C   UNK N   1      34.525  21.135  -4.198  0.00  0.00     0.050 A 
HETATM   27  S   UNK N   1      33.650  22.284  -5.004  0.00  0.00    -0.098 SA
ENDBRANCH  12  23
TORSDOF 3
ENDMDL
MODEL 5
REMARK VINA RESULT:      -6.8     13.679     16.927
REMARK  3 active torsions:
REMARK  status: ('A' for Active; 'I' for Inactive)
REMARK    1  A    between atoms: C_2  and  C_3 
REMARK    2  A    between atoms: N_6  and  C_9 
REMARK    3  A    between atoms: C_19  and  C_23 
ROOT
HETATM    1  C   UNK N   1      29.557  20.856  -6.799  0.00  0.00     0.034 A 
HETATM    2  C   UNK N   1      29.053  22.039  -6.327  0.00  0.00    -0.000 A 
HETATM    3  C   UNK N   1      29.974  22.504  -5.434  0.00  0.00     0.105 A 
HETATM    4  N   UNK N   1      30.997  21.616  -5.361  0.00  0.00    -0.283 N 
HETATM    5  N   UNK N   1      30.742  20.610  -6.193  0.00  0.00    -0.301 N 
ATOM      6  HN  UNK N   1      31.336  19.796  -6.347  1.00  0.00     0.187 HD
HETATM    7  C   UNK N   1      29.725  23.776  -4.760  0.00  0.00     0.153 A 
HETATM    8  N   UNK N   1      30.485  24.421  -3.855  0.00  0.00    -0.282 N 
ATOM      9  HN  UNK N   1      31.388  24.115  -3.490  1.00  0.00     0.188 HD
HETATM   10  N   UNK N   1      29.830  25.535  -3.528  0.00  0.00    -0.282 N 
ATOM     11  HN  UNK N   1      30.136  26.244  -2.861  1.00  0.00     0.188 HD
HETATM   12  C   UNK N   1      28.684  25.552  -4.247  0.00  0.00     0.141 A 
HETATM   13  N   UNK N   1      28.601  24.458  -5.021  0.00  0.00    -0.314 N 
HETATM   14  C   UNK N   1      27.528  24.057  -5.942  0.00  0.00     0.137 A 
HETATM   15  C   UNK N   1      27.774  22.730  -6.695  0.00  0.00     0.063 A 
ENDROOT
BRANCH   4  16
HETATM   16  C   UNK N   1      32.222  21.657  -4.569  0.00  0.00     0.108 C 
HETATM   17  C   UNK N   1      32.004  21.317  -3.121  0.00  0.00     0.027 C 
HETATM   18  C   UNK N   1      33.409  21.050  -2.630  0.00  0.00     0.002 C 
HETATM   19  C   UNK N   1      34.169  20.487  -3.827  0.00  0.00     0.002 C 
HETATM   20  C   UNK N   1      33.292  20.707  -5.051  0.00  0.00     0.027 C 
ENDBRANCH   4  16
BRANCH   1  21
HETATM   21  C   UNK N   1      28.904  19.994  -7.833  0.00  0.00     0.055 C 
HETATM   22  C   UNK N   1      29.435  18.573  -7.818  0.00  0.00     0.011 C 
ENDBRANCH   1  21
BRANCH  12  23
HETATM   23  C   UNK N   1      27.665  26.623  -4.191  0.00  0.00     0.050 A 
HETATM   24  C   UNK N   1      26.479  26.607  -3.460  0.00  0.00     0.023 A 
HETATM   25  C   UNK N   1      25.712  27.801  -3.625  0.00  0.00     0.009 A 
HETATM   26  C   UNK N   1      26.298  28.751  -4.472  0.00  0.00     0.050 A 
HETATM   27  S   UNK N   1      27.720  28.079  -4.984  0.00  0.00    -0.098 SA
ENDBRANCH  12  23
TORSDOF 3
ENDMDL
MODEL 6
REMARK VINA RESULT:      -6.6     11.812     13.185
REMARK  3 active torsions:
REMARK  status: ('A' for Active; 'I' for Inactive)
REMARK    1  A    between atoms: C_2  and  C_3 
REMARK    2  A    between atoms: N_6  and  C_9 
REMARK    3  A    between atoms: C_19  and  C_23 
ROOT
HETATM    1  C   UNK N   1      19.457  14.322   2.744  0.00  0.00     0.034 A 
HETATM    2  C   UNK N   1      19.861  14.050   4.025  0.00  0.00    -0.000 A 
HETATM    3  C   UNK N   1      20.181  15.256   4.576  0.00  0.00     0.105 A 
HETATM    4  N   UNK N   1      19.987  16.225   3.647  0.00  0.00    -0.283 N 
HETATM    5  N   UNK N   1      19.547  15.655   2.529  0.00  0.00    -0.301 N 
ATOM      6  HN  UNK N   1      19.317  16.139   1.662  1.00  0.00     0.187 HD
HETATM    7  C   UNK N   1      20.640  15.301   5.962  0.00  0.00     0.153 A 
HETATM    8  N   UNK N   1      21.003  16.364   6.704  0.00  0.00    -0.282 N 
ATOM      9  HN  UNK N   1      21.008  17.340   6.407  1.00  0.00     0.188 HD
HETATM   10  N   UNK N   1      21.354  15.894   7.901  0.00  0.00    -0.282 N 
ATOM     11  HN  UNK N   1      21.684  16.445   8.695  1.00  0.00     0.188 HD
HETATM   12  C   UNK N   1      21.192  14.552   7.870  0.00  0.00     0.141 A 
HETATM   13  N   UNK N   1      20.748  14.162   6.663  0.00  0.00    -0.314 N 
HETATM   14  C   UNK N   1      20.456  12.805   6.180  0.00  0.00     0.137 A 
HETATM   15  C   UNK N   1      19.937  12.727   4.726  0.00  0.00     0.063 A 
ENDROOT
BRANCH   4  16
HETATM   16  C   UNK N   1      20.170  17.670   3.744  0.00  0.00     0.108 C 
HETATM   17  C   UNK N   1      21.603  18.098   3.594  0.00  0.00     0.027 C 
HETATM   18  C   UNK N   1      21.480  19.584   3.342  0.00  0.00     0.002 C 
HETATM   19  C   UNK N   1      20.155  19.772   2.608  0.00  0.00     0.002 C 
HETATM   20  C   UNK N   1      19.404  18.452   2.705  0.00  0.00     0.027 C 
ENDBRANCH   4  16
BRANCH   1  21
HETATM   21  C   UNK N   1      18.977  13.304   1.759  0.00  0.00     0.055 C 
HETATM   22  C   UNK N   1      18.767  13.892   0.377  0.00  0.00     0.011 C 
ENDBRANCH   1  21
BRANCH  12  23
HETATM   23  C   UNK N   1      21.463  13.638   9.001  0.00  0.00     0.050 A 
HETATM   24  C   UNK N   1      20.604  13.342  10.057  0.00  0.00     0.023 A 
HETATM   25  C   UNK N   1      21.171  12.419  10.988  0.00  0.00     0.009 A 
HETATM   26  C   UNK N   1      22.463  11.987  10.659  0.00  0.00     0.050 A 
HETATM   27  S   UNK N   1      22.850  12.763   9.251  0.00  0.00    -0.098 SA
ENDBRANCH  12  23
TORSDOF 3
ENDMDL
MODEL 7
REMARK VINA RESULT:      -6.4      2.483      3.984
REMARK  3 active torsions:
REMARK  status: ('A' for Active; 'I' for Inactive)
REMARK    1  A    between atoms: C_2  and  C_3 
REMARK    2  A    between atoms: N_6  and  C_9 
REMARK    3  A    between atoms: C_19  and  C_23 
ROOT
HETATM    1  C   UNK N   1      36.587  14.275   6.255  0.00  0.00     0.034 A 
HETATM    2  C   UNK N   1      36.453  14.096   7.606  0.00  0.00    -0.000 A 
HETATM    3  C   UNK N   1      35.307  14.748   7.954  0.00  0.00     0.105 A 
HETATM    4  N   UNK N   1      34.773  15.314   6.844  0.00  0.00    -0.283 N 
HETATM    5  N   UNK N   1      35.555  15.026   5.807  0.00  0.00    -0.301 N 
ATOM      6  HN  UNK N   1      35.402  15.322   4.843  1.00  0.00     0.187 HD
HETATM    7  C   UNK N   1      34.879  14.729   9.351  0.00  0.00     0.153 A 
HETATM    8  N   UNK N   1      33.795  15.293   9.916  0.00  0.00    -0.282 N 
ATOM      9  HN  UNK N   1      33.074  15.836   9.440  1.00  0.00     0.188 HD
HETATM   10  N   UNK N   1      33.847  15.006  11.217  0.00  0.00    -0.282 N 
ATOM     11  HN  UNK N   1      33.172  15.291  11.927  1.00  0.00     0.188 HD
HETATM   12  C   UNK N   1      34.960  14.264  11.420  0.00  0.00     0.141 A 
HETATM   13  N   UNK N   1      35.619  14.083  10.264  0.00  0.00    -0.314 N 
HETATM   14  C   UNK N   1      36.878  13.364  10.021  0.00  0.00     0.137 A 
HETATM   15  C   UNK N   1      37.342  13.338   8.547  0.00  0.00     0.063 A 
ENDROOT
BRANCH   4  16
HETATM   16  C   UNK N   1      33.554  16.101   6.683  0.00  0.00     0.108 C 
HETATM   17  C   UNK N   1      33.566  16.969   5.456  0.00  0.00     0.027 C 
HETATM   18  C   UNK N   1      32.111  17.354   5.309  0.00  0.00     0.002 C 
HETATM   19  C   UNK N   1      31.312  16.176   5.860  0.00  0.00     0.002 C 
HETATM   20  C   UNK N   1      32.300  15.267   6.576  0.00  0.00     0.027 C 
ENDBRANCH   4  16
BRANCH   1  21
HETATM   21  C   UNK N   1      37.689  13.707   5.416  0.00  0.00     0.055 C 
HETATM   22  C   UNK N   1      38.865  14.656   5.290  0.00  0.00     0.011 C 
ENDBRANCH   1  21
BRANCH  12  23
HETATM   23  C   UNK N   1      35.393  13.726  12.729  0.00  0.00     0.050 A 
HETATM   24  C   UNK N   1      36.176  14.377  13.679  0.00  0.00     0.023 A 
HETATM   25  C   UNK N   1      36.416  13.578  14.839  0.00  0.00     0.009 A 
HETATM   26  C   UNK N   1      35.816  12.312  14.801  0.00  0.00     0.050 A 
HETATM   27  S   UNK N   1      35.030  12.231  13.348  0.00  0.00    -0.098 SA
ENDBRANCH  12  23
TORSDOF 3
ENDMDL
MODEL 8
REMARK VINA RESULT:      -6.4      2.988      7.492
REMARK  3 active torsions:
REMARK  status: ('A' for Active; 'I' for Inactive)
REMARK    1  A    between atoms: C_2  and  C_3 
REMARK    2  A    between atoms: N_6  and  C_9 
REMARK    3  A    between atoms: C_19  and  C_23 
ROOT
HETATM    1  C   UNK N   1      35.138  10.744  10.908  0.00  0.00     0.034 A 
HETATM    2  C   UNK N   1      34.759  11.815  10.142  0.00  0.00    -0.000 A 
HETATM    3  C   UNK N   1      34.730  12.883  10.990  0.00  0.00     0.105 A 
HETATM    4  N   UNK N   1      35.070  12.462  12.234  0.00  0.00    -0.283 N 
HETATM    5  N   UNK N   1      35.318  11.157  12.183  0.00  0.00    -0.301 N 
ATOM      6  HN  UNK N   1      35.595  10.570  12.970  1.00  0.00     0.187 HD
HETATM    7  C   UNK N   1      34.369  14.196  10.461  0.00  0.00     0.153 A 
HETATM    8  N   UNK N   1      34.279  15.376  11.103  0.00  0.00    -0.282 N 
ATOM      9  HN  UNK N   1      34.462  15.546  12.092  1.00  0.00     0.188 HD
HETATM   10  N   UNK N   1      33.905  16.279  10.196  0.00  0.00    -0.282 N 
ATOM     11  HN  UNK N   1      33.743  17.273  10.362  1.00  0.00     0.188 HD
HETATM   12  C   UNK N   1      33.780  15.633   9.014  0.00  0.00     0.141 A 
HETATM   13  N   UNK N   1      34.064  14.328   9.162  0.00  0.00    -0.314 N 
HETATM   14  C   UNK N   1      34.039  13.257   8.155  0.00  0.00     0.137 A 
HETATM   15  C   UNK N   1      34.447  11.860   8.677  0.00  0.00     0.063 A 
ENDROOT
BRANCH   4  16
HETATM   16  C   UNK N   1      35.199  13.214  13.479  0.00  0.00     0.108 C 
HETATM   17  C   UNK N   1      34.998  12.369  14.706  0.00  0.00     0.027 C 
HETATM   18  C   UNK N   1      35.552  13.247  15.805  0.00  0.00     0.002 C 
HETATM   19  C   UNK N   1      36.665  14.068  15.161  0.00  0.00     0.002 C 
HETATM   20  C   UNK N   1      36.546  13.872  13.657  0.00  0.00     0.027 C 
ENDBRANCH   4  16
BRANCH   1  21
HETATM   21  C   UNK N   1      35.339   9.351  10.398  0.00  0.00     0.055 C 
HETATM   22  C   UNK N   1      34.402   8.356  11.056  0.00  0.00     0.011 C 
ENDBRANCH   1  21
BRANCH  12  23
HETATM   23  C   UNK N   1      33.387  16.269   7.737  0.00  0.00     0.050 A 
HETATM   24  C   UNK N   1      34.227  16.929   6.843  0.00  0.00     0.023 A 
HETATM   25  C   UNK N   1      33.532  17.432   5.701  0.00  0.00     0.009 A 
HETATM   26  C   UNK N   1      32.157  17.159   5.696  0.00  0.00     0.050 A 
HETATM   27  S   UNK N   1      31.860  16.324   7.093  0.00  0.00    -0.098 SA
ENDBRANCH  12  23
TORSDOF 3
ENDMDL
MODEL 9
REMARK VINA RESULT:      -6.3     14.611     18.575
REMARK  3 active torsions:
REMARK  status: ('A' for Active; 'I' for Inactive)
REMARK    1  A    between atoms: C_2  and  C_3 
REMARK    2  A    between atoms: N_6  and  C_9 
REMARK    3  A    between atoms: C_19  and  C_23 
ROOT
HETATM    1  C   UNK N   1      29.722  22.739  -5.213  0.00  0.00     0.034 A 
HETATM    2  C   UNK N   1      29.290  24.032  -5.084  0.00  0.00    -0.000 A 
HETATM    3  C   UNK N   1      28.181  24.131  -5.871  0.00  0.00     0.105 A 
HETATM    4  N   UNK N   1      27.961  22.933  -6.468  0.00  0.00    -0.283 N 
HETATM    5  N   UNK N   1      28.902  22.084  -6.067  0.00  0.00    -0.301 N 
ATOM      6  HN  UNK N   1      28.991  21.110  -6.355  1.00  0.00     0.187 HD
HETATM    7  C   UNK N   1      27.471  25.407  -5.936  0.00  0.00     0.153 A 
HETATM    8  N   UNK N   1      26.366  25.731  -6.634  0.00  0.00    -0.282 N 
ATOM      9  HN  UNK N   1      25.830  25.114  -7.244  1.00  0.00     0.188 HD
HETATM   10  N   UNK N   1      26.111  27.014  -6.374  0.00  0.00    -0.282 N 
ATOM     11  HN  UNK N   1      25.341  27.566  -6.753  1.00  0.00     0.188 HD
HETATM   12  C   UNK N   1      27.062  27.446  -5.515  0.00  0.00     0.141 A 
HETATM   13  N   UNK N   1      27.923  26.455  -5.232  0.00  0.00    -0.314 N 
HETATM   14  C   UNK N   1      29.111  26.482  -4.367  0.00  0.00     0.137 A 
HETATM   15  C   UNK N   1      29.867  25.138  -4.252  0.00  0.00     0.063 A 
ENDROOT
BRANCH   4  16
HETATM   16  C   UNK N   1      26.903  22.520  -7.385  0.00  0.00     0.108 C 
HETATM   17  C   UNK N   1      27.195  21.218  -8.079  0.00  0.00     0.027 C 
HETATM   18  C   UNK N   1      25.843  20.831  -8.635  0.00  0.00     0.002 C 
HETATM   19  C   UNK N   1      24.815  21.392  -7.657  0.00  0.00     0.002 C 
HETATM   20  C   UNK N   1      25.560  22.333  -6.723  0.00  0.00     0.027 C 
ENDBRANCH   4  16
BRANCH   1  21
HETATM   21  C   UNK N   1      30.901  22.151  -4.502  0.00  0.00     0.055 C 
HETATM   22  C   UNK N   1      30.516  21.507  -3.184  0.00  0.00     0.011 C 
ENDBRANCH   1  21
BRANCH  12  23
HETATM   23  C   UNK N   1      27.145  28.816  -4.963  0.00  0.00     0.050 A 
HETATM   24  C   UNK N   1      27.925  29.864  -5.448  0.00  0.00     0.023 A 
HETATM   25  C   UNK N   1      27.778  31.062  -4.684  0.00  0.00     0.009 A 
HETATM   26  C   UNK N   1      26.881  30.957  -3.613  0.00  0.00     0.050 A 
HETATM   27  S   UNK N   1      26.320  29.401  -3.648  0.00  0.00    -0.098 SA
ENDBRANCH  12  23
TORSDOF 3
ENDMDL
