REMARK  3 active torsions:
REMARK  status: ('A' for Active; 'I' for Inactive)
REMARK    1  A    between atoms: C_2  and  C_3 
REMARK    2  A    between atoms: C_3  and  C_4 
REMARK    3  A    between atoms: C_6  and  O_21 
ROOT
HETATM    1  C   UNK N   1       5.072   0.353   0.149  0.00  0.00    -0.053 A 
HETATM    2  C   UNK N   1       4.408  -0.841  -0.131  0.00  0.00     0.044 A 
HETATM    3  C   UNK N   1       3.022  -0.864  -0.329  0.00  0.00     0.075 A 
HETATM    4  C   UNK N   1       2.278   0.336  -0.245  0.00  0.00     0.017 A 
HETATM    5  C   UNK N   1       2.952   1.546   0.039  0.00  0.00     0.080 A 
HETATM    6  C   UNK N   1       4.341   1.542   0.235  0.00  0.00     0.044 A 
HETATM    7  O   UNK N   1       2.292   2.727   0.112  0.00  0.00    -0.340 OA
HETATM    8  C   UNK N   1       0.914   2.888   0.011  0.00  0.00     0.065 C 
HETATM    9  C   UNK N   1       0.160   1.567   0.276  0.00  0.00     0.032 C 
HETATM   10  C   UNK N   1       0.777   0.406  -0.499  0.00  0.00     0.054 C 
HETATM   11  C   UNK N   1       0.011  -0.873  -0.256  0.00  0.00    -0.014 C 
HETATM   12  C   UNK N   1      -1.288  -0.887   0.086  0.00  0.00    -0.087 C 
HETATM   13  C   UNK N   1      -2.083   0.380   0.294  0.00  0.00     0.034 C 
HETATM   14  C   UNK N   1      -1.333   1.668  -0.053  0.00  0.00     0.013 C 
HETATM   15  C   UNK N   1      -1.961  -2.196   0.310  0.00  0.00     0.043 C 
HETATM   16  C   UNK N   1       0.608   3.454  -1.369  0.00  0.00     0.046 C 
HETATM   17  C   UNK N   1       0.478   3.904   1.051  0.00  0.00     0.046 C 
ENDROOT
BRANCH   1  18
HETATM   18  C   UNK N   1       6.562   0.312   0.365  0.00  0.00     0.038 C 
BRANCH  18  19
HETATM   19  C   UNK N   1       7.171   1.619   0.861  0.00  0.00     0.000 C 
HETATM   20  C   UNK N   1       7.649   2.465  -0.301  0.00  0.00     0.005 C 
ENDBRANCH  18  19
ENDBRANCH   1  18
BRANCH   3  21
HETATM   21  O   UNK N   1       2.436  -2.039  -0.607  0.00  0.00    -0.360 OA
HETATM   22  H   UNK N   1       1.521  -2.095  -0.801  0.00  0.00     0.217 HD
ENDBRANCH   3  21
TORSDOF 3
