MODEL 1
REMARK VINA RESULT:      -7.1      0.000      0.000
REMARK  7 active torsions:
REMARK  status: ('A' for Active; 'I' for Inactive)
REMARK    1  A    between atoms: O_2  and  C_15 
REMARK    2  A    between atoms: O_2  and  C_16 
REMARK    3  A    between atoms: C_8  and  C_9 
REMARK    4  A    between atoms: C_9  and  C_10 
REMARK    5  A    between atoms: C_14  and  C_16 
REMARK    6  A    between atoms: C_14  and  C_19 
REMARK    7  A    between atoms: C_21  and  C_23 
ROOT
HETATM    1  C   UNK N   1      26.097  19.040   3.887  0.00  0.00    -0.056 A 
HETATM    2  C   UNK N   1      26.187  20.216   3.136  0.00  0.00     0.010 A 
HETATM    3  C   UNK N   1      24.839  18.539   4.241  0.00  0.00     0.010 A 
HETATM    4  C   UNK N   1      23.778  20.420   3.130  0.00  0.00     0.069 A 
HETATM    5  C   UNK N   1      25.039  20.907   2.764  0.00  0.00     0.037 A 
HETATM    6  C   UNK N   1      23.682  19.230   3.864  0.00  0.00     0.037 A 
ENDROOT
BRANCH   4   7
HETATM    7  O   UNK N   1      22.649  21.070   2.778  0.00  0.00    -0.344 OA
BRANCH   7   8
HETATM    8  C   UNK N   1      21.391  20.513   2.839  0.00  0.00     0.261 C 
BRANCH   8   9
HETATM    9  C   UNK N   1      21.003  19.824   1.552  0.00  0.00     0.199 C 
HETATM   10  O   UNK N   1      21.055  20.475   0.520  0.00  0.00    -0.288 OA
BRANCH   9  11
HETATM   11  C   UNK N   1      20.570  18.399   1.477  0.00  0.00     0.080 A 
HETATM   12  N   UNK N   1      20.084  17.906   0.304  0.00  0.00    -0.362 N 
HETATM   13  C   UNK N   1      19.667  16.614   0.188  0.00  0.00     0.095 A 
ATOM     14  HN  UNK N   1      20.031  18.519  -0.510  1.00  0.00     0.165 HD
HETATM   15  C   UNK N   1      19.735  15.747   1.289  0.00  0.00    -0.043 A 
HETATM   16  C   UNK N   1      20.239  16.227   2.493  0.00  0.00     0.011 A 
HETATM   17  C   UNK N   1      20.656  17.550   2.589  0.00  0.00     0.034 A 
BRANCH  15  18
HETATM   18  C   UNK N   1      19.280  14.319   1.223  0.00  0.00     0.035 C 
HETATM   19  C   UNK N   1      20.283  13.382   0.573  0.00  0.00     0.010 C 
ENDBRANCH  15  18
ENDBRANCH   9  11
ENDBRANCH   8   9
ENDBRANCH   7   8
ENDBRANCH   4   7
BRANCH   1  20
HETATM   20  C   UNK N   1      27.342  18.312   4.282  0.00  0.00     0.063 C 
BRANCH  20  21
HETATM   21  C   UNK N   1      27.299  17.773   5.718  0.00  0.00     0.153 A 
HETATM   22  S   UNK N   1      28.107  18.910   6.934  0.00  0.00    -0.054 SA
HETATM   23  C   UNK N   1      29.327  17.652   7.244  0.00  0.00     0.287 A 
HETATM   24  O   UNK N   1      30.258  17.819   8.014  0.00  0.00    -0.260 OA
HETATM   25  N   UNK N   1      29.157  16.497   6.594  0.00  0.00    -0.287 N 
HETATM   26  C   UNK N   1      28.090  16.501   5.782  0.00  0.00     0.239 A 
HETATM   27  H   UNK N   1      29.753  15.721   6.700  0.00  0.00     0.172 HD
HETATM   28  O   UNK N   1      27.795  15.514   5.126  0.00  0.00    -0.272 OA
ENDBRANCH  20  21
ENDBRANCH   1  20
TORSDOF 7
ENDMDL
MODEL 2
REMARK VINA RESULT:      -7.1      7.241     14.693
REMARK  7 active torsions:
REMARK  status: ('A' for Active; 'I' for Inactive)
REMARK    1  A    between atoms: O_2  and  C_15 
REMARK    2  A    between atoms: O_2  and  C_16 
REMARK    3  A    between atoms: C_8  and  C_9 
REMARK    4  A    between atoms: C_9  and  C_10 
REMARK    5  A    between atoms: C_14  and  C_16 
REMARK    6  A    between atoms: C_14  and  C_19 
REMARK    7  A    between atoms: C_21  and  C_23 
ROOT
HETATM    1  C   UNK N   1      32.330  17.081   7.435  0.00  0.00    -0.056 A 
HETATM    2  C   UNK N   1      33.298  18.082   7.562  0.00  0.00     0.010 A 
HETATM    3  C   UNK N   1      32.464  15.890   8.159  0.00  0.00     0.010 A 
HETATM    4  C   UNK N   1      34.557  16.695   9.090  0.00  0.00     0.069 A 
HETATM    5  C   UNK N   1      34.408  17.891   8.378  0.00  0.00     0.037 A 
HETATM    6  C   UNK N   1      33.578  15.699   8.983  0.00  0.00     0.037 A 
ENDROOT
BRANCH   4   7
HETATM    7  O   UNK N   1      35.623  16.488   9.892  0.00  0.00    -0.344 OA
BRANCH   7   8
HETATM    8  C   UNK N   1      35.532  16.223  11.240  0.00  0.00     0.261 C 
BRANCH   8   9
HETATM    9  C   UNK N   1      36.197  14.921  11.618  0.00  0.00     0.199 C 
HETATM   10  O   UNK N   1      36.919  14.390  10.789  0.00  0.00    -0.288 OA
BRANCH   9  11
HETATM   11  C   UNK N   1      36.025  14.261  12.944  0.00  0.00     0.080 A 
HETATM   12  N   UNK N   1      36.769  14.683  14.005  0.00  0.00    -0.362 N 
HETATM   13  C   UNK N   1      36.655  14.105  15.234  0.00  0.00     0.095 A 
ATOM     14  HN  UNK N   1      37.427  15.452  13.877  1.00  0.00     0.165 HD
HETATM   15  C   UNK N   1      35.753  13.051  15.440  0.00  0.00    -0.043 A 
HETATM   16  C   UNK N   1      34.976  12.613  14.373  0.00  0.00     0.011 A 
HETATM   17  C   UNK N   1      35.110  13.215  13.127  0.00  0.00     0.034 A 
BRANCH  15  18
HETATM   18  C   UNK N   1      35.593  12.370  16.767  0.00  0.00     0.035 C 
HETATM   19  C   UNK N   1      35.152  13.298  17.887  0.00  0.00     0.010 C 
ENDBRANCH  15  18
ENDBRANCH   9  11
ENDBRANCH   8   9
ENDBRANCH   7   8
ENDBRANCH   4   7
BRANCH   1  20
HETATM   20  C   UNK N   1      31.144  17.300   6.551  0.00  0.00     0.063 C 
BRANCH  20  21
HETATM   21  C   UNK N   1      29.842  16.730   7.129  0.00  0.00     0.153 A 
HETATM   22  S   UNK N   1      28.753  15.978   5.835  0.00  0.00    -0.054 SA
HETATM   23  C   UNK N   1      27.537  17.230   6.184  0.00  0.00     0.287 A 
HETATM   24  O   UNK N   1      26.483  17.306   5.575  0.00  0.00    -0.260 OA
HETATM   25  N   UNK N   1      27.837  18.079   7.171  0.00  0.00    -0.287 N 
HETATM   26  C   UNK N   1      29.040  17.852   7.715  0.00  0.00     0.239 A 
HETATM   27  H   UNK N   1      27.234  18.799   7.469  0.00  0.00     0.172 HD
HETATM   28  O   UNK N   1      29.454  18.540   8.637  0.00  0.00    -0.272 OA
ENDBRANCH  20  21
ENDBRANCH   1  20
TORSDOF 7
ENDMDL
MODEL 3
REMARK VINA RESULT:      -7.1     11.233     12.524
REMARK  7 active torsions:
REMARK  status: ('A' for Active; 'I' for Inactive)
REMARK    1  A    between atoms: O_2  and  C_15 
REMARK    2  A    between atoms: O_2  and  C_16 
REMARK    3  A    between atoms: C_8  and  C_9 
REMARK    4  A    between atoms: C_9  and  C_10 
REMARK    5  A    between atoms: C_14  and  C_16 
REMARK    6  A    between atoms: C_14  and  C_19 
REMARK    7  A    between atoms: C_21  and  C_23 
ROOT
HETATM    1  C   UNK N   1      30.165  20.780  -5.911  0.00  0.00    -0.056 A 
HETATM    2  C   UNK N   1      29.541  22.009  -5.681  0.00  0.00     0.010 A 
HETATM    3  C   UNK N   1      29.791  20.008  -7.018  0.00  0.00     0.010 A 
HETATM    4  C   UNK N   1      28.138  21.682  -7.623  0.00  0.00     0.069 A 
HETATM    5  C   UNK N   1      28.530  22.457  -6.524  0.00  0.00     0.037 A 
HETATM    6  C   UNK N   1      28.777  20.459  -7.870  0.00  0.00     0.037 A 
ENDROOT
BRANCH   4   7
HETATM    7  O   UNK N   1      27.163  22.097  -8.459  0.00  0.00    -0.344 OA
BRANCH   7   8
HETATM    8  C   UNK N   1      26.994  23.405  -8.853  0.00  0.00     0.261 C 
BRANCH   8   9
HETATM    9  C   UNK N   1      25.736  24.020  -8.287  0.00  0.00     0.199 C 
HETATM   10  O   UNK N   1      24.672  23.713  -8.802  0.00  0.00    -0.288 OA
BRANCH   9  11
HETATM   11  C   UNK N   1      25.727  24.968  -7.136  0.00  0.00     0.080 A 
HETATM   12  N   UNK N   1      25.587  24.485  -5.870  0.00  0.00    -0.362 N 
HETATM   13  C   UNK N   1      25.562  25.312  -4.787  0.00  0.00     0.095 A 
ATOM     14  HN  UNK N   1      25.498  23.479  -5.728  1.00  0.00     0.165 HD
HETATM   15  C   UNK N   1      25.688  26.699  -4.952  0.00  0.00    -0.043 A 
HETATM   16  C   UNK N   1      25.844  27.211  -6.236  0.00  0.00     0.011 A 
HETATM   17  C   UNK N   1      25.864  26.350  -7.326  0.00  0.00     0.034 A 
BRANCH  15  18
HETATM   18  C   UNK N   1      25.657  27.657  -3.798  0.00  0.00     0.035 C 
HETATM   19  C   UNK N   1      26.263  29.016  -4.109  0.00  0.00     0.010 C 
ENDBRANCH  15  18
ENDBRANCH   9  11
ENDBRANCH   8   9
ENDBRANCH   7   8
ENDBRANCH   4   7
BRANCH   1  20
HETATM   20  C   UNK N   1      31.248  20.310  -4.993  0.00  0.00     0.063 C 
BRANCH  20  21
HETATM   21  C   UNK N   1      32.350  21.354  -4.770  0.00  0.00     0.153 A 
HETATM   22  S   UNK N   1      33.902  20.967  -5.701  0.00  0.00    -0.054 SA
HETATM   23  C   UNK N   1      34.743  20.772  -4.145  0.00  0.00     0.287 A 
HETATM   24  O   UNK N   1      35.918  20.451  -4.073  0.00  0.00    -0.260 OA
HETATM   25  N   UNK N   1      34.016  21.015  -3.051  0.00  0.00    -0.287 N 
HETATM   26  C   UNK N   1      32.745  21.340  -3.324  0.00  0.00     0.239 A 
HETATM   27  H   UNK N   1      34.377  20.961  -2.136  0.00  0.00     0.172 HD
HETATM   28  O   UNK N   1      31.956  21.601  -2.428  0.00  0.00    -0.272 OA
ENDBRANCH  20  21
ENDBRANCH   1  20
TORSDOF 7
ENDMDL
MODEL 4
REMARK VINA RESULT:      -6.8      9.927     15.200
REMARK  7 active torsions:
REMARK  status: ('A' for Active; 'I' for Inactive)
REMARK    1  A    between atoms: O_2  and  C_15 
REMARK    2  A    between atoms: O_2  and  C_16 
REMARK    3  A    between atoms: C_8  and  C_9 
REMARK    4  A    between atoms: C_9  and  C_10 
REMARK    5  A    between atoms: C_14  and  C_16 
REMARK    6  A    between atoms: C_14  and  C_19 
REMARK    7  A    between atoms: C_21  and  C_23 
ROOT
HETATM    1  C   UNK N   1      36.196  12.693  14.191  0.00  0.00    -0.056 A 
HETATM    2  C   UNK N   1      36.169  14.069  13.945  0.00  0.00     0.010 A 
HETATM    3  C   UNK N   1      36.001  11.795  13.134  0.00  0.00     0.010 A 
HETATM    4  C   UNK N   1      35.706  13.661  11.607  0.00  0.00     0.069 A 
HETATM    5  C   UNK N   1      35.920  14.553  12.665  0.00  0.00     0.037 A 
HETATM    6  C   UNK N   1      35.754  12.281  11.845  0.00  0.00     0.037 A 
ENDROOT
BRANCH   4   7
HETATM    7  O   UNK N   1      35.466  14.106  10.356  0.00  0.00    -0.344 OA
BRANCH   7   8
HETATM    8  C   UNK N   1      36.127  15.167   9.777  0.00  0.00     0.261 C 
BRANCH   8   9
HETATM    9  C   UNK N   1      35.342  16.454   9.871  0.00  0.00     0.199 C 
HETATM   10  O   UNK N   1      35.832  17.372  10.511  0.00  0.00    -0.288 OA
BRANCH   9  11
HETATM   11  C   UNK N   1      34.016  16.662   9.222  0.00  0.00     0.080 A 
HETATM   12  N   UNK N   1      32.984  15.825   9.522  0.00  0.00    -0.362 N 
HETATM   13  C   UNK N   1      31.756  15.968   8.947  0.00  0.00     0.095 A 
ATOM     14  HN  UNK N   1      33.132  15.073  10.194  1.00  0.00     0.165 HD
HETATM   15  C   UNK N   1      31.522  16.998   8.024  0.00  0.00    -0.043 A 
HETATM   16  C   UNK N   1      32.559  17.870   7.713  0.00  0.00     0.011 A 
HETATM   17  C   UNK N   1      33.804  17.704   8.309  0.00  0.00     0.034 A 
BRANCH  15  18
HETATM   18  C   UNK N   1      30.195  17.196   7.353  0.00  0.00     0.035 C 
HETATM   19  C   UNK N   1      30.239  17.035   5.842  0.00  0.00     0.010 C 
ENDBRANCH  15  18
ENDBRANCH   9  11
ENDBRANCH   8   9
ENDBRANCH   7   8
ENDBRANCH   4   7
BRANCH   1  20
HETATM   20  C   UNK N   1      36.462  12.188  15.573  0.00  0.00     0.063 C 
BRANCH  20  21
HETATM   21  C   UNK N   1      35.218  12.195  16.471  0.00  0.00     0.153 A 
HETATM   22  S   UNK N   1      35.180  13.636  17.631  0.00  0.00    -0.054 SA
HETATM   23  C   UNK N   1      35.296  12.495  18.993  0.00  0.00     0.287 A 
HETATM   24  O   UNK N   1      35.351  12.867  20.153  0.00  0.00    -0.260 OA
HETATM   25  N   UNK N   1      35.302  11.199  18.672  0.00  0.00    -0.287 N 
HETATM   26  C   UNK N   1      35.249  10.982  17.351  0.00  0.00     0.239 A 
HETATM   27  H   UNK N   1      35.341  10.475  19.339  0.00  0.00     0.172 HD
HETATM   28  O   UNK N   1      35.237   9.846  16.900  0.00  0.00    -0.272 OA
ENDBRANCH  20  21
ENDBRANCH   1  20
TORSDOF 7
ENDMDL
MODEL 5
REMARK VINA RESULT:      -6.8      4.900     12.281
REMARK  7 active torsions:
REMARK  status: ('A' for Active; 'I' for Inactive)
REMARK    1  A    between atoms: O_2  and  C_15 
REMARK    2  A    between atoms: O_2  and  C_16 
REMARK    3  A    between atoms: C_8  and  C_9 
REMARK    4  A    between atoms: C_9  and  C_10 
REMARK    5  A    between atoms: C_14  and  C_16 
REMARK    6  A    between atoms: C_14  and  C_19 
REMARK    7  A    between atoms: C_21  and  C_23 
ROOT
HETATM    1  C   UNK N   1      28.338  17.611   6.385  0.00  0.00    -0.056 A 
HETATM    2  C   UNK N   1      28.496  17.681   7.773  0.00  0.00     0.010 A 
HETATM    3  C   UNK N   1      29.461  17.434   5.568  0.00  0.00     0.010 A 
HETATM    4  C   UNK N   1      30.890  17.447   7.531  0.00  0.00     0.069 A 
HETATM    5  C   UNK N   1      29.761  17.606   8.345  0.00  0.00     0.037 A 
HETATM    6  C   UNK N   1      30.735  17.355   6.142  0.00  0.00     0.037 A 
ENDROOT
BRANCH   4   7
HETATM    7  O   UNK N   1      32.128  17.368   8.062  0.00  0.00    -0.344 OA
BRANCH   7   8
HETATM    8  C   UNK N   1      33.268  17.802   7.424  0.00  0.00     0.261 C 
BRANCH   8   9
HETATM    9  C   UNK N   1      34.431  17.972   8.373  0.00  0.00     0.199 C 
HETATM   10  O   UNK N   1      35.000  19.052   8.386  0.00  0.00    -0.288 OA
BRANCH   9  11
HETATM   11  C   UNK N   1      34.909  16.901   9.293  0.00  0.00     0.080 A 
HETATM   12  N   UNK N   1      35.145  17.195  10.602  0.00  0.00    -0.362 N 
HETATM   13  C   UNK N   1      35.592  16.253  11.479  0.00  0.00     0.095 A 
ATOM     14  HN  UNK N   1      34.982  18.145  10.935  1.00  0.00     0.165 HD
HETATM   15  C   UNK N   1      35.818  14.937  11.049  0.00  0.00    -0.043 A 
HETATM   16  C   UNK N   1      35.573  14.612   9.719  0.00  0.00     0.011 A 
HETATM   17  C   UNK N   1      35.119  15.590   8.841  0.00  0.00     0.034 A 
BRANCH  15  18
HETATM   18  C   UNK N   1      36.320  13.861  11.967  0.00  0.00     0.035 C 
HETATM   19  C   UNK N   1      35.699  13.894  13.353  0.00  0.00     0.010 C 
ENDBRANCH  15  18
ENDBRANCH   9  11
ENDBRANCH   8   9
ENDBRANCH   7   8
ENDBRANCH   4   7
BRANCH   1  20
HETATM   20  C   UNK N   1      26.971  17.697   5.786  0.00  0.00     0.063 C 
BRANCH  20  21
HETATM   21  C   UNK N   1      26.936  18.477   4.465  0.00  0.00     0.153 A 
HETATM   22  S   UNK N   1      26.449  20.248   4.692  0.00  0.00    -0.054 SA
HETATM   23  C   UNK N   1      24.984  19.930   3.732  0.00  0.00     0.287 A 
HETATM   24  O   UNK N   1      24.142  20.787   3.522  0.00  0.00    -0.260 OA
HETATM   25  N   UNK N   1      24.865  18.695   3.237  0.00  0.00    -0.287 N 
HETATM   26  C   UNK N   1      25.877  17.888   3.582  0.00  0.00     0.239 A 
HETATM   27  H   UNK N   1      24.110  18.407   2.674  0.00  0.00     0.172 HD
HETATM   28  O   UNK N   1      25.916  16.728   3.198  0.00  0.00    -0.272 OA
ENDBRANCH  20  21
ENDBRANCH   1  20
TORSDOF 7
ENDMDL
MODEL 6
REMARK VINA RESULT:      -6.7      5.875      8.309
REMARK  7 active torsions:
REMARK  status: ('A' for Active; 'I' for Inactive)
REMARK    1  A    between atoms: O_2  and  C_15 
REMARK    2  A    between atoms: O_2  and  C_16 
REMARK    3  A    between atoms: C_8  and  C_9 
REMARK    4  A    between atoms: C_9  and  C_10 
REMARK    5  A    between atoms: C_14  and  C_16 
REMARK    6  A    between atoms: C_14  and  C_19 
REMARK    7  A    between atoms: C_21  and  C_23 
ROOT
HETATM    1  C   UNK N   1      33.590  16.411   5.420  0.00  0.00    -0.056 A 
HETATM    2  C   UNK N   1      33.096  15.181   4.975  0.00  0.00     0.010 A 
HETATM    3  C   UNK N   1      33.033  17.600   4.934  0.00  0.00     0.010 A 
HETATM    4  C   UNK N   1      31.526  16.315   3.527  0.00  0.00     0.069 A 
HETATM    5  C   UNK N   1      32.077  15.130   4.031  0.00  0.00     0.037 A 
HETATM    6  C   UNK N   1      32.004  17.549   3.987  0.00  0.00     0.037 A 
ENDROOT
BRANCH   4   7
HETATM    7  O   UNK N   1      30.533  16.291   2.614  0.00  0.00    -0.344 OA
BRANCH   7   8
HETATM    8  C   UNK N   1      29.493  15.389   2.633  0.00  0.00     0.261 C 
BRANCH   8   9
HETATM    9  C   UNK N   1      28.178  16.034   3.003  0.00  0.00     0.199 C 
HETATM   10  O   UNK N   1      27.168  15.616   2.459  0.00  0.00    -0.288 OA
BRANCH   9  11
HETATM   11  C   UNK N   1      28.051  17.138   3.997  0.00  0.00     0.080 A 
HETATM   12  N   UNK N   1      27.793  18.404   3.564  0.00  0.00    -0.362 N 
HETATM   13  C   UNK N   1      27.679  19.448   4.433  0.00  0.00     0.095 A 
ATOM     14  HN  UNK N   1      27.682  18.575   2.565  1.00  0.00     0.165 HD
HETATM   15  C   UNK N   1      27.820  19.240   5.813  0.00  0.00    -0.043 A 
HETATM   16  C   UNK N   1      28.072  17.953   6.276  0.00  0.00     0.011 A 
HETATM   17  C   UNK N   1      28.188  16.903   5.372  0.00  0.00     0.034 A 
BRANCH  15  18
HETATM   18  C   UNK N   1      27.715  20.353   6.814  0.00  0.00     0.035 C 
HETATM   19  C   UNK N   1      27.108  21.629   6.256  0.00  0.00     0.010 C 
ENDBRANCH  15  18
ENDBRANCH   9  11
ENDBRANCH   8   9
ENDBRANCH   7   8
ENDBRANCH   4   7
BRANCH   1  20
HETATM   20  C   UNK N   1      34.690  16.450   6.433  0.00  0.00     0.063 C 
BRANCH  20  21
HETATM   21  C   UNK N   1      34.187  16.647   7.868  0.00  0.00     0.153 A 
HETATM   22  S   UNK N   1      32.503  15.928   8.142  0.00  0.00    -0.054 SA
HETATM   23  C   UNK N   1      31.892  17.572   8.447  0.00  0.00     0.287 A 
HETATM   24  O   UNK N   1      30.717  17.799   8.683  0.00  0.00    -0.260 OA
HETATM   25  N   UNK N   1      32.801  18.550   8.419  0.00  0.00    -0.287 N 
HETATM   26  C   UNK N   1      34.035  18.115   8.131  0.00  0.00     0.239 A 
HETATM   27  H   UNK N   1      32.586  19.495   8.594  0.00  0.00     0.172 HD
HETATM   28  O   UNK N   1      34.979  18.890   8.078  0.00  0.00    -0.272 OA
ENDBRANCH  20  21
ENDBRANCH   1  20
TORSDOF 7
ENDMDL
MODEL 7
REMARK VINA RESULT:      -6.6      5.976      9.420
REMARK  7 active torsions:
REMARK  status: ('A' for Active; 'I' for Inactive)
REMARK    1  A    between atoms: O_2  and  C_15 
REMARK    2  A    between atoms: O_2  and  C_16 
REMARK    3  A    between atoms: C_8  and  C_9 
REMARK    4  A    between atoms: C_9  and  C_10 
REMARK    5  A    between atoms: C_14  and  C_16 
REMARK    6  A    between atoms: C_14  and  C_19 
REMARK    7  A    between atoms: C_21  and  C_23 
ROOT
HETATM    1  C   UNK N   1      33.246  16.019   8.272  0.00  0.00    -0.056 A 
HETATM    2  C   UNK N   1      34.203  16.144   7.260  0.00  0.00     0.010 A 
HETATM    3  C   UNK N   1      31.936  16.459   8.046  0.00  0.00     0.010 A 
HETATM    4  C   UNK N   1      32.568  17.187   5.816  0.00  0.00     0.069 A 
HETATM    5  C   UNK N   1      33.872  16.728   6.043  0.00  0.00     0.037 A 
HETATM    6  C   UNK N   1      31.600  17.044   6.819  0.00  0.00     0.037 A 
ENDROOT
BRANCH   4   7
HETATM    7  O   UNK N   1      32.221  17.753   4.642  0.00  0.00    -0.344 OA
BRANCH   7   8
HETATM    8  C   UNK N   1      32.520  17.215   3.410  0.00  0.00     0.261 C 
BRANCH   8   9
HETATM    9  C   UNK N   1      31.701  15.983   3.105  0.00  0.00     0.199 C 
HETATM   10  O   UNK N   1      32.300  14.938   2.906  0.00  0.00    -0.288 OA
BRANCH   9  11
HETATM   11  C   UNK N   1      30.211  15.977   3.044  0.00  0.00     0.080 A 
HETATM   12  N   UNK N   1      29.515  17.048   3.520  0.00  0.00    -0.362 N 
HETATM   13  C   UNK N   1      28.154  17.086   3.495  0.00  0.00     0.095 A 
ATOM     14  HN  UNK N   1      30.027  17.843   3.903  1.00  0.00     0.165 HD
HETATM   15  C   UNK N   1      27.425  16.009   2.967  0.00  0.00    -0.043 A 
HETATM   16  C   UNK N   1      28.116  14.912   2.465  0.00  0.00     0.011 A 
HETATM   17  C   UNK N   1      29.506  14.894   2.503  0.00  0.00     0.034 A 
BRANCH  15  18
HETATM   18  C   UNK N   1      25.926  15.991   2.924  0.00  0.00     0.035 C 
HETATM   19  C   UNK N   1      25.351  15.113   1.825  0.00  0.00     0.010 C 
ENDBRANCH  15  18
ENDBRANCH   9  11
ENDBRANCH   8   9
ENDBRANCH   7   8
ENDBRANCH   4   7
BRANCH   1  20
HETATM   20  C   UNK N   1      33.619  15.392   9.577  0.00  0.00     0.063 C 
BRANCH  20  21
HETATM   21  C   UNK N   1      35.124  15.133   9.717  0.00  0.00     0.153 A 
HETATM   22  S   UNK N   1      35.500  13.476  10.453  0.00  0.00    -0.054 SA
HETATM   23  C   UNK N   1      36.223  14.304  11.854  0.00  0.00     0.287 A 
HETATM   24  O   UNK N   1      36.678  13.697  12.809  0.00  0.00    -0.260 OA
HETATM   25  N   UNK N   1      36.257  15.638  11.793  0.00  0.00    -0.287 N 
HETATM   26  C   UNK N   1      35.700  16.130  10.677  0.00  0.00     0.239 A 
HETATM   27  H   UNK N   1      36.651  16.204  12.496  0.00  0.00     0.172 HD
HETATM   28  O   UNK N   1      35.663  17.334  10.471  0.00  0.00    -0.272 OA
ENDBRANCH  20  21
ENDBRANCH   1  20
TORSDOF 7
ENDMDL
MODEL 8
REMARK VINA RESULT:      -6.6      5.279      8.910
REMARK  7 active torsions:
REMARK  status: ('A' for Active; 'I' for Inactive)
REMARK    1  A    between atoms: O_2  and  C_15 
REMARK    2  A    between atoms: O_2  and  C_16 
REMARK    3  A    between atoms: C_8  and  C_9 
REMARK    4  A    between atoms: C_9  and  C_10 
REMARK    5  A    between atoms: C_14  and  C_16 
REMARK    6  A    between atoms: C_14  and  C_19 
REMARK    7  A    between atoms: C_21  and  C_23 
ROOT
HETATM    1  C   UNK N   1      32.923  15.984   8.193  0.00  0.00    -0.056 A 
HETATM    2  C   UNK N   1      31.713  15.431   7.765  0.00  0.00     0.010 A 
HETATM    3  C   UNK N   1      33.519  17.010   7.449  0.00  0.00     0.010 A 
HETATM    4  C   UNK N   1      31.711  16.884   5.833  0.00  0.00     0.069 A 
HETATM    5  C   UNK N   1      31.111  15.871   6.591  0.00  0.00     0.037 A 
HETATM    6  C   UNK N   1      32.913  17.456   6.270  0.00  0.00     0.037 A 
ENDROOT
BRANCH   4   7
HETATM    7  O   UNK N   1      31.144  17.331   4.692  0.00  0.00    -0.344 OA
BRANCH   7   8
HETATM    8  C   UNK N   1      30.812  16.520   3.630  0.00  0.00     0.261 C 
BRANCH   8   9
HETATM    9  C   UNK N   1      29.330  16.239   3.561  0.00  0.00     0.199 C 
HETATM   10  O   UNK N   1      28.979  15.083   3.386  0.00  0.00    -0.288 OA
BRANCH   9  11
HETATM   11  C   UNK N   1      28.283  17.291   3.703  0.00  0.00     0.080 A 
HETATM   12  N   UNK N   1      28.641  18.545   4.097  0.00  0.00    -0.362 N 
HETATM   13  C   UNK N   1      27.719  19.537   4.251  0.00  0.00     0.095 A 
ATOM     14  HN  UNK N   1      29.623  18.747   4.281  1.00  0.00     0.165 HD
HETATM   15  C   UNK N   1      26.362  19.289   3.997  0.00  0.00    -0.043 A 
HETATM   16  C   UNK N   1      25.978  18.019   3.582  0.00  0.00     0.011 A 
HETATM   17  C   UNK N   1      26.934  17.021   3.435  0.00  0.00     0.034 A 
BRANCH  15  18
HETATM   18  C   UNK N   1      25.303  20.339   4.160  0.00  0.00     0.035 C 
HETATM   19  C   UNK N   1      24.306  20.393   3.015  0.00  0.00     0.010 C 
ENDBRANCH  15  18
ENDBRANCH   9  11
ENDBRANCH   8   9
ENDBRANCH   7   8
ENDBRANCH   4   7
BRANCH   1  20
HETATM   20  C   UNK N   1      33.560  15.498   9.456  0.00  0.00     0.063 C 
BRANCH  20  21
HETATM   21  C   UNK N   1      35.081  15.339   9.346  0.00  0.00     0.153 A 
HETATM   22  S   UNK N   1      35.648  13.611   9.692  0.00  0.00    -0.054 SA
HETATM   23  C   UNK N   1      36.518  14.221  11.120  0.00  0.00     0.287 A 
HETATM   24  O   UNK N   1      37.136  13.486  11.872  0.00  0.00    -0.260 OA
HETATM   25  N   UNK N   1      36.470  15.542  11.315  0.00  0.00    -0.287 N 
HETATM   26  C   UNK N   1      35.734  16.184  10.398  0.00  0.00     0.239 A 
HETATM   27  H   UNK N   1      36.930  15.997  12.058  0.00  0.00     0.172 HD
HETATM   28  O   UNK N   1      35.602  17.399  10.436  0.00  0.00    -0.272 OA
ENDBRANCH  20  21
ENDBRANCH   1  20
TORSDOF 7
ENDMDL
MODEL 9
REMARK VINA RESULT:      -6.6     11.266     15.589
REMARK  7 active torsions:
REMARK  status: ('A' for Active; 'I' for Inactive)
REMARK    1  A    between atoms: O_2  and  C_15 
REMARK    2  A    between atoms: O_2  and  C_16 
REMARK    3  A    between atoms: C_8  and  C_9 
REMARK    4  A    between atoms: C_9  and  C_10 
REMARK    5  A    between atoms: C_14  and  C_16 
REMARK    6  A    between atoms: C_14  and  C_19 
REMARK    7  A    between atoms: C_21  and  C_23 
ROOT
HETATM    1  C   UNK N   1      35.141  12.610  14.522  0.00  0.00    -0.056 A 
HETATM    2  C   UNK N   1      35.940  13.741  14.714  0.00  0.00     0.010 A 
HETATM    3  C   UNK N   1      34.778  12.229  13.224  0.00  0.00     0.010 A 
HETATM    4  C   UNK N   1      35.978  14.142  12.331  0.00  0.00     0.069 A 
HETATM    5  C   UNK N   1      36.353  14.507  13.630  0.00  0.00     0.037 A 
HETATM    6  C   UNK N   1      35.196  12.997  12.132  0.00  0.00     0.037 A 
ENDROOT
BRANCH   4   7
HETATM    7  O   UNK N   1      36.369  14.867  11.262  0.00  0.00    -0.344 OA
BRANCH   7   8
HETATM    8  C   UNK N   1      35.701  14.884  10.058  0.00  0.00     0.261 C 
BRANCH   8   9
HETATM    9  C   UNK N   1      35.268  16.275   9.658  0.00  0.00     0.199 C 
HETATM   10  O   UNK N   1      35.459  17.180  10.455  0.00  0.00    -0.288 OA
BRANCH   9  11
HETATM   11  C   UNK N   1      34.632  16.596   8.348  0.00  0.00     0.080 A 
HETATM   12  N   UNK N   1      34.886  15.807   7.267  0.00  0.00    -0.362 N 
HETATM   13  C   UNK N   1      34.337  16.066   6.047  0.00  0.00     0.095 A 
ATOM     14  HN  UNK N   1      35.503  15.002   7.373  1.00  0.00     0.165 HD
HETATM   15  C   UNK N   1      33.480  17.163   5.874  0.00  0.00    -0.043 A 
HETATM   16  C   UNK N   1      33.197  17.973   6.969  0.00  0.00     0.011 A 
HETATM   17  C   UNK N   1      33.771  17.693   8.203  0.00  0.00     0.034 A 
BRANCH  15  18
HETATM   18  C   UNK N   1      32.856  17.502   4.553  0.00  0.00     0.035 C 
HETATM   19  C   UNK N   1      33.115  16.472   3.466  0.00  0.00     0.010 C 
ENDBRANCH  15  18
ENDBRANCH   9  11
ENDBRANCH   8   9
ENDBRANCH   7   8
ENDBRANCH   4   7
BRANCH   1  20
HETATM   20  C   UNK N   1      34.703  11.798  15.699  0.00  0.00     0.063 C 
BRANCH  20  21
HETATM   21  C   UNK N   1      35.788  11.652  16.773  0.00  0.00     0.153 A 
HETATM   22  S   UNK N   1      36.202   9.885  17.137  0.00  0.00    -0.054 SA
HETATM   23  C   UNK N   1      35.584  10.120  18.790  0.00  0.00     0.287 A 
HETATM   24  O   UNK N   1      35.551   9.217  19.610  0.00  0.00    -0.260 OA
HETATM   25  N   UNK N   1      35.171  11.354  19.092  0.00  0.00    -0.287 N 
HETATM   26  C   UNK N   1      35.270  12.209  18.065  0.00  0.00     0.239 A 
HETATM   27  H   UNK N   1      34.830  11.610  19.980  0.00  0.00     0.172 HD
HETATM   28  O   UNK N   1      34.940  13.379  18.187  0.00  0.00    -0.272 OA
ENDBRANCH  20  21
ENDBRANCH   1  20
TORSDOF 7
ENDMDL
