MODEL 1
REMARK VINA RESULT:      -5.1      0.000      0.000
REMARK  7 active torsions:
REMARK  status: ('A' for Active; 'I' for Inactive)
REMARK       I    between atoms: N_2  and  C_3 
REMARK       I    between atoms: C_3  and  N_6 
REMARK    1  A    between atoms: N_6  and  C_7 
REMARK    2  A    between atoms: C_7  and  C_8 
REMARK    3  A    between atoms: C_8  and  C_9 
REMARK    4  A    between atoms: C_9  and  C_10 
REMARK    5  A    between atoms: C_10  and  N_11 
REMARK    6  A    between atoms: C_10  and  C_12 
REMARK    7  A    between atoms: C_12  and  O_13 
ROOT
HETATM    1  C   UNK N   1      30.206  17.278   8.504  0.00  0.00     0.138 C 
ENDROOT
BRANCH   1   2
HETATM    2  N   UNK N   1      29.505  17.970   7.445  0.00  0.00    -0.227 N 
HETATM    3  C   UNK N   1      28.358  18.777   7.680  0.00  0.00     0.667 C 
HETATM    4  N   UNK N   1      27.898  19.640   6.651  0.00  0.00    -0.231 N 
HETATM    5  N   UNK N   1      27.792  18.782   8.833  0.00  0.00    -0.235 N 
HETATM    6  C   UNK N   1      26.829  20.581   6.873  0.00  0.00     0.165 C 
HETATM    7  H   UNK N   1      28.322  19.595   5.764  0.00  0.00     0.177 HD
HETATM    8  H   UNK N   1      28.110  18.203   9.562  0.00  0.00     0.174 HD
ATOM      9  HN  UNK N   1      26.997  19.401   8.995  1.00  0.00     0.174 HD
HETATM   10  H   UNK N   1      29.837  17.880   6.521  0.00  0.00     0.177 HD
ENDBRANCH   1   2
BRANCH   1  11
HETATM   11  C   UNK N   1      31.670  17.686   8.574  0.00  0.00     0.023 C 
BRANCH  11  12
HETATM   12  C   UNK N   1      32.567  16.495   8.276  0.00  0.00     0.037 C 
BRANCH  12  13
HETATM   13  C   UNK N   1      34.031  16.835   8.532  0.00  0.00     0.173 C 
BRANCH  13  14
HETATM   14  N   UNK N   1      34.224  17.052   9.956  0.00  0.00    -0.418 N 
HETATM   15  H   UNK N   1      34.924  16.514  10.467  0.00  0.00     0.150 HD
HETATM   16  H   UNK N   1      33.657  17.743  10.446  0.00  0.00     0.150 HD
ENDBRANCH  13  14
BRANCH  13  17
HETATM   17  C   UNK N   1      34.450  18.046   7.747  0.00  0.00     0.163 C 
HETATM   18  O   UNK N   1      34.346  18.049   6.530  0.00  0.00    -0.648 OA
BRANCH  17  19
HETATM   19  O   UNK N   1      34.959  19.126   8.373  0.00  0.00    -0.775 OA
HETATM   20  H   UNK N   1      35.776  19.076   8.831  0.00  0.00     0.167 HD
ENDBRANCH  17  19
ENDBRANCH  13  17
ENDBRANCH  12  13
ENDBRANCH  11  12
ENDBRANCH   1  11
TORSDOF 7
ENDMDL
MODEL 2
REMARK VINA RESULT:      -4.9      3.735      7.320
REMARK  7 active torsions:
REMARK  status: ('A' for Active; 'I' for Inactive)
REMARK       I    between atoms: N_2  and  C_3 
REMARK       I    between atoms: C_3  and  N_6 
REMARK    1  A    between atoms: N_6  and  C_7 
REMARK    2  A    between atoms: C_7  and  C_8 
REMARK    3  A    between atoms: C_8  and  C_9 
REMARK    4  A    between atoms: C_9  and  C_10 
REMARK    5  A    between atoms: C_10  and  N_11 
REMARK    6  A    between atoms: C_10  and  C_12 
REMARK    7  A    between atoms: C_12  and  O_13 
ROOT
HETATM    1  C   UNK N   1      34.846  14.877  10.664  0.00  0.00     0.138 C 
ENDROOT
BRANCH   1   2
HETATM    2  N   UNK N   1      34.604  14.041  11.819  0.00  0.00    -0.227 N 
HETATM    3  C   UNK N   1      35.602  13.773  12.797  0.00  0.00     0.667 C 
HETATM    4  N   UNK N   1      35.217  13.186  14.031  0.00  0.00    -0.231 N 
HETATM    5  N   UNK N   1      36.819  14.129  12.599  0.00  0.00    -0.235 N 
HETATM    6  C   UNK N   1      36.154  13.016  15.114  0.00  0.00     0.165 C 
HETATM    7  H   UNK N   1      34.287  12.887  14.150  0.00  0.00     0.177 HD
HETATM    8  H   UNK N   1      37.097  14.555  11.757  0.00  0.00     0.174 HD
ATOM      9  HN  UNK N   1      37.511  13.968  13.331  1.00  0.00     0.174 HD
HETATM   10  H   UNK N   1      33.712  13.640  11.934  0.00  0.00     0.177 HD
ENDBRANCH   1   2
BRANCH   1  11
HETATM   11  C   UNK N   1      33.637  14.929   9.740  0.00  0.00     0.023 C 
BRANCH  11  12
HETATM   12  C   UNK N   1      33.918  15.831   8.550  0.00  0.00     0.037 C 
BRANCH  12  13
HETATM   13  C   UNK N   1      33.703  17.296   8.910  0.00  0.00     0.173 C 
BRANCH  13  14
HETATM   14  N   UNK N   1      32.284  17.599   8.828  0.00  0.00    -0.418 N 
HETATM   15  H   UNK N   1      31.816  17.626   7.922  0.00  0.00     0.150 HD
HETATM   16  H   UNK N   1      31.754  17.787   9.678  0.00  0.00     0.150 HD
ENDBRANCH  13  14
BRANCH  13  17
HETATM   17  C   UNK N   1      34.494  18.198   8.005  0.00  0.00     0.163 C 
HETATM   18  O   UNK N   1      34.457  18.032   6.796  0.00  0.00    -0.648 OA
BRANCH  17  19
HETATM   19  O   UNK N   1      35.262  19.180   8.517  0.00  0.00    -0.775 OA
HETATM   20  H   UNK N   1      35.016  20.080   8.428  0.00  0.00     0.167 HD
ENDBRANCH  17  19
ENDBRANCH  13  17
ENDBRANCH  12  13
ENDBRANCH  11  12
ENDBRANCH   1  11
TORSDOF 7
ENDMDL
MODEL 3
REMARK VINA RESULT:      -4.7     10.976     12.437
REMARK  7 active torsions:
REMARK  status: ('A' for Active; 'I' for Inactive)
REMARK       I    between atoms: N_2  and  C_3 
REMARK       I    between atoms: C_3  and  N_6 
REMARK    1  A    between atoms: N_6  and  C_7 
REMARK    2  A    between atoms: C_7  and  C_8 
REMARK    3  A    between atoms: C_8  and  C_9 
REMARK    4  A    between atoms: C_9  and  C_10 
REMARK    5  A    between atoms: C_10  and  N_11 
REMARK    6  A    between atoms: C_10  and  C_12 
REMARK    7  A    between atoms: C_12  and  O_13 
ROOT
HETATM    1  C   UNK N   1      21.316  13.585   8.721  0.00  0.00     0.138 C 
ENDROOT
BRANCH   1   2
HETATM    2  N   UNK N   1      21.244  12.737   9.890  0.00  0.00    -0.227 N 
HETATM    3  C   UNK N   1      22.352  12.525  10.756  0.00  0.00     0.667 C 
HETATM    4  N   UNK N   1      22.133  11.918  12.020  0.00  0.00    -0.231 N 
HETATM    5  N   UNK N   1      23.520  12.949  10.433  0.00  0.00    -0.235 N 
HETATM    6  C   UNK N   1      23.187  11.801  12.998  0.00  0.00     0.165 C 
HETATM    7  H   UNK N   1      21.239  11.567  12.235  0.00  0.00     0.177 HD
HETATM    8  H   UNK N   1      23.684  13.389   9.568  0.00  0.00     0.174 HD
ATOM      9  HN  UNK N   1      24.293  12.827  11.087  1.00  0.00     0.174 HD
HETATM   10  H   UNK N   1      20.392  12.287  10.095  0.00  0.00     0.177 HD
ENDBRANCH   1   2
BRANCH   1  11
HETATM   11  C   UNK N   1      21.173  15.057   9.080  0.00  0.00     0.023 C 
BRANCH  11  12
HETATM   12  C   UNK N   1      19.711  15.472   9.045  0.00  0.00     0.037 C 
BRANCH  12  13
HETATM   13  C   UNK N   1      19.519  16.729   8.206  0.00  0.00     0.173 C 
BRANCH  13  14
HETATM   14  N   UNK N   1      20.743  16.998   7.471  0.00  0.00    -0.418 N 
HETATM   15  H   UNK N   1      21.635  16.632   7.805  0.00  0.00     0.150 HD
HETATM   16  H   UNK N   1      20.712  17.556   6.618  0.00  0.00     0.150 HD
ENDBRANCH  13  14
BRANCH  13  17
HETATM   17  C   UNK N   1      19.145  17.903   9.067  0.00  0.00     0.163 C 
HETATM   18  O   UNK N   1      19.990  18.732   9.368  0.00  0.00    -0.648 OA
BRANCH  17  19
HETATM   19  O   UNK N   1      17.887  18.039   9.530  0.00  0.00    -0.775 OA
HETATM   20  H   UNK N   1      17.582  18.862   9.861  0.00  0.00     0.167 HD
ENDBRANCH  17  19
ENDBRANCH  13  17
ENDBRANCH  12  13
ENDBRANCH  11  12
ENDBRANCH   1  11
TORSDOF 7
ENDMDL
MODEL 4
REMARK VINA RESULT:      -4.7      1.473      1.812
REMARK  7 active torsions:
REMARK  status: ('A' for Active; 'I' for Inactive)
REMARK       I    between atoms: N_2  and  C_3 
REMARK       I    between atoms: C_3  and  N_6 
REMARK    1  A    between atoms: N_6  and  C_7 
REMARK    2  A    between atoms: C_7  and  C_8 
REMARK    3  A    between atoms: C_8  and  C_9 
REMARK    4  A    between atoms: C_9  and  C_10 
REMARK    5  A    between atoms: C_10  and  N_11 
REMARK    6  A    between atoms: C_10  and  C_12 
REMARK    7  A    between atoms: C_12  and  O_13 
ROOT
HETATM    1  C   UNK N   1      30.763  17.198   6.343  0.00  0.00     0.138 C 
ENDROOT
BRANCH   1   2
HETATM    2  N   UNK N   1      29.430  17.640   6.688  0.00  0.00    -0.227 N 
HETATM    3  C   UNK N   1      28.541  18.217   5.739  0.00  0.00     0.667 C 
HETATM    4  N   UNK N   1      27.171  18.364   6.079  0.00  0.00    -0.231 N 
HETATM    5  N   UNK N   1      28.956  18.529   4.565  0.00  0.00    -0.235 N 
HETATM    6  C   UNK N   1      26.195  18.812   5.116  0.00  0.00     0.165 C 
HETATM    7  H   UNK N   1      26.879  18.153   6.995  0.00  0.00     0.177 HD
HETATM    8  H   UNK N   1      29.899  18.416   4.309  0.00  0.00     0.174 HD
ATOM      9  HN  UNK N   1      28.293  18.901   3.885  1.00  0.00     0.174 HD
HETATM   10  H   UNK N   1      29.124  17.536   7.619  0.00  0.00     0.177 HD
ENDBRANCH   1   2
BRANCH   1  11
HETATM   11  C   UNK N   1      31.405  16.404   7.471  0.00  0.00     0.023 C 
BRANCH  11  12
HETATM   12  C   UNK N   1      32.105  17.337   8.445  0.00  0.00     0.037 C 
BRANCH  12  13
HETATM   13  C   UNK N   1      33.604  17.061   8.487  0.00  0.00     0.173 C 
BRANCH  13  14
HETATM   14  N   UNK N   1      34.041  17.033   9.873  0.00  0.00    -0.418 N 
HETATM   15  H   UNK N   1      35.012  16.820  10.101  0.00  0.00     0.150 HD
HETATM   16  H   UNK N   1      33.374  17.225  10.620  0.00  0.00     0.150 HD
ENDBRANCH  13  14
BRANCH  13  17
HETATM   17  C   UNK N   1      34.366  18.096   7.709  0.00  0.00     0.163 C 
HETATM   18  O   UNK N   1      34.391  18.046   6.489  0.00  0.00    -0.648 OA
BRANCH  17  19
HETATM   19  O   UNK N   1      35.042  19.072   8.347  0.00  0.00    -0.775 OA
HETATM   20  H   UNK N   1      35.049  19.949   8.016  0.00  0.00     0.167 HD
ENDBRANCH  17  19
ENDBRANCH  13  17
ENDBRANCH  12  13
ENDBRANCH  11  12
ENDBRANCH   1  11
TORSDOF 7
ENDMDL
MODEL 5
REMARK VINA RESULT:      -4.7      8.258     11.273
REMARK  7 active torsions:
REMARK  status: ('A' for Active; 'I' for Inactive)
REMARK       I    between atoms: N_2  and  C_3 
REMARK       I    between atoms: C_3  and  N_6 
REMARK    1  A    between atoms: N_6  and  C_7 
REMARK    2  A    between atoms: C_7  and  C_8 
REMARK    3  A    between atoms: C_8  and  C_9 
REMARK    4  A    between atoms: C_9  and  C_10 
REMARK    5  A    between atoms: C_10  and  N_11 
REMARK    6  A    between atoms: C_10  and  C_12 
REMARK    7  A    between atoms: C_12  and  O_13 
ROOT
HETATM    1  C   UNK N   1      22.706  17.756   4.146  0.00  0.00     0.138 C 
ENDROOT
BRANCH   1   2
HETATM    2  N   UNK N   1      23.455  18.959   3.855  0.00  0.00    -0.227 N 
HETATM    3  C   UNK N   1      24.725  19.233   4.435  0.00  0.00     0.667 C 
HETATM    4  N   UNK N   1      25.518  20.279   3.894  0.00  0.00    -0.231 N 
HETATM    5  N   UNK N   1      25.181  18.495   5.381  0.00  0.00    -0.235 N 
HETATM    6  C   UNK N   1      26.867  20.516   4.344  0.00  0.00     0.165 C 
HETATM    7  H   UNK N   1      25.137  20.856   3.194  0.00  0.00     0.177 HD
HETATM    8  H   UNK N   1      24.651  17.754   5.753  0.00  0.00     0.174 HD
ATOM      9  HN  UNK N   1      26.113  18.680   5.753  1.00  0.00     0.174 HD
HETATM   10  H   UNK N   1      23.071  19.615   3.229  0.00  0.00     0.177 HD
ENDBRANCH   1   2
BRANCH   1  11
HETATM   11  C   UNK N   1      21.400  17.701   3.366  0.00  0.00     0.023 C 
BRANCH  11  12
HETATM   12  C   UNK N   1      20.622  18.995   3.542  0.00  0.00     0.037 C 
BRANCH  12  13
HETATM   13  C   UNK N   1      20.197  19.566   2.194  0.00  0.00     0.173 C 
BRANCH  13  14
HETATM   14  N   UNK N   1      20.127  18.486   1.225  0.00  0.00    -0.418 N 
HETATM   15  H   UNK N   1      20.954  18.219   0.691  0.00  0.00     0.150 HD
HETATM   16  H   UNK N   1      19.246  17.993   1.076  0.00  0.00     0.150 HD
ENDBRANCH  13  14
BRANCH  13  17
HETATM   17  C   UNK N   1      21.151  20.633   1.735  0.00  0.00     0.163 C 
HETATM   18  O   UNK N   1      21.383  20.772   0.544  0.00  0.00    -0.648 OA
BRANCH  17  19
HETATM   19  O   UNK N   1      21.771  21.428   2.629  0.00  0.00    -0.775 OA
HETATM   20  H   UNK N   1      21.371  21.628   3.454  0.00  0.00     0.167 HD
ENDBRANCH  17  19
ENDBRANCH  13  17
ENDBRANCH  12  13
ENDBRANCH  11  12
ENDBRANCH   1  11
TORSDOF 7
ENDMDL
MODEL 6
REMARK VINA RESULT:      -4.7      8.509     10.698
REMARK  7 active torsions:
REMARK  status: ('A' for Active; 'I' for Inactive)
REMARK       I    between atoms: N_2  and  C_3 
REMARK       I    between atoms: C_3  and  N_6 
REMARK    1  A    between atoms: N_6  and  C_7 
REMARK    2  A    between atoms: C_7  and  C_8 
REMARK    3  A    between atoms: C_8  and  C_9 
REMARK    4  A    between atoms: C_9  and  C_10 
REMARK    5  A    between atoms: C_10  and  N_11 
REMARK    6  A    between atoms: C_10  and  C_12 
REMARK    7  A    between atoms: C_12  and  O_13 
ROOT
HETATM    1  C   UNK N   1      36.362  13.148  14.471  0.00  0.00     0.138 C 
ENDROOT
BRANCH   1   2
HETATM    2  N   UNK N   1      36.800  14.164  13.539  0.00  0.00    -0.227 N 
HETATM    3  C   UNK N   1      36.013  14.583  12.431  0.00  0.00     0.667 C 
HETATM    4  N   UNK N   1      36.377  15.764  11.734  0.00  0.00    -0.231 N 
HETATM    5  N   UNK N   1      34.944  13.945  12.114  0.00  0.00    -0.235 N 
HETATM    6  C   UNK N   1      35.545  16.317  10.693  0.00  0.00     0.165 C 
HETATM    7  H   UNK N   1      37.218  16.219  11.968  0.00  0.00     0.177 HD
HETATM    8  H   UNK N   1      34.669  13.135  12.600  0.00  0.00     0.174 HD
ATOM      9  HN  UNK N   1      34.370  14.287  11.344  1.00  0.00     0.174 HD
HETATM   10  H   UNK N   1      37.680  14.584  13.677  0.00  0.00     0.177 HD
ENDBRANCH   1   2
BRANCH   1  11
HETATM   11  C   UNK N   1      36.294  13.679  15.895  0.00  0.00     0.023 C 
BRANCH  11  12
HETATM   12  C   UNK N   1      35.069  13.131  16.608  0.00  0.00     0.037 C 
BRANCH  12  13
HETATM   13  C   UNK N   1      34.981  13.664  18.034  0.00  0.00     0.173 C 
BRANCH  13  14
HETATM   14  N   UNK N   1      35.886  14.791  18.173  0.00  0.00    -0.418 N 
HETATM   15  H   UNK N   1      35.680  15.537  18.839  0.00  0.00     0.150 HD
HETATM   16  H   UNK N   1      36.731  14.839  17.603  0.00  0.00     0.150 HD
ENDBRANCH  13  14
BRANCH  13  17
HETATM   17  C   UNK N   1      35.308  12.590  19.033  0.00  0.00     0.163 C 
HETATM   18  O   UNK N   1      35.215  11.414  18.717  0.00  0.00    -0.648 OA
BRANCH  17  19
HETATM   19  O   UNK N   1      35.685  12.914  20.286  0.00  0.00    -0.775 OA
HETATM   20  H   UNK N   1      35.048  13.055  20.959  0.00  0.00     0.167 HD
ENDBRANCH  17  19
ENDBRANCH  13  17
ENDBRANCH  12  13
ENDBRANCH  11  12
ENDBRANCH   1  11
TORSDOF 7
ENDMDL
MODEL 7
REMARK VINA RESULT:      -4.6      3.066      5.155
REMARK  7 active torsions:
REMARK  status: ('A' for Active; 'I' for Inactive)
REMARK       I    between atoms: N_2  and  C_3 
REMARK       I    between atoms: C_3  and  N_6 
REMARK    1  A    between atoms: N_6  and  C_7 
REMARK    2  A    between atoms: C_7  and  C_8 
REMARK    3  A    between atoms: C_8  and  C_9 
REMARK    4  A    between atoms: C_9  and  C_10 
REMARK    5  A    between atoms: C_10  and  N_11 
REMARK    6  A    between atoms: C_10  and  C_12 
REMARK    7  A    between atoms: C_12  and  O_13 
ROOT
HETATM    1  C   UNK N   1      31.247  16.470   8.469  0.00  0.00     0.138 C 
ENDROOT
BRANCH   1   2
HETATM    2  N   UNK N   1      32.417  17.097   9.045  0.00  0.00    -0.227 N 
HETATM    3  C   UNK N   1      33.382  16.377   9.801  0.00  0.00     0.667 C 
HETATM    4  N   UNK N   1      34.629  16.990  10.090  0.00  0.00    -0.231 N 
HETATM    5  N   UNK N   1      33.159  15.162  10.152  0.00  0.00    -0.235 N 
HETATM    6  C   UNK N   1      35.699  16.266  10.731  0.00  0.00     0.165 C 
HETATM    7  H   UNK N   1      34.768  17.933   9.845  0.00  0.00     0.177 HD
HETATM    8  H   UNK N   1      32.307  14.717   9.942  0.00  0.00     0.174 HD
ATOM      9  HN  UNK N   1      33.882  14.648  10.656  1.00  0.00     0.174 HD
HETATM   10  H   UNK N   1      32.551  18.063   8.906  0.00  0.00     0.177 HD
ENDBRANCH   1   2
BRANCH   1  11
HETATM   11  C   UNK N   1      30.900  17.060   7.110  0.00  0.00     0.023 C 
BRANCH  11  12
HETATM   12  C   UNK N   1      31.741  16.413   6.021  0.00  0.00     0.037 C 
BRANCH  12  13
HETATM   13  C   UNK N   1      32.770  17.393   5.469  0.00  0.00     0.173 C 
BRANCH  13  14
HETATM   14  N   UNK N   1      32.868  17.214   4.030  0.00  0.00    -0.418 N 
HETATM   15  H   UNK N   1      33.261  17.953   3.446  0.00  0.00     0.150 HD
HETATM   16  H   UNK N   1      32.544  16.347   3.603  0.00  0.00     0.150 HD
ENDBRANCH  13  14
BRANCH  13  17
HETATM   17  C   UNK N   1      34.108  17.198   6.124  0.00  0.00     0.163 C 
HETATM   18  O   UNK N   1      34.503  18.000   6.956  0.00  0.00    -0.648 OA
BRANCH  17  19
HETATM   19  O   UNK N   1      34.889  16.152   5.786  0.00  0.00    -0.775 OA
HETATM   20  H   UNK N   1      34.524  15.389   5.382  0.00  0.00     0.167 HD
ENDBRANCH  17  19
ENDBRANCH  13  17
ENDBRANCH  12  13
ENDBRANCH  11  12
ENDBRANCH   1  11
TORSDOF 7
ENDMDL
MODEL 8
REMARK VINA RESULT:      -4.5      3.494      6.508
REMARK  7 active torsions:
REMARK  status: ('A' for Active; 'I' for Inactive)
REMARK       I    between atoms: N_2  and  C_3 
REMARK       I    between atoms: C_3  and  N_6 
REMARK    1  A    between atoms: N_6  and  C_7 
REMARK    2  A    between atoms: C_7  and  C_8 
REMARK    3  A    between atoms: C_8  and  C_9 
REMARK    4  A    between atoms: C_9  and  C_10 
REMARK    5  A    between atoms: C_10  and  N_11 
REMARK    6  A    between atoms: C_10  and  C_12 
REMARK    7  A    between atoms: C_12  and  O_13 
ROOT
HETATM    1  C   UNK N   1      33.315  17.265   8.659  0.00  0.00     0.138 C 
ENDROOT
BRANCH   1   2
HETATM    2  N   UNK N   1      33.129  16.110   9.510  0.00  0.00    -0.227 N 
HETATM    3  C   UNK N   1      34.217  15.390  10.078  0.00  0.00     0.667 C 
HETATM    4  N   UNK N   1      33.959  14.456  11.115  0.00  0.00    -0.231 N 
HETATM    5  N   UNK N   1      35.423  15.638   9.712  0.00  0.00    -0.235 N 
HETATM    6  C   UNK N   1      35.028  13.797  11.825  0.00  0.00     0.165 C 
HETATM    7  H   UNK N   1      33.027  14.254  11.357  0.00  0.00     0.177 HD
HETATM    8  H   UNK N   1      35.619  16.296   9.008  0.00  0.00     0.174 HD
ATOM      9  HN  UNK N   1      36.192  15.142  10.162  1.00  0.00     0.174 HD
HETATM   10  H   UNK N   1      32.212  15.810   9.706  0.00  0.00     0.177 HD
ENDBRANCH   1   2
BRANCH   1  11
HETATM   11  C   UNK N   1      31.992  17.941   8.327  0.00  0.00     0.023 C 
BRANCH  11  12
HETATM   12  C   UNK N   1      30.835  16.982   8.554  0.00  0.00     0.037 C 
BRANCH  12  13
HETATM   13  C   UNK N   1      29.774  17.607   9.453  0.00  0.00     0.173 C 
BRANCH  13  14
HETATM   14  N   UNK N   1      29.645  16.806  10.658  0.00  0.00    -0.418 N 
HETATM   15  H   UNK N   1      29.353  15.830  10.599  0.00  0.00     0.150 HD
HETATM   16  H   UNK N   1      29.847  17.221  11.568  0.00  0.00     0.150 HD
ENDBRANCH  13  14
BRANCH  13  17
HETATM   17  C   UNK N   1      28.456  17.713   8.740  0.00  0.00     0.163 C 
HETATM   18  O   UNK N   1      28.359  17.345   7.579  0.00  0.00    -0.648 OA
BRANCH  17  19
HETATM   19  O   UNK N   1      27.379  18.232   9.364  0.00  0.00    -0.775 OA
HETATM   20  H   UNK N   1      26.677  17.680   9.650  0.00  0.00     0.167 HD
ENDBRANCH  17  19
ENDBRANCH  13  17
ENDBRANCH  12  13
ENDBRANCH  11  12
ENDBRANCH   1  11
TORSDOF 7
ENDMDL
MODEL 9
REMARK VINA RESULT:      -4.5      3.401      7.193
REMARK  7 active torsions:
REMARK  status: ('A' for Active; 'I' for Inactive)
REMARK       I    between atoms: N_2  and  C_3 
REMARK       I    between atoms: C_3  and  N_6 
REMARK    1  A    between atoms: N_6  and  C_7 
REMARK    2  A    between atoms: C_7  and  C_8 
REMARK    3  A    between atoms: C_8  and  C_9 
REMARK    4  A    between atoms: C_9  and  C_10 
REMARK    5  A    between atoms: C_10  and  N_11 
REMARK    6  A    between atoms: C_10  and  C_12 
REMARK    7  A    between atoms: C_12  and  O_13 
ROOT
HETATM    1  C   UNK N   1      34.573  15.511  10.474  0.00  0.00     0.138 C 
ENDROOT
BRANCH   1   2
HETATM    2  N   UNK N   1      35.812  15.211   9.792  0.00  0.00    -0.227 N 
HETATM    3  C   UNK N   1      36.874  14.492  10.408  0.00  0.00     0.667 C 
HETATM    4  N   UNK N   1      37.929  13.995   9.599  0.00  0.00    -0.231 N 
HETATM    5  N   UNK N   1      36.839  14.228  11.664  0.00  0.00    -0.235 N 
HETATM    6  C   UNK N   1      38.960  13.143  10.138  0.00  0.00     0.165 C 
HETATM    7  H   UNK N   1      37.958  14.238   8.646  0.00  0.00     0.177 HD
HETATM    8  H   UNK N   1      36.104  14.549  12.234  0.00  0.00     0.174 HD
ATOM      9  HN  UNK N   1      37.588  13.673  12.078  1.00  0.00     0.174 HD
HETATM   10  H   UNK N   1      35.926  15.516   8.863  0.00  0.00     0.177 HD
ENDBRANCH   1   2
BRANCH   1  11
HETATM   11  C   UNK N   1      33.360  15.149   9.629  0.00  0.00     0.023 C 
BRANCH  11  12
HETATM   12  C   UNK N   1      33.330  15.985   8.359  0.00  0.00     0.037 C 
BRANCH  12  13
HETATM   13  C   UNK N   1      33.310  17.474   8.684  0.00  0.00     0.173 C 
BRANCH  13  14
HETATM   14  N   UNK N   1      31.974  17.992   8.443  0.00  0.00    -0.418 N 
HETATM   15  H   UNK N   1      31.752  18.963   8.663  0.00  0.00     0.150 HD
HETATM   16  H   UNK N   1      31.256  17.383   8.052  0.00  0.00     0.150 HD
ENDBRANCH  13  14
BRANCH  13  17
HETATM   17  C   UNK N   1      34.327  18.220   7.867  0.00  0.00     0.163 C 
HETATM   18  O   UNK N   1      35.016  19.082   8.390  0.00  0.00    -0.648 OA
BRANCH  17  19
HETATM   19  O   UNK N   1      34.474  17.959   6.553  0.00  0.00    -0.775 OA
HETATM   20  H   UNK N   1      34.144  18.551   5.905  0.00  0.00     0.167 HD
ENDBRANCH  17  19
ENDBRANCH  13  17
ENDBRANCH  12  13
ENDBRANCH  11  12
ENDBRANCH   1  11
TORSDOF 7
ENDMDL
