REMARK  8 active torsions:
REMARK  status: ('A' for Active; 'I' for Inactive)
REMARK    1  A    between atoms: C_2  and  C_3 
REMARK    2  A    between atoms: C_6  and  C_9 
REMARK    3  A    between atoms: C_9  and  C_10 
REMARK    4  A    between atoms: C_17  and  O_26 
REMARK    5  A    between atoms: C_18  and  O_25 
REMARK    6  A    between atoms: C_19  and  O_24 
REMARK    7  A    between atoms: C_20  and  C_22 
REMARK    8  A    between atoms: C_22  and  O_23 
ROOT
HETATM    1  C   UNK N   1       5.720   1.524  -0.817  0.00  0.00    -0.053 A 
HETATM    2  C   UNK N   1       6.587   0.443  -0.562  0.00  0.00     0.008 A 
HETATM    3  C   UNK N   1       6.130  -0.692   0.110  0.00  0.00     0.010 A 
HETATM    4  C   UNK N   1       4.797  -0.736   0.499  0.00  0.00    -0.023 A 
HETATM    5  C   UNK N   1       3.931   0.253   0.220  0.00  0.00     0.015 A 
HETATM    6  C   UNK N   1       4.358   1.418  -0.447  0.00  0.00     0.021 A 
HETATM    7  C   UNK N   1       2.581  -0.128   0.759  0.00  0.00     0.223 C 
HETATM    8  C   UNK N   1       1.504  -0.507  -0.290  0.00  0.00     0.217 C 
HETATM    9  C   UNK N   1       0.864   0.684  -0.978  0.00  0.00     0.183 C 
HETATM   10  C   UNK N   1       0.450   1.703   0.073  0.00  0.00     0.180 C 
HETATM   11  C   UNK N   1       1.698   2.015   0.909  0.00  0.00     0.180 C 
HETATM   12  O   UNK N   1       2.086   0.867   1.645  0.00  0.00    -0.339 OA
HETATM   13  O   UNK N   1       2.816  -1.323   1.510  0.00  0.00    -0.344 OA
HETATM   14  C   UNK N   1       4.131  -1.802   1.238  0.00  0.00     0.211 C 
ENDROOT
BRANCH   8  15
HETATM   15  O   UNK N   1       1.989  -1.429  -1.222  0.00  0.00    -0.387 OA
HETATM   16  H   UNK N   1       1.603  -2.040  -1.869  0.00  0.00     0.210 HD
ENDBRANCH   8  15
BRANCH   9  17
HETATM   17  O   UNK N   1      -0.261   0.258  -1.689  0.00  0.00    -0.390 OA
HETATM   18  H   UNK N   1      -0.908   0.786  -2.182  0.00  0.00     0.210 HD
ENDBRANCH   9  17
BRANCH  11  19
HETATM   19  C   UNK N   1       1.507   3.190   1.852  0.00  0.00     0.198 C 
BRANCH  19  20
HETATM   20  O   UNK N   1       1.525   4.384   1.129  0.00  0.00    -0.398 OA
HETATM   21  H   UNK N   1       2.249   4.787   0.626  0.00  0.00     0.209 HD
ENDBRANCH  19  20
ENDBRANCH  11  19
BRANCH   1  22
HETATM   22  C   UNK N   1       6.244   2.749  -1.522  0.00  0.00     0.077 C 
BRANCH  22  23
HETATM   23  C   UNK N   1       7.505   3.340  -0.924  0.00  0.00    -0.054 A 
HETATM   24  C   UNK N   1       8.641   2.539  -0.737  0.00  0.00     0.008 A 
HETATM   25  C   UNK N   1       9.835   3.089  -0.270  0.00  0.00     0.007 A 
HETATM   26  C   UNK N   1       9.928   4.457  -0.010  0.00  0.00    -0.059 A 
HETATM   27  C   UNK N   1       8.795   5.271  -0.200  0.00  0.00     0.007 A 
HETATM   28  C   UNK N   1       7.588   4.713  -0.653  0.00  0.00     0.008 A 
BRANCH  26  29
HETATM   29  C   UNK N   1      11.254   5.005   0.439  0.00  0.00     0.034 C 
HETATM   30  C   UNK N   1      11.313   6.523   0.507  0.00  0.00     0.010 C 
ENDBRANCH  26  29
ENDBRANCH  22  23
ENDBRANCH   1  22
BRANCH  10  31
HETATM   31  O   UNK N   1      -0.035   2.845  -0.568  0.00  0.00    -0.390 OA
HETATM   32  H   UNK N   1       0.483   3.533  -1.013  0.00  0.00     0.210 HD
ENDBRANCH  10  31
TORSDOF 8
