MODEL 1
REMARK VINA RESULT:      -4.7      0.000      0.000
REMARK  1 active torsions:
REMARK  status: ('A' for Active; 'I' for Inactive)
REMARK    1  A    between atoms: C_2  and  N_11 
ROOT
HETATM    1  C   UNK N   1      28.825  26.212  -5.157  0.00  0.00     0.039 C 
HETATM    2  C   UNK N   1      27.898  27.220  -4.457  0.00  0.00     0.032 C 
HETATM    3  C   UNK N   1      26.731  26.520  -3.723  0.00  0.00     0.014 C 
HETATM    4  C   UNK N   1      25.961  25.606  -4.676  0.00  0.00     0.007 C 
HETATM    5  C   UNK N   1      25.185  26.580  -5.554  0.00  0.00     0.006 C 
HETATM    6  C   UNK N   1      25.652  27.951  -5.063  0.00  0.00    -0.004 C 
HETATM    7  C   UNK N   1      25.761  27.670  -3.584  0.00  0.00     0.012 C 
HETATM    8  C   UNK N   1      27.131  28.168  -5.455  0.00  0.00    -0.019 C 
HETATM    9  C   UNK N   1      27.353  27.869  -6.940  0.00  0.00     0.018 C 
HETATM   10  C   UNK N   1      27.476  29.645  -5.258  0.00  0.00     0.018 C 
ENDROOT
BRANCH   2  11
HETATM   11  N   UNK N   1      28.680  28.008  -3.487  0.00  0.00    -0.416 N 
HETATM   12  C   UNK N   1      30.102  27.668  -3.525  0.00  0.00     0.140 C 
HETATM   13  H   UNK N   1      28.277  28.707  -2.863  0.00  0.00     0.153 HD
ENDBRANCH   2  11
TORSDOF 1
ENDMDL
MODEL 2
REMARK VINA RESULT:      -4.5     16.017     17.593
REMARK  1 active torsions:
REMARK  status: ('A' for Active; 'I' for Inactive)
REMARK    1  A    between atoms: C_2  and  N_11 
ROOT
HETATM    1  C   UNK N   1      30.847  17.096   6.758  0.00  0.00     0.039 C 
HETATM    2  C   UNK N   1      32.048  17.038   7.717  0.00  0.00     0.032 C 
HETATM    3  C   UNK N   1      33.245  17.870   7.198  0.00  0.00     0.014 C 
HETATM    4  C   UNK N   1      33.627  17.444   5.780  0.00  0.00     0.007 C 
HETATM    5  C   UNK N   1      34.302  16.094   5.984  0.00  0.00     0.006 C 
HETATM    6  C   UNK N   1      34.167  15.851   7.488  0.00  0.00    -0.004 C 
HETATM    7  C   UNK N   1      34.374  17.259   7.994  0.00  0.00     0.012 C 
HETATM    8  C   UNK N   1      32.684  15.601   7.843  0.00  0.00    -0.019 C 
HETATM    9  C   UNK N   1      32.075  14.536   6.929  0.00  0.00     0.018 C 
HETATM   10  C   UNK N   1      32.611  15.041   9.264  0.00  0.00     0.018 C 
ENDROOT
BRANCH   2  11
HETATM   11  N   UNK N   1      31.641  17.545   9.039  0.00  0.00    -0.416 N 
HETATM   12  C   UNK N   1      30.453  18.395   8.958  0.00  0.00     0.140 C 
HETATM   13  H   UNK N   1      32.130  17.330   9.908  0.00  0.00     0.153 HD
ENDBRANCH   2  11
TORSDOF 1
ENDMDL
MODEL 3
REMARK VINA RESULT:      -4.5     25.348     26.662
REMARK  1 active torsions:
REMARK  status: ('A' for Active; 'I' for Inactive)
REMARK    1  A    between atoms: C_2  and  N_11 
ROOT
HETATM    1  C   UNK N   1      35.579  12.824  16.487  0.00  0.00     0.039 C 
HETATM    2  C   UNK N   1      36.031  12.460  15.062  0.00  0.00     0.032 C 
HETATM    3  C   UNK N   1      34.830  12.272  14.104  0.00  0.00     0.014 C 
HETATM    4  C   UNK N   1      33.842  11.250  14.668  0.00  0.00     0.007 C 
HETATM    5  C   UNK N   1      34.557   9.919  14.472  0.00  0.00     0.006 C 
HETATM    6  C   UNK N   1      35.912  10.324  13.889  0.00  0.00    -0.004 C 
HETATM    7  C   UNK N   1      35.478  11.467  13.003  0.00  0.00     0.012 C 
HETATM    8  C   UNK N   1      36.743  11.058  14.967  0.00  0.00    -0.019 C 
HETATM    9  C   UNK N   1      36.780  10.255  16.270  0.00  0.00     0.018 C 
HETATM   10  C   UNK N   1      38.190  11.157  14.482  0.00  0.00     0.018 C 
ENDROOT
BRANCH   2  11
HETATM   11  N   UNK N   1      36.905  13.525  14.541  0.00  0.00    -0.416 N 
HETATM   12  C   UNK N   1      37.075  14.614  15.504  0.00  0.00     0.140 C 
HETATM   13  H   UNK N   1      37.341  13.506  13.619  0.00  0.00     0.153 HD
ENDBRANCH   2  11
TORSDOF 1
ENDMDL
MODEL 4
REMARK VINA RESULT:      -4.4     24.825     26.398
REMARK  1 active torsions:
REMARK  status: ('A' for Active; 'I' for Inactive)
REMARK    1  A    between atoms: C_2  and  N_11 
ROOT
HETATM    1  C   UNK N   1      36.902  13.605  15.193  0.00  0.00     0.039 C 
HETATM    2  C   UNK N   1      35.784  12.746  14.576  0.00  0.00     0.032 C 
HETATM    3  C   UNK N   1      34.593  12.564  15.546  0.00  0.00     0.014 C 
HETATM    4  C   UNK N   1      35.067  12.004  16.888  0.00  0.00     0.007 C 
HETATM    5  C   UNK N   1      35.386  10.548  16.572  0.00  0.00     0.006 C 
HETATM    6  C   UNK N   1      35.138  10.446  15.067  0.00  0.00    -0.004 C 
HETATM    7  C   UNK N   1      33.931  11.346  14.945  0.00  0.00     0.012 C 
HETATM    8  C   UNK N   1      36.213  11.255  14.306  0.00  0.00    -0.019 C 
HETATM    9  C   UNK N   1      37.618  10.883  14.786  0.00  0.00     0.018 C 
HETATM   10  C   UNK N   1      36.151  10.876  12.825  0.00  0.00     0.018 C 
ENDROOT
BRANCH   2  11
HETATM   11  N   UNK N   1      35.308  13.385  13.336  0.00  0.00    -0.416 N 
HETATM   12  C   UNK N   1      36.070  14.591  13.013  0.00  0.00     0.140 C 
HETATM   13  H   UNK N   1      34.538  13.028  12.770  0.00  0.00     0.153 HD
ENDBRANCH   2  11
TORSDOF 1
ENDMDL
MODEL 5
REMARK VINA RESULT:      -4.3     26.422     27.757
REMARK  1 active torsions:
REMARK  status: ('A' for Active; 'I' for Inactive)
REMARK    1  A    between atoms: C_2  and  N_11 
ROOT
HETATM    1  C   UNK N   1      33.558  10.780  14.685  0.00  0.00     0.039 C 
HETATM    2  C   UNK N   1      35.055  10.617  15.000  0.00  0.00     0.032 C 
HETATM    3  C   UNK N   1      35.317   9.447  15.978  0.00  0.00     0.014 C 
HETATM    4  C   UNK N   1      34.481   9.606  17.249  0.00  0.00     0.007 C 
HETATM    5  C   UNK N   1      35.176  10.741  17.990  0.00  0.00     0.006 C 
HETATM    6  C   UNK N   1      36.288  11.167  17.031  0.00  0.00    -0.004 C 
HETATM    7  C   UNK N   1      36.689   9.816  16.490  0.00  0.00     0.012 C 
HETATM    8  C   UNK N   1      35.671  11.838  15.783  0.00  0.00    -0.019 C 
HETATM    9  C   UNK N   1      34.671  12.925  16.185  0.00  0.00     0.018 C 
HETATM   10  C   UNK N   1      36.785  12.543  15.008  0.00  0.00     0.018 C 
ENDROOT
BRANCH   2  11
HETATM   11  N   UNK N   1      35.793  10.377  13.746  0.00  0.00    -0.416 N 
HETATM   12  C   UNK N   1      35.309   9.187  13.045  0.00  0.00     0.140 C 
HETATM   13  H   UNK N   1      36.551  10.969  13.408  0.00  0.00     0.153 HD
ENDBRANCH   2  11
TORSDOF 1
ENDMDL
MODEL 6
REMARK VINA RESULT:      -4.3     16.712     18.207
REMARK  1 active torsions:
REMARK  status: ('A' for Active; 'I' for Inactive)
REMARK    1  A    between atoms: C_2  and  N_11 
ROOT
HETATM    1  C   UNK N   1      32.869  15.086   9.488  0.00  0.00     0.039 C 
HETATM    2  C   UNK N   1      33.810  15.990   8.674  0.00  0.00     0.032 C 
HETATM    3  C   UNK N   1      33.329  17.461   8.659  0.00  0.00     0.014 C 
HETATM    4  C   UNK N   1      31.884  17.553   8.168  0.00  0.00     0.007 C 
HETATM    5  C   UNK N   1      31.999  17.289   6.672  0.00  0.00     0.006 C 
HETATM    6  C   UNK N   1      33.487  16.995   6.475  0.00  0.00    -0.004 C 
HETATM    7  C   UNK N   1      34.075  17.983   7.453  0.00  0.00     0.012 C 
HETATM    8  C   UNK N   1      33.843  15.644   7.137  0.00  0.00    -0.019 C 
HETATM    9  C   UNK N   1      32.872  14.546   6.696  0.00  0.00     0.018 C 
HETATM   10  C   UNK N   1      35.228  15.213   6.653  0.00  0.00     0.018 C 
ENDROOT
BRANCH   2  11
HETATM   11  N   UNK N   1      35.165  15.929   9.251  0.00  0.00    -0.416 N 
HETATM   12  C   UNK N   1      35.219  16.522  10.587  0.00  0.00     0.140 C 
HETATM   13  H   UNK N   1      35.969  15.521   8.775  0.00  0.00     0.153 HD
ENDBRANCH   2  11
TORSDOF 1
ENDMDL
MODEL 7
REMARK VINA RESULT:      -4.3     15.912     17.420
REMARK  1 active torsions:
REMARK  status: ('A' for Active; 'I' for Inactive)
REMARK    1  A    between atoms: C_2  and  N_11 
ROOT
HETATM    1  C   UNK N   1      32.142  15.458   8.992  0.00  0.00     0.039 C 
HETATM    2  C   UNK N   1      32.377  16.652   8.051  0.00  0.00     0.032 C 
HETATM    3  C   UNK N   1      31.751  16.422   6.656  0.00  0.00     0.014 C 
HETATM    4  C   UNK N   1      32.250  15.110   6.048  0.00  0.00     0.007 C 
HETATM    5  C   UNK N   1      33.687  15.426   5.653  0.00  0.00     0.006 C 
HETATM    6  C   UNK N   1      33.886  16.859   6.146  0.00  0.00    -0.004 C 
HETATM    7  C   UNK N   1      32.523  17.429   5.836  0.00  0.00     0.012 C 
HETATM    8  C   UNK N   1      33.894  16.881   7.692  0.00  0.00    -0.019 C 
HETATM    9  C   UNK N   1      34.861  15.833   8.248  0.00  0.00     0.018 C 
HETATM   10  C   UNK N   1      34.419  18.240   8.157  0.00  0.00     0.018 C 
ENDROOT
BRANCH   2  11
HETATM   11  N   UNK N   1      31.795  17.867   8.650  0.00  0.00    -0.416 N 
HETATM   12  C   UNK N   1      30.358  17.727   8.884  0.00  0.00     0.140 C 
HETATM   13  H   UNK N   1      32.331  18.705   8.875  0.00  0.00     0.153 HD
ENDBRANCH   2  11
TORSDOF 1
ENDMDL
MODEL 8
REMARK VINA RESULT:      -4.2     24.739     26.343
REMARK  1 active torsions:
REMARK  status: ('A' for Active; 'I' for Inactive)
REMARK    1  A    between atoms: C_2  and  N_11 
ROOT
HETATM    1  C   UNK N   1      36.211  11.100  11.959  0.00  0.00     0.039 C 
HETATM    2  C   UNK N   1      35.693  11.647  13.300  0.00  0.00     0.032 C 
HETATM    3  C   UNK N   1      36.829  12.261  14.152  0.00  0.00     0.014 C 
HETATM    4  C   UNK N   1      37.965  11.256  14.347  0.00  0.00     0.007 C 
HETATM    5  C   UNK N   1      37.389  10.257  15.342  0.00  0.00     0.006 C 
HETATM    6  C   UNK N   1      35.956  10.749  15.553  0.00  0.00    -0.004 C 
HETATM    7  C   UNK N   1      36.191  12.240  15.521  0.00  0.00     0.012 C 
HETATM    8  C   UNK N   1      35.135  10.530  14.262  0.00  0.00    -0.019 C 
HETATM    9  C   UNK N   1      35.289   9.095  13.752  0.00  0.00     0.018 C 
HETATM   10  C   UNK N   1      33.653  10.713  14.590  0.00  0.00     0.018 C 
ENDROOT
BRANCH   2  11
HETATM   11  N   UNK N   1      34.668  12.674  13.044  0.00  0.00    -0.416 N 
HETATM   12  C   UNK N   1      35.076  13.605  11.992  0.00  0.00     0.140 C 
HETATM   13  H   UNK N   1      33.780  12.730  13.542  0.00  0.00     0.153 HD
ENDBRANCH   2  11
TORSDOF 1
ENDMDL
MODEL 9
REMARK VINA RESULT:      -4.2     15.963     17.517
REMARK  1 active torsions:
REMARK  status: ('A' for Active; 'I' for Inactive)
REMARK    1  A    between atoms: C_2  and  N_11 
ROOT
HETATM    1  C   UNK N   1      31.397  17.863   8.551  0.00  0.00     0.039 C 
HETATM    2  C   UNK N   1      31.887  16.893   7.462  0.00  0.00     0.032 C 
HETATM    3  C   UNK N   1      31.915  15.429   7.962  0.00  0.00     0.014 C 
HETATM    4  C   UNK N   1      32.740  15.310   9.245  0.00  0.00     0.007 C 
HETATM    5  C   UNK N   1      34.176  15.459   8.759  0.00  0.00     0.006 C 
HETATM    6  C   UNK N   1      34.020  15.727   7.262  0.00  0.00    -0.004 C 
HETATM    7  C   UNK N   1      32.859  14.811   6.958  0.00  0.00     0.012 C 
HETATM    8  C   UNK N   1      33.389  17.121   7.045  0.00  0.00    -0.019 C 
HETATM    9  C   UNK N   1      34.134  18.189   7.849  0.00  0.00     0.018 C 
HETATM   10  C   UNK N   1      33.547  17.503   5.572  0.00  0.00     0.018 C 
ENDROOT
BRANCH   2  11
HETATM   11  N   UNK N   1      31.000  16.988   6.289  0.00  0.00    -0.416 N 
HETATM   12  C   UNK N   1      29.605  17.203   6.674  0.00  0.00     0.140 C 
HETATM   13  H   UNK N   1      31.320  16.913   5.324  0.00  0.00     0.153 HD
ENDBRANCH   2  11
TORSDOF 1
ENDMDL
