MODEL 1
REMARK VINA RESULT:      -7.4      0.000      0.000
REMARK  7 active torsions:
REMARK  status: ('A' for Active; 'I' for Inactive)
REMARK    1  A    between atoms: C_3  and  C_9 
REMARK    2  A    between atoms: C_11  and  C_15 
REMARK       I    between atoms: C_15  and  N_17 
REMARK    3  A    between atoms: C_18  and  N_17 
REMARK    4  A    between atoms: C_18  and  C_19 
REMARK    5  A    between atoms: C_18  and  C_27 
REMARK    6  A    between atoms: C_19  and  C_20 
REMARK    7  A    between atoms: C_27  and  N_28 
ROOT
HETATM    1  C   UNK N   1      34.927  15.975  10.298  0.00  0.00     0.259 C 
HETATM    2  O   UNK N   1      35.123  17.056  10.830  0.00  0.00    -0.267 OA
HETATM    3  N   UNK N   1      34.161  15.859   9.190  0.00  0.00    -0.350 N 
HETATM    4  H   UNK N   1      34.123  14.979   8.750  0.00  0.00     0.163 HD
ENDROOT
BRANCH   1   5
HETATM    5  C   UNK N   1      35.408  14.736  10.885  0.00  0.00     0.075 A 
HETATM    6  C   UNK N   1      35.101  14.421  12.190  0.00  0.00     0.040 A 
HETATM    7  C   UNK N   1      35.794  13.318  12.715  0.00  0.00     0.024 A 
HETATM    8  C   UNK N   1      36.664  12.735  11.755  0.00  0.00     0.088 A 
HETATM    9  S   UNK N   1      36.525  13.643  10.361  0.00  0.00    -0.072 SA
HETATM   10 Cl   UNK N   1      37.857  11.466  11.918  0.00  0.00    -0.075 Cl
BRANCH   7  11
HETATM   11  C   UNK N   1      35.588  13.007  14.167  0.00  0.00     0.086 A 
HETATM   12  N   UNK N   1      34.817  11.972  14.596  0.00  0.00    -0.294 N 
HETATM   13  C   UNK N   1      34.054  11.011  13.812  0.00  0.00     0.178 C 
HETATM   14  N   UNK N   1      34.807  11.944  15.920  0.00  0.00    -0.308 N 
HETATM   15  C   UNK N   1      35.578  12.944  16.378  0.00  0.00     0.133 A 
ATOM     16  HN  UNK N   1      34.298  11.274  16.497  1.00  0.00     0.186 HD
HETATM   17  C   UNK N   1      36.089  13.639  15.296  0.00  0.00     0.080 A 
HETATM   18 Cl   UNK N   1      37.208  14.968  15.472  0.00  0.00    -0.080 Cl
ENDBRANCH   7  11
ENDBRANCH   1   5
BRANCH   3  19
HETATM   19  C   UNK N   1      33.407  16.920   8.613  0.00  0.00     0.106 C 
BRANCH  19  20
HETATM   20  C   UNK N   1      32.240  16.290   7.844  0.00  0.00     0.065 C 
BRANCH  20  21
HETATM   21  C   UNK N   1      31.056  17.172   7.971  0.00  0.00    -0.053 A 
HETATM   22  C   UNK N   1      30.966  18.075   9.033  0.00  0.00     0.007 A 
HETATM   23  C   UNK N   1      29.777  18.777   9.244  0.00  0.00     0.003 A 
HETATM   24  C   UNK N   1      28.675  18.552   8.409  0.00  0.00     0.042 A 
HETATM   25  C   UNK N   1      28.776  17.648   7.346  0.00  0.00     0.116 A 
HETATM   26  C   UNK N   1      29.964  16.964   7.127  0.00  0.00     0.049 A 
HETATM   27  F   UNK N   1      27.708  17.399   6.554  0.00  0.00    -0.206 F 
ENDBRANCH  20  21
ENDBRANCH  19  20
BRANCH  19  28
HETATM   28  C   UNK N   1      34.312  17.733   7.701  0.00  0.00     0.136 C 
BRANCH  28  29
HETATM   29  N   UNK N   1      34.841  18.862   8.442  0.00  0.00    -0.428 N 
HETATM   30  H   UNK N   1      35.733  18.910   8.934  0.00  0.00     0.149 HD
HETATM   31  H   UNK N   1      34.257  19.697   8.474  0.00  0.00     0.149 HD
ENDBRANCH  28  29
ENDBRANCH  19  28
ENDBRANCH   3  19
TORSDOF 7
ENDMDL
MODEL 2
REMARK VINA RESULT:      -7.0      7.711     10.607
REMARK  7 active torsions:
REMARK  status: ('A' for Active; 'I' for Inactive)
REMARK    1  A    between atoms: C_3  and  C_9 
REMARK    2  A    between atoms: C_11  and  C_15 
REMARK       I    between atoms: C_15  and  N_17 
REMARK    3  A    between atoms: C_18  and  N_17 
REMARK    4  A    between atoms: C_18  and  C_19 
REMARK    5  A    between atoms: C_18  and  C_27 
REMARK    6  A    between atoms: C_19  and  C_20 
REMARK    7  A    between atoms: C_27  and  N_28 
ROOT
HETATM    1  C   UNK N   1      25.190  15.337   6.159  0.00  0.00     0.259 C 
HETATM    2  O   UNK N   1      24.065  15.460   5.698  0.00  0.00    -0.267 OA
HETATM    3  N   UNK N   1      25.489  14.362   7.047  0.00  0.00    -0.350 N 
HETATM    4  H   UNK N   1      26.432  14.252   7.305  0.00  0.00     0.163 HD
ENDROOT
BRANCH   1   5
HETATM    5  C   UNK N   1      26.242  16.296   5.872  0.00  0.00     0.075 A 
HETATM    6  C   UNK N   1      27.428  16.256   6.571  0.00  0.00     0.040 A 
HETATM    7  C   UNK N   1      28.278  17.355   6.366  0.00  0.00     0.024 A 
HETATM    8  C   UNK N   1      27.728  18.282   5.440  0.00  0.00     0.088 A 
HETATM    9  S   UNK N   1      26.240  17.682   4.981  0.00  0.00    -0.072 SA
HETATM   10 Cl   UNK N   1      28.277  19.869   4.953  0.00  0.00    -0.075 Cl
BRANCH   7  11
HETATM   11  C   UNK N   1      29.527  17.421   7.194  0.00  0.00     0.086 A 
HETATM   12  N   UNK N   1      29.520  17.762   8.510  0.00  0.00    -0.294 N 
HETATM   13  C   UNK N   1      28.393  18.136   9.354  0.00  0.00     0.178 C 
HETATM   14  N   UNK N   1      30.758  17.749   8.979  0.00  0.00    -0.308 N 
HETATM   15  C   UNK N   1      31.589  17.385   7.989  0.00  0.00     0.133 A 
ATOM     16  HN  UNK N   1      31.034  17.976   9.934  1.00  0.00     0.186 HD
HETATM   17  C   UNK N   1      30.845  17.170   6.844  0.00  0.00     0.080 A 
HETATM   18 Cl   UNK N   1      31.553  16.603   5.351  0.00  0.00    -0.080 Cl
ENDBRANCH   7  11
ENDBRANCH   1   5
BRANCH   3  19
HETATM   19  C   UNK N   1      24.535  13.482   7.634  0.00  0.00     0.106 C 
BRANCH  19  20
HETATM   20  C   UNK N   1      24.921  13.302   9.106  0.00  0.00     0.065 C 
BRANCH  20  21
HETATM   21  C   UNK N   1      23.726  12.858   9.861  0.00  0.00    -0.053 A 
HETATM   22  C   UNK N   1      22.451  13.260   9.453  0.00  0.00     0.007 A 
HETATM   23  C   UNK N   1      21.347  12.982  10.263  0.00  0.00     0.003 A 
HETATM   24  C   UNK N   1      21.527  12.330  11.489  0.00  0.00     0.042 A 
HETATM   25  C   UNK N   1      22.806  11.928  11.888  0.00  0.00     0.116 A 
HETATM   26  C   UNK N   1      23.900  12.189  11.074  0.00  0.00     0.049 A 
HETATM   27  F   UNK N   1      22.995  11.327  13.084  0.00  0.00    -0.206 F 
ENDBRANCH  20  21
ENDBRANCH  19  20
BRANCH  19  28
HETATM   28  C   UNK N   1      24.547  12.162   6.880  0.00  0.00     0.136 C 
BRANCH  28  29
HETATM   29  N   UNK N   1      23.620  12.243   5.768  0.00  0.00    -0.428 N 
HETATM   30  H   UNK N   1      23.761  11.887   4.823  0.00  0.00     0.149 HD
HETATM   31  H   UNK N   1      22.730  12.706   5.952  0.00  0.00     0.149 HD
ENDBRANCH  28  29
ENDBRANCH  19  28
ENDBRANCH   3  19
TORSDOF 7
ENDMDL
MODEL 3
REMARK VINA RESULT:      -7.0      4.224      9.082
REMARK  7 active torsions:
REMARK  status: ('A' for Active; 'I' for Inactive)
REMARK    1  A    between atoms: C_3  and  C_9 
REMARK    2  A    between atoms: C_11  and  C_15 
REMARK       I    between atoms: C_15  and  N_17 
REMARK    3  A    between atoms: C_18  and  N_17 
REMARK    4  A    between atoms: C_18  and  C_19 
REMARK    5  A    between atoms: C_18  and  C_27 
REMARK    6  A    between atoms: C_19  and  C_20 
REMARK    7  A    between atoms: C_27  and  N_28 
ROOT
HETATM    1  C   UNK N   1      35.449  13.817  11.898  0.00  0.00     0.259 C 
HETATM    2  O   UNK N   1      35.493  12.649  11.544  0.00  0.00    -0.267 OA
HETATM    3  N   UNK N   1      35.779  14.189  13.155  0.00  0.00    -0.350 N 
HETATM    4  H   UNK N   1      35.819  15.153  13.351  0.00  0.00     0.163 HD
ENDROOT
BRANCH   1   5
HETATM    5  C   UNK N   1      34.929  14.860  11.030  0.00  0.00     0.075 A 
HETATM    6  C   UNK N   1      33.988  14.560  10.071  0.00  0.00     0.040 A 
HETATM    7  C   UNK N   1      33.723  15.590   9.154  0.00  0.00     0.024 A 
HETATM    8  C   UNK N   1      34.484  16.757   9.437  0.00  0.00     0.088 A 
HETATM    9  S   UNK N   1      35.430  16.407  10.766  0.00  0.00    -0.072 SA
HETATM   10 Cl   UNK N   1      34.662  18.247   8.539  0.00  0.00    -0.075 Cl
BRANCH   7  11
HETATM   11  C   UNK N   1      32.797  15.276   8.017  0.00  0.00     0.086 A 
HETATM   12  N   UNK N   1      31.645  15.963   7.795  0.00  0.00    -0.294 N 
HETATM   13  C   UNK N   1      31.072  17.063   8.557  0.00  0.00     0.178 C 
HETATM   14  N   UNK N   1      31.027  15.463   6.736  0.00  0.00    -0.308 N 
HETATM   15  C   UNK N   1      31.766  14.456   6.241  0.00  0.00     0.133 A 
ATOM     16  HN  UNK N   1      30.137  15.787   6.359  1.00  0.00     0.186 HD
HETATM   17  C   UNK N   1      32.894  14.309   7.027  0.00  0.00     0.080 A 
HETATM   18 Cl   UNK N   1      34.153  13.153   6.664  0.00  0.00    -0.080 Cl
ENDBRANCH   7  11
ENDBRANCH   1   5
BRANCH   3  19
HETATM   19  C   UNK N   1      36.074  13.285  14.216  0.00  0.00     0.106 C 
BRANCH  19  20
HETATM   20  C   UNK N   1      34.782  13.074  15.012  0.00  0.00     0.065 C 
BRANCH  20  21
HETATM   21  C   UNK N   1      35.124  12.483  16.327  0.00  0.00    -0.053 A 
HETATM   22  C   UNK N   1      35.469  11.132  16.418  0.00  0.00     0.007 A 
HETATM   23  C   UNK N   1      35.621  10.542  17.675  0.00  0.00     0.003 A 
HETATM   24  C   UNK N   1      35.401  11.297  18.834  0.00  0.00     0.042 A 
HETATM   25  C   UNK N   1      35.060  12.650  18.733  0.00  0.00     0.116 A 
HETATM   26  C   UNK N   1      34.925  13.240  17.483  0.00  0.00     0.049 A 
HETATM   27  F   UNK N   1      34.814  13.381  19.843  0.00  0.00    -0.206 F 
ENDBRANCH  20  21
ENDBRANCH  19  20
BRANCH  19  28
HETATM   28  C   UNK N   1      37.180  13.874  15.077  0.00  0.00     0.136 C 
BRANCH  28  29
HETATM   29  N   UNK N   1      37.226  15.309  14.872  0.00  0.00    -0.428 N 
HETATM   30  H   UNK N   1      36.751  16.024  15.422  0.00  0.00     0.149 HD
HETATM   31  H   UNK N   1      37.797  15.638  14.094  0.00  0.00     0.149 HD
ENDBRANCH  28  29
ENDBRANCH  19  28
ENDBRANCH   3  19
TORSDOF 7
ENDMDL
MODEL 4
REMARK VINA RESULT:      -7.0      1.331      1.761
REMARK  7 active torsions:
REMARK  status: ('A' for Active; 'I' for Inactive)
REMARK    1  A    between atoms: C_3  and  C_9 
REMARK    2  A    between atoms: C_11  and  C_15 
REMARK       I    between atoms: C_15  and  N_17 
REMARK    3  A    between atoms: C_18  and  N_17 
REMARK    4  A    between atoms: C_18  and  C_19 
REMARK    5  A    between atoms: C_18  and  C_27 
REMARK    6  A    between atoms: C_19  and  C_20 
REMARK    7  A    between atoms: C_27  and  N_28 
ROOT
HETATM    1  C   UNK N   1      34.805  16.118  10.068  0.00  0.00     0.259 C 
HETATM    2  O   UNK N   1      35.077  17.196  10.573  0.00  0.00    -0.267 OA
HETATM    3  N   UNK N   1      33.904  16.013   9.065  0.00  0.00    -0.350 N 
HETATM    4  H   UNK N   1      33.801  15.135   8.633  0.00  0.00     0.163 HD
ENDROOT
BRANCH   1   5
HETATM    5  C   UNK N   1      35.343  14.872  10.588  0.00  0.00     0.075 A 
HETATM    6  C   UNK N   1      34.964  14.416  11.830  0.00  0.00     0.040 A 
HETATM    7  C   UNK N   1      35.705  13.328  12.317  0.00  0.00     0.024 A 
HETATM    8  C   UNK N   1      36.695  12.906  11.389  0.00  0.00     0.088 A 
HETATM    9  S   UNK N   1      36.588  13.924  10.071  0.00  0.00    -0.072 SA
HETATM   10 Cl   UNK N   1      37.977  11.726  11.547  0.00  0.00    -0.075 Cl
BRANCH   7  11
HETATM   11  C   UNK N   1      35.413  12.870  13.715  0.00  0.00     0.086 A 
HETATM   12  N   UNK N   1      35.889  13.514  14.815  0.00  0.00    -0.294 N 
HETATM   13  C   UNK N   1      36.742  14.692  14.890  0.00  0.00     0.178 C 
HETATM   14  N   UNK N   1      35.485  12.885  15.907  0.00  0.00    -0.308 N 
HETATM   15  C   UNK N   1      34.730  11.834  15.546  0.00  0.00     0.133 A 
ATOM     16  HN  UNK N   1      35.709  13.153  16.866  1.00  0.00     0.186 HD
HETATM   17  C   UNK N   1      34.664  11.793  14.164  0.00  0.00     0.080 A 
HETATM   18 Cl   UNK N   1      33.706  10.615  13.301  0.00  0.00    -0.080 Cl
ENDBRANCH   7  11
ENDBRANCH   1   5
BRANCH   3  19
HETATM   19  C   UNK N   1      33.093  17.083   8.591  0.00  0.00     0.106 C 
BRANCH  19  20
HETATM   20  C   UNK N   1      31.906  16.465   7.845  0.00  0.00     0.065 C 
BRANCH  20  21
HETATM   21  C   UNK N   1      30.717  17.326   8.047  0.00  0.00    -0.053 A 
HETATM   22  C   UNK N   1      30.455  17.872   9.307  0.00  0.00     0.007 A 
HETATM   23  C   UNK N   1      29.247  18.537   9.533  0.00  0.00     0.003 A 
HETATM   24  C   UNK N   1      28.296  18.626   8.509  0.00  0.00     0.042 A 
HETATM   25  C   UNK N   1      28.568  18.079   7.251  0.00  0.00     0.116 A 
HETATM   26  C   UNK N   1      29.776  17.434   7.022  0.00  0.00     0.049 A 
HETATM   27  F   UNK N   1      27.644  18.132   6.265  0.00  0.00    -0.206 F 
ENDBRANCH  20  21
ENDBRANCH  19  20
BRANCH  19  28
HETATM   28  C   UNK N   1      33.929  17.974   7.685  0.00  0.00     0.136 C 
BRANCH  28  29
HETATM   29  N   UNK N   1      33.890  17.446   6.335  0.00  0.00    -0.428 N 
HETATM   30  H   UNK N   1      33.496  17.897   5.510  0.00  0.00     0.149 HD
HETATM   31  H   UNK N   1      34.304  16.524   6.196  0.00  0.00     0.149 HD
ENDBRANCH  28  29
ENDBRANCH  19  28
ENDBRANCH   3  19
TORSDOF 7
ENDMDL
MODEL 5
REMARK VINA RESULT:      -6.8      8.182     11.206
REMARK  7 active torsions:
REMARK  status: ('A' for Active; 'I' for Inactive)
REMARK    1  A    between atoms: C_3  and  C_9 
REMARK    2  A    between atoms: C_11  and  C_15 
REMARK       I    between atoms: C_15  and  N_17 
REMARK    3  A    between atoms: C_18  and  N_17 
REMARK    4  A    between atoms: C_18  and  C_19 
REMARK    5  A    between atoms: C_18  and  C_27 
REMARK    6  A    between atoms: C_19  and  C_20 
REMARK    7  A    between atoms: C_27  and  N_28 
ROOT
HETATM    1  C   UNK N   1      24.398  15.040   6.393  0.00  0.00     0.259 C 
HETATM    2  O   UNK N   1      23.299  15.448   6.735  0.00  0.00    -0.267 OA
HETATM    3  N   UNK N   1      24.770  13.756   6.592  0.00  0.00    -0.350 N 
HETATM    4  H   UNK N   1      25.627  13.463   6.206  0.00  0.00     0.163 HD
ENDROOT
BRANCH   1   5
HETATM    5  C   UNK N   1      25.411  15.933   5.858  0.00  0.00     0.075 A 
HETATM    6  C   UNK N   1      26.667  15.976   6.421  0.00  0.00     0.040 A 
HETATM    7  C   UNK N   1      27.488  17.021   5.968  0.00  0.00     0.024 A 
HETATM    8  C   UNK N   1      26.838  17.813   4.983  0.00  0.00     0.088 A 
HETATM    9  S   UNK N   1      25.309  17.176   4.781  0.00  0.00    -0.072 SA
HETATM   10 Cl   UNK N   1      27.328  19.306   4.215  0.00  0.00    -0.075 Cl
BRANCH   7  11
HETATM   11  C   UNK N   1      28.820  17.186   6.636  0.00  0.00     0.086 A 
HETATM   12  N   UNK N   1      29.999  17.019   5.979  0.00  0.00    -0.294 N 
HETATM   13  C   UNK N   1      30.229  16.650   4.590  0.00  0.00     0.178 C 
HETATM   14  N   UNK N   1      31.005  17.215   6.817  0.00  0.00    -0.308 N 
HETATM   15  C   UNK N   1      30.507  17.527   8.024  0.00  0.00     0.133 A 
ATOM     16  HN  UNK N   1      31.996  17.142   6.584  1.00  0.00     0.186 HD
HETATM   17  C   UNK N   1      29.126  17.518   7.948  0.00  0.00     0.080 A 
HETATM   18 Cl   UNK N   1      28.104  17.953   9.296  0.00  0.00    -0.080 Cl
ENDBRANCH   7  11
ENDBRANCH   1   5
BRANCH   3  19
HETATM   19  C   UNK N   1      24.011  12.797   7.322  0.00  0.00     0.106 C 
BRANCH  19  20
HETATM   20  C   UNK N   1      24.514  12.816   8.769  0.00  0.00     0.065 C 
BRANCH  20  21
HETATM   21  C   UNK N   1      23.376  12.530   9.673  0.00  0.00    -0.053 A 
HETATM   22  C   UNK N   1      22.085  12.935   9.322  0.00  0.00     0.007 A 
HETATM   23  C   UNK N   1      21.048  12.818  10.250  0.00  0.00     0.003 A 
HETATM   24  C   UNK N   1      21.312  12.323  11.534  0.00  0.00     0.042 A 
HETATM   25  C   UNK N   1      22.606  11.917  11.875  0.00  0.00     0.116 A 
HETATM   26  C   UNK N   1      23.633  12.019  10.946  0.00  0.00     0.049 A 
HETATM   27  F   UNK N   1      22.879  11.469  13.121  0.00  0.00    -0.206 F 
ENDBRANCH  20  21
ENDBRANCH  19  20
BRANCH  19  28
HETATM   28  C   UNK N   1      24.189  11.431   6.679  0.00  0.00     0.136 C 
BRANCH  28  29
HETATM   29  N   UNK N   1      22.885  10.827   6.481  0.00  0.00    -0.428 N 
HETATM   30  H   UNK N   1      22.528   9.978   6.918  0.00  0.00     0.149 HD
HETATM   31  H   UNK N   1      22.258  11.305   5.834  0.00  0.00     0.149 HD
ENDBRANCH  28  29
ENDBRANCH  19  28
ENDBRANCH   3  19
TORSDOF 7
ENDMDL
MODEL 6
REMARK VINA RESULT:      -6.8      4.205      6.190
REMARK  7 active torsions:
REMARK  status: ('A' for Active; 'I' for Inactive)
REMARK    1  A    between atoms: C_3  and  C_9 
REMARK    2  A    between atoms: C_11  and  C_15 
REMARK       I    between atoms: C_15  and  N_17 
REMARK    3  A    between atoms: C_18  and  N_17 
REMARK    4  A    between atoms: C_18  and  C_19 
REMARK    5  A    between atoms: C_18  and  C_27 
REMARK    6  A    between atoms: C_19  and  C_20 
REMARK    7  A    between atoms: C_27  and  N_28 
ROOT
HETATM    1  C   UNK N   1      30.624  15.688   5.519  0.00  0.00     0.259 C 
HETATM    2  O   UNK N   1      30.271  15.593   4.354  0.00  0.00    -0.267 OA
HETATM    3  N   UNK N   1      29.810  16.207   6.466  0.00  0.00    -0.350 N 
HETATM    4  H   UNK N   1      30.112  16.165   7.401  0.00  0.00     0.163 HD
ENDROOT
BRANCH   1   5
HETATM    5  C   UNK N   1      31.976  15.359   5.937  0.00  0.00     0.075 A 
HETATM    6  C   UNK N   1      32.398  15.648   7.215  0.00  0.00     0.040 A 
HETATM    7  C   UNK N   1      33.775  15.489   7.439  0.00  0.00     0.024 A 
HETATM    8  C   UNK N   1      34.448  15.026   6.276  0.00  0.00     0.088 A 
HETATM    9  S   UNK N   1      33.297  14.885   5.075  0.00  0.00    -0.072 SA
HETATM   10 Cl   UNK N   1      36.154  14.816   5.953  0.00  0.00    -0.075 Cl
BRANCH   7  11
HETATM   11  C   UNK N   1      34.306  15.906   8.778  0.00  0.00     0.086 A 
HETATM   12  N   UNK N   1      34.604  17.198   9.081  0.00  0.00    -0.294 N 
HETATM   13  C   UNK N   1      34.507  18.383   8.240  0.00  0.00     0.178 C 
HETATM   14  N   UNK N   1      35.062  17.269  10.321  0.00  0.00    -0.308 N 
HETATM   15  C   UNK N   1      35.057  16.036  10.853  0.00  0.00     0.133 A 
ATOM     16  HN  UNK N   1      35.368  18.119  10.794  1.00  0.00     0.186 HD
HETATM   17  C   UNK N   1      34.585  15.147   9.904  0.00  0.00     0.080 A 
HETATM   18 Cl   UNK N   1      34.350  13.449  10.237  0.00  0.00    -0.080 Cl
ENDBRANCH   7  11
ENDBRANCH   1   5
BRANCH   3  19
HETATM   19  C   UNK N   1      28.546  16.809   6.205  0.00  0.00     0.106 C 
BRANCH  19  20
HETATM   20  C   UNK N   1      28.334  17.907   7.253  0.00  0.00     0.065 C 
BRANCH  20  21
HETATM   21  C   UNK N   1      27.902  19.146   6.564  0.00  0.00    -0.053 A 
HETATM   22  C   UNK N   1      27.335  20.192   7.296  0.00  0.00     0.007 A 
HETATM   23  C   UNK N   1      26.774  21.280   6.624  0.00  0.00     0.003 A 
HETATM   24  C   UNK N   1      26.756  21.303   5.223  0.00  0.00     0.042 A 
HETATM   25  C   UNK N   1      27.329  20.253   4.499  0.00  0.00     0.116 A 
HETATM   26  C   UNK N   1      27.902  19.180   5.168  0.00  0.00     0.049 A 
HETATM   27  F   UNK N   1      27.289  20.249   3.147  0.00  0.00    -0.206 F 
ENDBRANCH  20  21
ENDBRANCH  19  20
BRANCH  19  28
HETATM   28  C   UNK N   1      27.465  15.743   6.276  0.00  0.00     0.136 C 
BRANCH  28  29
HETATM   29  N   UNK N   1      26.552  16.065   7.357  0.00  0.00    -0.428 N 
HETATM   30  H   UNK N   1      26.579  15.705   8.311  0.00  0.00     0.149 HD
HETATM   31  H   UNK N   1      25.804  16.722   7.138  0.00  0.00     0.149 HD
ENDBRANCH  28  29
ENDBRANCH  19  28
ENDBRANCH   3  19
TORSDOF 7
ENDMDL
MODEL 7
REMARK VINA RESULT:      -6.8      4.429      8.478
REMARK  7 active torsions:
REMARK  status: ('A' for Active; 'I' for Inactive)
REMARK    1  A    between atoms: C_3  and  C_9 
REMARK    2  A    between atoms: C_11  and  C_15 
REMARK       I    between atoms: C_15  and  N_17 
REMARK    3  A    between atoms: C_18  and  N_17 
REMARK    4  A    between atoms: C_18  and  C_19 
REMARK    5  A    between atoms: C_18  and  C_27 
REMARK    6  A    between atoms: C_19  and  C_20 
REMARK    7  A    between atoms: C_27  and  N_28 
ROOT
HETATM    1  C   UNK N   1      34.285  14.726   8.929  0.00  0.00     0.259 C 
HETATM    2  O   UNK N   1      33.684  13.788   9.429  0.00  0.00    -0.267 OA
HETATM    3  N   UNK N   1      35.560  15.013   9.272  0.00  0.00    -0.350 N 
HETATM    4  H   UNK N   1      36.023  15.718   8.763  0.00  0.00     0.163 HD
ENDROOT
BRANCH   1   5
HETATM    5  C   UNK N   1      33.631  15.658   8.026  0.00  0.00     0.075 A 
HETATM    6  C   UNK N   1      32.305  15.982   8.202  0.00  0.00     0.040 A 
HETATM    7  C   UNK N   1      31.725  16.713   7.152  0.00  0.00     0.024 A 
HETATM    8  C   UNK N   1      32.663  16.989   6.121  0.00  0.00     0.088 A 
HETATM    9  S   UNK N   1      34.106  16.286   6.579  0.00  0.00    -0.072 SA
HETATM   10 Cl   UNK N   1      32.443  17.709   4.542  0.00  0.00    -0.075 Cl
BRANCH   7  11
HETATM   11  C   UNK N   1      30.254  16.987   7.238  0.00  0.00     0.086 A 
HETATM   12  N   UNK N   1      29.344  16.386   6.424  0.00  0.00    -0.294 N 
HETATM   13  C   UNK N   1      29.568  15.429   5.349  0.00  0.00     0.178 C 
HETATM   14  N   UNK N   1      28.130  16.825   6.714  0.00  0.00    -0.308 N 
HETATM   15  C   UNK N   1      28.219  17.702   7.728  0.00  0.00     0.133 A 
ATOM     16  HN  UNK N   1      27.268  16.543   6.247  1.00  0.00     0.186 HD
HETATM   17  C   UNK N   1      29.550  17.830   8.085  0.00  0.00     0.080 A 
HETATM   18 Cl   UNK N   1      30.076  18.823   9.422  0.00  0.00    -0.080 Cl
ENDBRANCH   7  11
ENDBRANCH   1   5
BRANCH   3  19
HETATM   19  C   UNK N   1      36.283  14.368  10.316  0.00  0.00     0.106 C 
BRANCH  19  20
HETATM   20  C   UNK N   1      36.138  15.230  11.575  0.00  0.00     0.065 C 
BRANCH  20  21
HETATM   21  C   UNK N   1      35.812  14.348  12.720  0.00  0.00    -0.053 A 
HETATM   22  C   UNK N   1      36.444  14.538  13.952  0.00  0.00     0.007 A 
HETATM   23  C   UNK N   1      36.262  13.602  14.973  0.00  0.00     0.003 A 
HETATM   24  C   UNK N   1      35.474  12.466  14.748  0.00  0.00     0.042 A 
HETATM   25  C   UNK N   1      34.842  12.286  13.512  0.00  0.00     0.116 A 
HETATM   26  C   UNK N   1      35.010  13.227  12.504  0.00  0.00     0.049 A 
HETATM   27  F   UNK N   1      34.105  11.178  13.273  0.00  0.00    -0.206 F 
ENDBRANCH  20  21
ENDBRANCH  19  20
BRANCH  19  28
HETATM   28  C   UNK N   1      37.736  14.220   9.895  0.00  0.00     0.136 C 
BRANCH  28  29
HETATM   29  N   UNK N   1      38.432  13.408  10.874  0.00  0.00    -0.428 N 
HETATM   30  H   UNK N   1      39.428  13.431  11.096  0.00  0.00     0.149 HD
HETATM   31  H   UNK N   1      37.864  12.743  11.399  0.00  0.00     0.149 HD
ENDBRANCH  28  29
ENDBRANCH  19  28
ENDBRANCH   3  19
TORSDOF 7
ENDMDL
MODEL 8
REMARK VINA RESULT:      -6.8      7.932     11.851
REMARK  7 active torsions:
REMARK  status: ('A' for Active; 'I' for Inactive)
REMARK    1  A    between atoms: C_3  and  C_9 
REMARK    2  A    between atoms: C_11  and  C_15 
REMARK       I    between atoms: C_15  and  N_17 
REMARK    3  A    between atoms: C_18  and  N_17 
REMARK    4  A    between atoms: C_18  and  C_19 
REMARK    5  A    between atoms: C_18  and  C_27 
REMARK    6  A    between atoms: C_19  and  C_20 
REMARK    7  A    between atoms: C_27  and  N_28 
ROOT
HETATM    1  C   UNK N   1      28.118  18.187   5.261  0.00  0.00     0.259 C 
HETATM    2  O   UNK N   1      29.048  18.752   4.707  0.00  0.00    -0.267 OA
HETATM    3  N   UNK N   1      28.152  17.895   6.581  0.00  0.00    -0.350 N 
HETATM    4  H   UNK N   1      27.334  17.531   6.990  0.00  0.00     0.163 HD
ENDROOT
BRANCH   1   5
HETATM    5  C   UNK N   1      26.971  17.693   4.518  0.00  0.00     0.075 A 
HETATM    6  C   UNK N   1      25.712  18.188   4.773  0.00  0.00     0.040 A 
HETATM    7  C   UNK N   1      24.661  17.490   4.157  0.00  0.00     0.024 A 
HETATM    8  C   UNK N   1      25.138  16.411   3.364  0.00  0.00     0.088 A 
HETATM    9  S   UNK N   1      26.800  16.397   3.515  0.00  0.00    -0.072 SA
HETATM   10 Cl   UNK N   1      24.273  15.142   2.527  0.00  0.00    -0.075 Cl
BRANCH   7  11
HETATM   11  C   UNK N   1      23.263  17.913   4.498  0.00  0.00     0.086 A 
HETATM   12  N   UNK N   1      22.497  17.256   5.410  0.00  0.00    -0.294 N 
HETATM   13  C   UNK N   1      22.818  16.071   6.192  0.00  0.00     0.178 C 
HETATM   14  N   UNK N   1      21.313  17.840   5.498  0.00  0.00    -0.308 N 
HETATM   15  C   UNK N   1      21.288  18.892   4.663  0.00  0.00     0.133 A 
ATOM     16  HN  UNK N   1      20.546  17.542   6.101  1.00  0.00     0.186 HD
HETATM   17  C   UNK N   1      22.506  18.968   4.012  0.00  0.00     0.080 A 
HETATM   18 Cl   UNK N   1      22.901  20.253   2.897  0.00  0.00    -0.080 Cl
ENDBRANCH   7  11
ENDBRANCH   1   5
BRANCH   3  19
HETATM   19  C   UNK N   1      29.287  18.078   7.421  0.00  0.00     0.106 C 
BRANCH  19  20
HETATM   20  C   UNK N   1      30.119  16.793   7.355  0.00  0.00     0.065 C 
BRANCH  20  21
HETATM   21  C   UNK N   1      31.554  17.158   7.300  0.00  0.00    -0.053 A 
HETATM   22  C   UNK N   1      32.200  17.274   6.066  0.00  0.00     0.007 A 
HETATM   23  C   UNK N   1      33.586  17.447   6.025  0.00  0.00     0.003 A 
HETATM   24  C   UNK N   1      34.322  17.474   7.217  0.00  0.00     0.042 A 
HETATM   25  C   UNK N   1      33.666  17.361   8.447  0.00  0.00     0.116 A 
HETATM   26  C   UNK N   1      32.287  17.206   8.487  0.00  0.00     0.049 A 
HETATM   27  F   UNK N   1      34.370  17.353   9.602  0.00  0.00    -0.206 F 
ENDBRANCH  20  21
ENDBRANCH  19  20
BRANCH  19  28
HETATM   28  C   UNK N   1      28.815  18.374   8.835  0.00  0.00     0.136 C 
BRANCH  28  29
HETATM   29  N   UNK N   1      27.458  18.883   8.785  0.00  0.00    -0.428 N 
HETATM   30  H   UNK N   1      27.045  19.594   9.389  0.00  0.00     0.149 HD
HETATM   31  H   UNK N   1      26.851  18.488   8.067  0.00  0.00     0.149 HD
ENDBRANCH  28  29
ENDBRANCH  19  28
ENDBRANCH   3  19
TORSDOF 7
ENDMDL
MODEL 9
REMARK VINA RESULT:      -6.7      9.049     13.141
REMARK  7 active torsions:
REMARK  status: ('A' for Active; 'I' for Inactive)
REMARK    1  A    between atoms: C_3  and  C_9 
REMARK    2  A    between atoms: C_11  and  C_15 
REMARK       I    between atoms: C_15  and  N_17 
REMARK    3  A    between atoms: C_18  and  N_17 
REMARK    4  A    between atoms: C_18  and  C_19 
REMARK    5  A    between atoms: C_18  and  C_27 
REMARK    6  A    between atoms: C_19  and  C_20 
REMARK    7  A    between atoms: C_27  and  N_28 
ROOT
HETATM    1  C   UNK N   1      25.990  17.686   5.005  0.00  0.00     0.259 C 
HETATM    2  O   UNK N   1      26.390  18.363   4.070  0.00  0.00    -0.267 OA
HETATM    3  N   UNK N   1      26.706  17.561   6.145  0.00  0.00    -0.350 N 
HETATM    4  H   UNK N   1      26.287  17.085   6.897  0.00  0.00     0.163 HD
ENDROOT
BRANCH   1   5
HETATM    5  C   UNK N   1      24.783  16.883   4.906  0.00  0.00     0.075 A 
HETATM    6  C   UNK N   1      23.801  17.214   4.000  0.00  0.00     0.040 A 
HETATM    7  C   UNK N   1      22.596  16.507   4.142  0.00  0.00     0.024 A 
HETATM    8  C   UNK N   1      22.662  15.561   5.201  0.00  0.00     0.088 A 
HETATM    9  S   UNK N   1      24.179  15.701   5.882  0.00  0.00    -0.072 SA
HETATM   10 Cl   UNK N   1      21.420  14.550   5.905  0.00  0.00    -0.075 Cl
BRANCH   7  11
HETATM   11  C   UNK N   1      21.454  16.913   3.260  0.00  0.00     0.086 A 
HETATM   12  N   UNK N   1      20.861  16.059   2.383  0.00  0.00    -0.294 N 
HETATM   13  C   UNK N   1      21.183  14.667   2.100  0.00  0.00     0.178 C 
HETATM   14  N   UNK N   1      19.896  16.689   1.733  0.00  0.00    -0.308 N 
HETATM   15  C   UNK N   1      19.828  17.954   2.181  0.00  0.00     0.133 A 
ATOM     16  HN  UNK N   1      19.300  16.282   1.012  1.00  0.00     0.186 HD
HETATM   17  C   UNK N   1      20.801  18.132   3.148  0.00  0.00     0.080 A 
HETATM   18 Cl   UNK N   1      20.987  19.624   4.036  0.00  0.00    -0.080 Cl
ENDBRANCH   7  11
ENDBRANCH   1   5
BRANCH   3  19
HETATM   19  C   UNK N   1      28.023  18.069   6.334  0.00  0.00     0.106 C 
BRANCH  19  20
HETATM   20  C   UNK N   1      28.851  16.965   7.000  0.00  0.00     0.065 C 
BRANCH  20  21
HETATM   21  C   UNK N   1      30.288  17.266   6.805  0.00  0.00    -0.053 A 
HETATM   22  C   UNK N   1      30.860  17.157   5.534  0.00  0.00     0.007 A 
HETATM   23  C   UNK N   1      32.245  17.273   5.388  0.00  0.00     0.003 A 
HETATM   24  C   UNK N   1      33.053  17.467   6.515  0.00  0.00     0.042 A 
HETATM   25  C   UNK N   1      32.471  17.578   7.783  0.00  0.00     0.116 A 
HETATM   26  C   UNK N   1      31.093  17.480   7.925  0.00  0.00     0.049 A 
HETATM   27  F   UNK N   1      33.244  17.733   8.881  0.00  0.00    -0.206 F 
ENDBRANCH  20  21
ENDBRANCH  19  20
BRANCH  19  28
HETATM   28  C   UNK N   1      27.952  19.321   7.194  0.00  0.00     0.136 C 
BRANCH  28  29
HETATM   29  N   UNK N   1      27.569  18.948   8.543  0.00  0.00    -0.428 N 
HETATM   30  H   UNK N   1      28.185  18.629   9.290  0.00  0.00     0.149 HD
HETATM   31  H   UNK N   1      26.577  19.013   8.767  0.00  0.00     0.149 HD
ENDBRANCH  28  29
ENDBRANCH  19  28
ENDBRANCH   3  19
TORSDOF 7
ENDMDL
