MODEL 1
REMARK VINA RESULT:      -5.2      0.000      0.000
REMARK  5 active torsions:
REMARK  status: ('A' for Active; 'I' for Inactive)
REMARK    1  A    between atoms: C_2  and  N_4 
REMARK    2  A    between atoms: N_4  and  P_5 
REMARK    3  A    between atoms: P_5  and  O_7 
REMARK    4  A    between atoms: P_5  and  O_9 
REMARK    5  A    between atoms: O_9  and  C_10 
ROOT
HETATM    1  P   UNK N   1      27.784  17.462   5.760  0.00  0.00     0.289 P 
HETATM    2  S   UNK N   1      26.399  16.431   5.340  0.00  0.00    -0.015 SA
ENDROOT
BRANCH   1   3
HETATM    3  N   UNK N   1      27.203  19.026   6.479  0.00  0.00    -0.346 N 
HETATM    4  H   UNK N   1      26.881  19.097   7.444  0.00  0.00     0.163 HD
BRANCH   3   5
HETATM    5  C   UNK N   1      27.231  20.180   5.569  0.00  0.00     0.076 C 
HETATM    6  C   UNK N   1      27.419  21.485   6.318  0.00  0.00     0.032 C 
HETATM    7  C   UNK N   1      26.072  20.245   4.587  0.00  0.00     0.032 C 
ENDBRANCH   3   5
ENDBRANCH   1   3
BRANCH   1   8
HETATM    8  O   UNK N   1      28.671  17.813   4.300  0.00  0.00    -0.324 OA
HETATM    9  C   UNK N   1      28.433  16.742   3.438  0.00  0.00     0.212 C 
ENDBRANCH   1   8
BRANCH   1  10
HETATM   10  O   UNK N   1      28.827  16.692   6.907  0.00  0.00    -0.275 OA
BRANCH  10  11
HETATM   11  C   UNK N   1      30.091  17.065   7.229  0.00  0.00     0.100 A 
HETATM   12  C   UNK N   1      31.117  16.751   6.329  0.00  0.00     0.040 A 
HETATM   13  C   UNK N   1      32.435  17.134   6.585  0.00  0.00     0.026 A 
HETATM   14  C   UNK N   1      32.740  17.848   7.744  0.00  0.00     0.035 A 
HETATM   15  C   UNK N   1      31.727  18.187   8.641  0.00  0.00     0.050 A 
HETATM   16 Cl   UNK N   1      34.390  18.343   8.057  0.00  0.00    -0.084 Cl
HETATM   17  C   UNK N   1      30.403  17.805   8.398  0.00  0.00     0.069 A 
HETATM   18 Cl   UNK N   1      29.177  18.352   9.531  0.00  0.00    -0.081 Cl
ENDBRANCH  10  11
ENDBRANCH   1  10
TORSDOF 5
ENDMDL
MODEL 2
REMARK VINA RESULT:      -5.2      1.951      2.722
REMARK  5 active torsions:
REMARK  status: ('A' for Active; 'I' for Inactive)
REMARK    1  A    between atoms: C_2  and  N_4 
REMARK    2  A    between atoms: N_4  and  P_5 
REMARK    3  A    between atoms: P_5  and  O_7 
REMARK    4  A    between atoms: P_5  and  O_9 
REMARK    5  A    between atoms: O_9  and  C_10 
ROOT
HETATM    1  P   UNK N   1      28.478  17.115   4.621  0.00  0.00     0.289 P 
HETATM    2  S   UNK N   1      27.364  16.662   5.930  0.00  0.00    -0.015 SA
ENDROOT
BRANCH   1   3
HETATM    3  N   UNK N   1      28.721  18.916   4.604  0.00  0.00    -0.346 N 
HETATM    4  H   UNK N   1      29.632  19.343   4.435  0.00  0.00     0.163 HD
BRANCH   3   5
HETATM    5  C   UNK N   1      27.510  19.712   4.850  0.00  0.00     0.076 C 
HETATM    6  C   UNK N   1      26.869  20.177   3.558  0.00  0.00     0.032 C 
HETATM    7  C   UNK N   1      27.686  20.848   5.844  0.00  0.00     0.032 C 
ENDBRANCH   3   5
ENDBRANCH   1   3
BRANCH   1   8
HETATM    8  O   UNK N   1      27.770  16.631   3.103  0.00  0.00    -0.324 OA
HETATM    9  C   UNK N   1      26.410  16.442   3.355  0.00  0.00     0.212 C 
ENDBRANCH   1   8
BRANCH   1  10
HETATM   10  O   UNK N   1      30.025  16.361   4.812  0.00  0.00    -0.275 OA
BRANCH  10  11
HETATM   11  C   UNK N   1      31.078  16.843   5.519  0.00  0.00     0.100 A 
HETATM   12  C   UNK N   1      30.937  16.960   6.907  0.00  0.00     0.040 A 
HETATM   13  C   UNK N   1      31.994  17.419   7.697  0.00  0.00     0.026 A 
HETATM   14  C   UNK N   1      33.211  17.756   7.104  0.00  0.00     0.035 A 
HETATM   15  C   UNK N   1      33.375  17.625   5.725  0.00  0.00     0.050 A 
HETATM   16 Cl   UNK N   1      34.541  18.316   8.096  0.00  0.00    -0.084 Cl
HETATM   17  C   UNK N   1      32.322  17.171   4.922  0.00  0.00     0.069 A 
HETATM   18 Cl   UNK N   1      32.643  16.948   3.210  0.00  0.00    -0.081 Cl
ENDBRANCH  10  11
ENDBRANCH   1  10
TORSDOF 5
ENDMDL
MODEL 3
REMARK VINA RESULT:      -5.1     14.171     15.540
REMARK  5 active torsions:
REMARK  status: ('A' for Active; 'I' for Inactive)
REMARK    1  A    between atoms: C_2  and  N_4 
REMARK    2  A    between atoms: N_4  and  P_5 
REMARK    3  A    between atoms: P_5  and  O_7 
REMARK    4  A    between atoms: P_5  and  O_9 
REMARK    5  A    between atoms: O_9  and  C_10 
ROOT
HETATM    1  P   UNK N   1      25.847  24.609  -7.671  0.00  0.00     0.289 P 
HETATM    2  S   UNK N   1      27.554  24.147  -7.500  0.00  0.00    -0.015 SA
ENDROOT
BRANCH   1   3
HETATM    3  N   UNK N   1      24.871  23.190  -8.250  0.00  0.00    -0.346 N 
HETATM    4  H   UNK N   1      24.079  23.293  -8.884  0.00  0.00     0.163 HD
BRANCH   3   5
HETATM    5  C   UNK N   1      25.306  21.882  -7.739  0.00  0.00     0.076 C 
HETATM    6  C   UNK N   1      25.738  20.954  -8.856  0.00  0.00     0.032 C 
HETATM    7  C   UNK N   1      24.328  21.214  -6.785  0.00  0.00     0.032 C 
ENDBRANCH   3   5
ENDBRANCH   1   3
BRANCH   1   8
HETATM    8  O   UNK N   1      25.737  25.885  -8.854  0.00  0.00    -0.324 OA
HETATM    9  C   UNK N   1      25.327  25.275 -10.040  0.00  0.00     0.212 C 
ENDBRANCH   1   8
BRANCH   1  10
HETATM   10  O   UNK N   1      25.179  25.146  -6.166  0.00  0.00    -0.275 OA
BRANCH  10  11
HETATM   11  C   UNK N   1      25.712  26.072  -5.329  0.00  0.00     0.100 A 
HETATM   12  C   UNK N   1      25.495  27.424  -5.625  0.00  0.00     0.040 A 
HETATM   13  C   UNK N   1      25.988  28.426  -4.787  0.00  0.00     0.026 A 
HETATM   14  C   UNK N   1      26.697  28.085  -3.635  0.00  0.00     0.035 A 
HETATM   15  C   UNK N   1      26.904  26.743  -3.315  0.00  0.00     0.050 A 
HETATM   16 Cl   UNK N   1      27.301  29.342  -2.576  0.00  0.00    -0.084 Cl
HETATM   17  C   UNK N   1      26.418  25.729  -4.149  0.00  0.00     0.069 A 
HETATM   18 Cl   UNK N   1      26.643  24.068  -3.624  0.00  0.00    -0.081 Cl
ENDBRANCH  10  11
ENDBRANCH   1  10
TORSDOF 5
ENDMDL
MODEL 4
REMARK VINA RESULT:      -5.1     10.503     12.325
REMARK  5 active torsions:
REMARK  status: ('A' for Active; 'I' for Inactive)
REMARK    1  A    between atoms: C_2  and  N_4 
REMARK    2  A    between atoms: N_4  and  P_5 
REMARK    3  A    between atoms: P_5  and  O_7 
REMARK    4  A    between atoms: P_5  and  O_9 
REMARK    5  A    between atoms: O_9  and  C_10 
ROOT
HETATM    1  P   UNK N   1      35.672  13.468  12.478  0.00  0.00     0.289 P 
HETATM    2  S   UNK N   1      35.891  15.156  11.966  0.00  0.00    -0.015 SA
ENDROOT
BRANCH   1   3
HETATM    3  N   UNK N   1      37.279  12.729  12.896  0.00  0.00    -0.346 N 
HETATM    4  H   UNK N   1      38.082  13.291  13.178  0.00  0.00     0.163 HD
BRANCH   3   5
HETATM    5  C   UNK N   1      37.335  11.263  12.799  0.00  0.00     0.076 C 
HETATM    6  C   UNK N   1      38.004  10.643  14.010  0.00  0.00     0.032 C 
HETATM    7  C   UNK N   1      37.908  10.733  11.494  0.00  0.00     0.032 C 
ENDBRANCH   3   5
ENDBRANCH   1   3
BRANCH   1   8
HETATM    8  O   UNK N   1      34.974  12.576  11.152  0.00  0.00    -0.324 OA
HETATM    9  C   UNK N   1      35.437  13.191   9.988  0.00  0.00     0.212 C 
ENDBRANCH   1   8
BRANCH   1  10
HETATM   10  O   UNK N   1      34.645  13.353  13.867  0.00  0.00    -0.275 OA
BRANCH  10  11
HETATM   11  C   UNK N   1      34.798  12.509  14.919  0.00  0.00     0.100 A 
HETATM   12  C   UNK N   1      35.291  13.039  16.117  0.00  0.00     0.040 A 
HETATM   13  C   UNK N   1      35.442  12.232  17.247  0.00  0.00     0.026 A 
HETATM   14  C   UNK N   1      35.090  10.884  17.192  0.00  0.00     0.035 A 
HETATM   15  C   UNK N   1      34.577  10.345  16.012  0.00  0.00     0.050 A 
HETATM   16 Cl   UNK N   1      35.263   9.875  18.613  0.00  0.00    -0.084 Cl
HETATM   17  C   UNK N   1      34.425  11.142  14.871  0.00  0.00     0.069 A 
HETATM   18 Cl   UNK N   1      33.686  10.407  13.457  0.00  0.00    -0.081 Cl
ENDBRANCH  10  11
ENDBRANCH   1  10
TORSDOF 5
ENDMDL
MODEL 5
REMARK VINA RESULT:      -5.0      9.204     10.698
REMARK  5 active torsions:
REMARK  status: ('A' for Active; 'I' for Inactive)
REMARK    1  A    between atoms: C_2  and  N_4 
REMARK    2  A    between atoms: N_4  and  P_5 
REMARK    3  A    between atoms: P_5  and  O_7 
REMARK    4  A    between atoms: P_5  and  O_9 
REMARK    5  A    between atoms: O_9  and  C_10 
ROOT
HETATM    1  P   UNK N   1      35.503  12.188  11.350  0.00  0.00     0.289 P 
HETATM    2  S   UNK N   1      34.478  10.911  10.660  0.00  0.00    -0.015 SA
ENDROOT
BRANCH   1   3
HETATM    3  N   UNK N   1      34.519  13.685  11.650  0.00  0.00    -0.346 N 
HETATM    4  H   UNK N   1      33.861  13.761  12.426  0.00  0.00     0.163 HD
BRANCH   3   5
HETATM    5  C   UNK N   1      34.740  14.780  10.693  0.00  0.00     0.076 C 
HETATM    6  C   UNK N   1      35.381  15.984  11.352  0.00  0.00     0.032 C 
HETATM    7  C   UNK N   1      33.521  15.159   9.868  0.00  0.00     0.032 C 
ENDBRANCH   3   5
ENDBRANCH   1   3
BRANCH   1   8
HETATM    8  O   UNK N   1      36.761  12.565  10.203  0.00  0.00    -0.324 OA
HETATM    9  C   UNK N   1      37.929  12.724  10.951  0.00  0.00     0.212 C 
ENDBRANCH   1   8
BRANCH   1  10
HETATM   10  O   UNK N   1      36.209  11.694  12.852  0.00  0.00    -0.275 OA
BRANCH  10  11
HETATM   11  C   UNK N   1      35.965  12.228  14.076  0.00  0.00     0.100 A 
HETATM   12  C   UNK N   1      36.817  13.241  14.531  0.00  0.00     0.040 A 
HETATM   13  C   UNK N   1      36.602  13.854  15.767  0.00  0.00     0.026 A 
HETATM   14  C   UNK N   1      35.521  13.466  16.558  0.00  0.00     0.035 A 
HETATM   15  C   UNK N   1      34.649  12.473  16.110  0.00  0.00     0.050 A 
HETATM   16 Cl   UNK N   1      35.240  14.246  18.100  0.00  0.00    -0.084 Cl
HETATM   17  C   UNK N   1      34.857  11.847  14.875  0.00  0.00     0.069 A 
HETATM   18 Cl   UNK N   1      33.662  10.674  14.346  0.00  0.00    -0.081 Cl
ENDBRANCH  10  11
ENDBRANCH   1  10
TORSDOF 5
ENDMDL
MODEL 6
REMARK VINA RESULT:      -5.0      8.356     10.419
REMARK  5 active torsions:
REMARK  status: ('A' for Active; 'I' for Inactive)
REMARK    1  A    between atoms: C_2  and  N_4 
REMARK    2  A    between atoms: N_4  and  P_5 
REMARK    3  A    between atoms: P_5  and  O_7 
REMARK    4  A    between atoms: P_5  and  O_9 
REMARK    5  A    between atoms: O_9  and  C_10 
ROOT
HETATM    1  P   UNK N   1      36.508  12.596  12.429  0.00  0.00     0.289 P 
HETATM    2  S   UNK N   1      37.689  12.833  11.122  0.00  0.00    -0.015 SA
ENDROOT
BRANCH   1   3
HETATM    3  N   UNK N   1      37.249  13.040  14.028  0.00  0.00    -0.346 N 
HETATM    4  H   UNK N   1      38.188  12.747  14.295  0.00  0.00     0.163 HD
BRANCH   3   5
HETATM    5  C   UNK N   1      36.394  13.850  14.908  0.00  0.00     0.076 C 
HETATM    6  C   UNK N   1      37.188  14.910  15.645  0.00  0.00     0.032 C 
HETATM    7  C   UNK N   1      35.502  13.049  15.843  0.00  0.00     0.032 C 
ENDBRANCH   3   5
ENDBRANCH   1   3
BRANCH   1   8
HETATM    8  O   UNK N   1      36.059  10.911  12.468  0.00  0.00    -0.324 OA
HETATM    9  C   UNK N   1      34.687  10.885  12.720  0.00  0.00     0.212 C 
ENDBRANCH   1   8
BRANCH   1  10
HETATM   10  O   UNK N   1      35.097  13.573  12.196  0.00  0.00    -0.275 OA
BRANCH  10  11
HETATM   11  C   UNK N   1      34.933  14.551  11.271  0.00  0.00     0.100 A 
HETATM   12  C   UNK N   1      35.429  15.826  11.570  0.00  0.00     0.040 A 
HETATM   13  C   UNK N   1      35.322  16.869  10.647  0.00  0.00     0.026 A 
HETATM   14  C   UNK N   1      34.725  16.643   9.407  0.00  0.00     0.035 A 
HETATM   15  C   UNK N   1      34.245  15.374   9.084  0.00  0.00     0.050 A 
HETATM   16 Cl   UNK N   1      34.606  17.946   8.243  0.00  0.00    -0.084 Cl
HETATM   17  C   UNK N   1      34.342  14.321  10.003  0.00  0.00     0.069 A 
HETATM   18 Cl   UNK N   1      33.797  12.735   9.481  0.00  0.00    -0.081 Cl
ENDBRANCH  10  11
ENDBRANCH   1  10
TORSDOF 5
ENDMDL
MODEL 7
REMARK VINA RESULT:      -5.0     10.385     12.132
REMARK  5 active torsions:
REMARK  status: ('A' for Active; 'I' for Inactive)
REMARK    1  A    between atoms: C_2  and  N_4 
REMARK    2  A    between atoms: N_4  and  P_5 
REMARK    3  A    between atoms: P_5  and  O_7 
REMARK    4  A    between atoms: P_5  and  O_9 
REMARK    5  A    between atoms: O_9  and  C_10 
ROOT
HETATM    1  P   UNK N   1      36.061  13.669  12.469  0.00  0.00     0.289 P 
HETATM    2  S   UNK N   1      37.207  12.967  11.306  0.00  0.00    -0.015 SA
ENDROOT
BRANCH   1   3
HETATM    3  N   UNK N   1      34.514  12.716  12.474  0.00  0.00    -0.346 N 
HETATM    4  H   UNK N   1      33.597  13.162  12.476  0.00  0.00     0.163 HD
BRANCH   3   5
HETATM    5  C   UNK N   1      34.681  11.255  12.474  0.00  0.00     0.076 C 
HETATM    6  C   UNK N   1      34.407  10.655  11.110  0.00  0.00     0.032 C 
HETATM    7  C   UNK N   1      33.931  10.529  13.580  0.00  0.00     0.032 C 
ENDBRANCH   3   5
ENDBRANCH   1   3
BRANCH   1   8
HETATM    8  O   UNK N   1      35.709  15.305  11.977  0.00  0.00    -0.324 OA
HETATM    9  C   UNK N   1      36.347  15.483  10.749  0.00  0.00     0.212 C 
ENDBRANCH   1   8
BRANCH   1  10
HETATM   10  O   UNK N   1      36.703  13.667  14.077  0.00  0.00    -0.275 OA
BRANCH  10  11
HETATM   11  C   UNK N   1      36.337  12.846  15.093  0.00  0.00     0.100 A 
HETATM   12  C   UNK N   1      35.296  13.263  15.930  0.00  0.00     0.040 A 
HETATM   13  C   UNK N   1      34.849  12.451  16.975  0.00  0.00     0.026 A 
HETATM   14  C   UNK N   1      35.436  11.203  17.186  0.00  0.00     0.035 A 
HETATM   15  C   UNK N   1      36.460  10.763  16.349  0.00  0.00     0.050 A 
HETATM   16 Cl   UNK N   1      34.865  10.177  18.486  0.00  0.00    -0.084 Cl
HETATM   17  C   UNK N   1      36.920  11.570  15.301  0.00  0.00     0.069 A 
HETATM   18 Cl   UNK N   1      38.148  10.901  14.238  0.00  0.00    -0.081 Cl
ENDBRANCH  10  11
ENDBRANCH   1  10
TORSDOF 5
ENDMDL
MODEL 8
REMARK VINA RESULT:      -5.0      8.435      9.441
REMARK  5 active torsions:
REMARK  status: ('A' for Active; 'I' for Inactive)
REMARK    1  A    between atoms: C_2  and  N_4 
REMARK    2  A    between atoms: N_4  and  P_5 
REMARK    3  A    between atoms: P_5  and  O_7 
REMARK    4  A    between atoms: P_5  and  O_9 
REMARK    5  A    between atoms: O_9  and  C_10 
ROOT
HETATM    1  P   UNK N   1      21.137  14.325   6.696  0.00  0.00     0.289 P 
HETATM    2  S   UNK N   1      19.773  14.528   5.575  0.00  0.00    -0.015 SA
ENDROOT
BRANCH   1   3
HETATM    3  N   UNK N   1      21.211  15.727   7.850  0.00  0.00    -0.346 N 
HETATM    4  H   UNK N   1      21.768  15.703   8.704  0.00  0.00     0.163 HD
BRANCH   3   5
HETATM    5  C   UNK N   1      20.411  16.897   7.462  0.00  0.00     0.076 C 
HETATM    6  C   UNK N   1      21.206  17.869   6.614  0.00  0.00     0.032 C 
HETATM    7  C   UNK N   1      19.699  17.591   8.612  0.00  0.00     0.032 C 
ENDBRANCH   3   5
ENDBRANCH   1   3
BRANCH   1   8
HETATM    8  O   UNK N   1      22.613  14.286   5.766  0.00  0.00    -0.324 OA
HETATM    9  C   UNK N   1      23.576  14.926   6.547  0.00  0.00     0.212 C 
ENDBRANCH   1   8
BRANCH   1  10
HETATM   10  O   UNK N   1      20.989  12.869   7.621  0.00  0.00    -0.275 OA
BRANCH  10  11
HETATM   11  C   UNK N   1      21.558  12.615   8.827  0.00  0.00     0.100 A 
HETATM   12  C   UNK N   1      20.826  12.936   9.976  0.00  0.00     0.040 A 
HETATM   13  C   UNK N   1      21.340  12.671  11.248  0.00  0.00     0.026 A 
HETATM   14  C   UNK N   1      22.591  12.070  11.381  0.00  0.00     0.035 A 
HETATM   15  C   UNK N   1      23.325  11.725  10.246  0.00  0.00     0.050 A 
HETATM   16 Cl   UNK N   1      23.229  11.722  12.975  0.00  0.00    -0.084 Cl
HETATM   17  C   UNK N   1      22.822  11.990   8.966  0.00  0.00     0.069 A 
HETATM   18 Cl   UNK N   1      23.768  11.439   7.592  0.00  0.00    -0.081 Cl
ENDBRANCH  10  11
ENDBRANCH   1  10
TORSDOF 5
ENDMDL
MODEL 9
REMARK VINA RESULT:      -5.0     14.013     15.773
REMARK  5 active torsions:
REMARK  status: ('A' for Active; 'I' for Inactive)
REMARK    1  A    between atoms: C_2  and  N_4 
REMARK    2  A    between atoms: N_4  and  P_5 
REMARK    3  A    between atoms: P_5  and  O_7 
REMARK    4  A    between atoms: P_5  and  O_9 
REMARK    5  A    between atoms: O_9  and  C_10 
ROOT
HETATM    1  P   UNK N   1      26.401  24.520  -7.333  0.00  0.00     0.289 P 
HETATM    2  S   UNK N   1      26.449  23.856  -8.981  0.00  0.00    -0.015 SA
ENDROOT
BRANCH   1   3
HETATM    3  N   UNK N   1      28.076  24.569  -6.630  0.00  0.00    -0.346 N 
HETATM    4  H   UNK N   1      28.880  24.906  -7.158  0.00  0.00     0.163 HD
BRANCH   3   5
HETATM    5  C   UNK N   1      28.186  24.087  -5.245  0.00  0.00     0.076 C 
HETATM    6  C   UNK N   1      28.346  25.228  -4.262  0.00  0.00     0.032 C 
HETATM    7  C   UNK N   1      29.224  22.996  -5.032  0.00  0.00     0.032 C 
ENDBRANCH   3   5
ENDBRANCH   1   3
BRANCH   1   8
HETATM    8  O   UNK N   1      25.411  23.476  -6.348  0.00  0.00    -0.324 OA
HETATM    9  C   UNK N   1      25.403  22.236  -6.989  0.00  0.00     0.212 C 
ENDBRANCH   1   8
BRANCH   1  10
HETATM   10  O   UNK N   1      25.758  26.127  -7.313  0.00  0.00    -0.275 OA
BRANCH  10  11
HETATM   11  C   UNK N   1      26.018  27.091  -6.394  0.00  0.00     0.100 A 
HETATM   12  C   UNK N   1      25.234  27.121  -5.235  0.00  0.00     0.040 A 
HETATM   13  C   UNK N   1      25.471  28.067  -4.236  0.00  0.00     0.026 A 
HETATM   14  C   UNK N   1      26.507  28.990  -4.383  0.00  0.00     0.035 A 
HETATM   15  C   UNK N   1      27.311  28.962  -5.522  0.00  0.00     0.050 A 
HETATM   16 Cl   UNK N   1      26.815  30.167  -3.123  0.00  0.00    -0.084 Cl
HETATM   17  C   UNK N   1      27.080  28.021  -6.533  0.00  0.00     0.069 A 
HETATM   18 Cl   UNK N   1      28.196  27.994  -7.889  0.00  0.00    -0.081 Cl
ENDBRANCH  10  11
ENDBRANCH   1  10
TORSDOF 5
ENDMDL
