REMARK  10 active torsions:
REMARK  status: ('A' for Active; 'I' for Inactive)
REMARK    1  A    between atoms: C_2  and  O_3 
REMARK    2  A    between atoms: O_3  and  C_4 
REMARK    3  A    between atoms: C_7  and  C_10 
REMARK    4  A    between atoms: C_10  and  C_11 
REMARK    5  A    between atoms: C_18  and  C_13 
REMARK    6  A    between atoms: C_19  and  O_30 
REMARK    7  A    between atoms: C_20  and  O_29 
REMARK    8  A    between atoms: C_21  and  O_28 
REMARK    9  A    between atoms: C_22  and  C_26 
REMARK   10  A    between atoms: C_26  and  O_27 
ROOT
HETATM    1  C   UNK N   1      -1.059  -2.263   0.533  0.00  0.00    -0.032 A 
HETATM    2  C   UNK N   1      -0.641  -0.953   0.204  0.00  0.00     0.022 A 
HETATM    3  C   UNK N   1       0.726  -0.615   0.159  0.00  0.00     0.007 A 
HETATM    4  C   UNK N   1       1.669  -1.613   0.441  0.00  0.00     0.014 A 
HETATM    5  C   UNK N   1       1.278  -2.900   0.774  0.00  0.00     0.025 A 
HETATM    6  C   UNK N   1      -0.068  -3.244   0.829  0.00  0.00     0.040 A 
HETATM    7 Cl   UNK N   1      -0.417  -4.907   1.286  0.00  0.00    -0.084 Cl
ENDROOT
BRANCH   3   8
HETATM    8  C   UNK N   1       1.202   0.778  -0.259  0.00  0.00     0.223 C 
HETATM    9  C   UNK N   1       2.761   0.871  -0.246  0.00  0.00     0.217 C 
HETATM   10  C   UNK N   1       3.173   2.212  -0.855  0.00  0.00     0.184 C 
HETATM   11  C   UNK N   1       2.332   3.366  -0.290  0.00  0.00     0.188 C 
HETATM   12  C   UNK N   1       0.840   2.928  -0.220  0.00  0.00     0.135 C 
HETATM   13  O   UNK N   1       0.715   1.796   0.601  0.00  0.00    -0.330 OA
HETATM   14  C   UNK N   1       0.359   2.407  -1.551  0.00  0.00     0.215 C 
HETATM   15  O   UNK N   1       0.730   1.048  -1.569  0.00  0.00    -0.346 OA
BRANCH   9  16
HETATM   16  O   UNK N   1       3.235   0.774   1.068  0.00  0.00    -0.387 OA
HETATM   17  H   UNK N   1       3.341   0.456   1.979  0.00  0.00     0.210 HD
ENDBRANCH   9  16
BRANCH  10  18
HETATM   18  O   UNK N   1       4.545   2.442  -0.729  0.00  0.00    -0.390 OA
HETATM   19  H   UNK N   1       5.160   1.697  -0.641  0.00  0.00     0.210 HD
ENDBRANCH  10  18
BRANCH  11  20
HETATM   20  O   UNK N   1       2.789   3.721   0.983  0.00  0.00    -0.390 OA
HETATM   21  H   UNK N   1       3.161   3.570   1.866  0.00  0.00     0.210 HD
ENDBRANCH  11  20
BRANCH  12  22
HETATM   22  C   UNK N   1      -0.005   4.105   0.264  0.00  0.00     0.207 C 
BRANCH  22  23
HETATM   23  O   UNK N   1      -1.360   3.779   0.314  0.00  0.00    -0.398 OA
HETATM   24  H   UNK N   1      -2.028   4.481   0.349  0.00  0.00     0.209 HD
ENDBRANCH  22  23
ENDBRANCH  12  22
ENDBRANCH   3   8
BRANCH   1  25
HETATM   25  C   UNK N   1      -2.555  -2.524   0.579  0.00  0.00     0.078 C 
BRANCH  25  26
HETATM   26  C   UNK N   1      -3.018  -3.913   0.244  0.00  0.00    -0.054 A 
HETATM   27  C   UNK N   1      -3.739  -4.644   1.197  0.00  0.00     0.010 A 
HETATM   28  C   UNK N   1      -4.119  -5.964   0.935  0.00  0.00     0.037 A 
HETATM   29  C   UNK N   1      -3.775  -6.570  -0.277  0.00  0.00     0.068 A 
HETATM   30  C   UNK N   1      -3.075  -5.826  -1.246  0.00  0.00     0.037 A 
HETATM   31  C   UNK N   1      -2.704  -4.502  -0.989  0.00  0.00     0.010 A 
BRANCH  29  32
HETATM   32  O   UNK N   1      -4.095  -7.871  -0.474  0.00  0.00    -0.352 OA
BRANCH  32  33
HETATM   33  C   UNK N   1      -3.659  -8.595  -1.562  0.00  0.00     0.171 C 
HETATM   34  C   UNK N   1      -2.430  -9.395  -1.170  0.00  0.00     0.034 C 
ENDBRANCH  32  33
ENDBRANCH  29  32
ENDBRANCH  25  26
ENDBRANCH   1  25
TORSDOF 10
