MODEL 1
REMARK VINA RESULT:      -7.8      0.000      0.000
REMARK  8 active torsions:
REMARK  status: ('A' for Active; 'I' for Inactive)
REMARK       I    between atoms: N_2  and  C_3 
REMARK    1  A    between atoms: C_3  and  C_5 
REMARK    2  A    between atoms: C_13  and  O_15 
REMARK    3  A    between atoms: O_15  and  C_16 
REMARK    4  A    between atoms: C_24  and  O_33 
REMARK    5  A    between atoms: C_25  and  O_27 
REMARK    6  A    between atoms: O_27  and  C_28 
REMARK    7  A    between atoms: C_28  and  C_29 
REMARK    8  A    between atoms: C_29  and  N_32 
ROOT
HETATM    1  C   UNK N   1      27.498  18.800   6.252  0.00  0.00     0.090 A 
HETATM    2  C   UNK N   1      27.831  20.160   6.348  0.00  0.00     0.055 A 
HETATM    3  C   UNK N   1      27.038  21.119   5.714  0.00  0.00     0.091 A 
HETATM    4  N   UNK N   1      25.928  20.742   5.025  0.00  0.00    -0.365 N 
ATOM      5  HN  UNK N   1      25.350  21.456   4.580  1.00  0.00     0.165 HD
HETATM    6  C   UNK N   1      25.575  19.434   4.913  0.00  0.00     0.048 A 
HETATM    7  C   UNK N   1      26.365  18.436   5.512  0.00  0.00     0.027 A 
HETATM    8  C   UNK N   1      26.001  17.092   5.377  0.00  0.00     0.056 A 
HETATM    9  C   UNK N   1      24.848  16.719   4.682  0.00  0.00     0.102 A 
HETATM   10  C   UNK N   1      24.018  17.732   4.125  0.00  0.00     0.104 A 
HETATM   11  C   UNK N   1      24.409  19.081   4.238  0.00  0.00     0.070 A 
ENDROOT
BRANCH   1  12
HETATM   12  O   UNK N   1      28.213  17.821   6.875  0.00  0.00    -0.310 OA
BRANCH  12  13
HETATM   13  C   UNK N   1      29.558  17.638   6.951  0.00  0.00     0.076 A 
HETATM   14  C   UNK N   1      30.193  17.943   8.156  0.00  0.00     0.038 A 
HETATM   15  C   UNK N   1      31.568  17.771   8.300  0.00  0.00     0.016 A 
HETATM   16  C   UNK N   1      32.344  17.287   7.238  0.00  0.00    -0.010 A 
HETATM   17  C   UNK N   1      31.702  16.982   6.010  0.00  0.00    -0.022 A 
HETATM   18  C   UNK N   1      33.747  17.088   7.364  0.00  0.00     0.043 A 
HETATM   19  C   UNK N   1      32.439  16.495   4.932  0.00  0.00     0.012 A 
HETATM   20  C   UNK N   1      30.322  17.161   5.876  0.00  0.00     0.049 A 
HETATM   21  C   UNK N   1      33.813  16.302   5.056  0.00  0.00     0.002 A 
HETATM   22  C   UNK N   1      34.458  16.594   6.259  0.00  0.00     0.018 A 
BRANCH  18  23
HETATM   23  C   UNK N   1      34.502  17.374   8.622  0.00  0.00     0.252 C 
HETATM   24  N   UNK N   1      34.605  16.410   9.573  0.00  0.00    -0.361 N 
HETATM   25  C   UNK N   1      35.314  16.632  10.808  0.00  0.00     0.149 C 
HETATM   26  H   UNK N   1      34.182  15.535   9.414  0.00  0.00     0.162 HD
HETATM   27  O   UNK N   1      35.022  18.464   8.805  0.00  0.00    -0.268 OA
ENDBRANCH  18  23
ENDBRANCH  12  13
ENDBRANCH   1  12
BRANCH   9  28
HETATM   28  O   UNK N   1      24.567  15.391   4.610  0.00  0.00    -0.353 OA
HETATM   29  C   UNK N   1      23.902  14.661   5.568  0.00  0.00     0.210 C 
ENDBRANCH   9  28
BRANCH  10  30
HETATM   30  O   UNK N   1      22.843  17.413   3.528  0.00  0.00    -0.346 OA
BRANCH  30  31
HETATM   31  C   UNK N   1      21.630  17.586   4.160  0.00  0.00     0.206 C 
BRANCH  31  32
HETATM   32  C   UNK N   1      20.647  18.339   3.291  0.00  0.00     0.045 A 
HETATM   33  C   UNK N   1      21.129  19.358   2.289  0.00  0.00     0.035 A 
HETATM   34  C   UNK N   1      20.576  19.806   3.638  0.00  0.00     0.035 A 
BRANCH  32  35
HETATM   35  N   UNK N   1      19.332  17.771   3.063  0.00  0.00    -0.420 N 
HETATM   36  H   UNK N   1      19.217  16.764   2.947  0.00  0.00     0.150 HD
HETATM   37  H   UNK N   1      18.516  18.383   3.019  0.00  0.00     0.150 HD
ENDBRANCH  32  35
ENDBRANCH  31  32
ENDBRANCH  30  31
ENDBRANCH  10  30
TORSDOF 8
ENDMDL
MODEL 2
REMARK VINA RESULT:      -7.8      3.617      6.883
REMARK  8 active torsions:
REMARK  status: ('A' for Active; 'I' for Inactive)
REMARK       I    between atoms: N_2  and  C_3 
REMARK    1  A    between atoms: C_3  and  C_5 
REMARK    2  A    between atoms: C_13  and  O_15 
REMARK    3  A    between atoms: O_15  and  C_16 
REMARK    4  A    between atoms: C_24  and  O_33 
REMARK    5  A    between atoms: C_25  and  O_27 
REMARK    6  A    between atoms: O_27  and  C_28 
REMARK    7  A    between atoms: C_28  and  C_29 
REMARK    8  A    between atoms: C_29  and  N_32 
ROOT
HETATM    1  C   UNK N   1      33.784  16.498   7.043  0.00  0.00     0.090 A 
HETATM    2  C   UNK N   1      34.441  16.154   5.852  0.00  0.00     0.055 A 
HETATM    3  C   UNK N   1      33.714  16.029   4.665  0.00  0.00     0.091 A 
HETATM    4  N   UNK N   1      32.374  16.264   4.656  0.00  0.00    -0.365 N 
ATOM      5  HN  UNK N   1      31.859  16.184   3.779  1.00  0.00     0.165 HD
HETATM    6  C   UNK N   1      31.708  16.600   5.792  0.00  0.00     0.048 A 
HETATM    7  C   UNK N   1      32.399  16.706   7.012  0.00  0.00     0.027 A 
HETATM    8  C   UNK N   1      31.700  17.037   8.177  0.00  0.00     0.056 A 
HETATM    9  C   UNK N   1      30.327  17.295   8.151  0.00  0.00     0.102 A 
HETATM   10  C   UNK N   1      29.637  17.243   6.908  0.00  0.00     0.104 A 
HETATM   11  C   UNK N   1      30.343  16.878   5.744  0.00  0.00     0.070 A 
ENDROOT
BRANCH   1  12
HETATM   12  O   UNK N   1      34.443  16.667   8.224  0.00  0.00    -0.310 OA
BRANCH  12  13
HETATM   13  C   UNK N   1      34.648  15.789   9.242  0.00  0.00     0.076 A 
HETATM   14  C   UNK N   1      34.969  16.307  10.498  0.00  0.00     0.038 A 
HETATM   15  C   UNK N   1      35.184  15.459  11.583  0.00  0.00     0.016 A 
HETATM   16  C   UNK N   1      35.083  14.069  11.438  0.00  0.00    -0.010 A 
HETATM   17  C   UNK N   1      34.763  13.540  10.161  0.00  0.00    -0.022 A 
HETATM   18  C   UNK N   1      35.283  13.184  12.533  0.00  0.00     0.043 A 
HETATM   19  C   UNK N   1      34.649  12.163   9.977  0.00  0.00     0.012 A 
HETATM   20  C   UNK N   1      34.551  14.399   9.079  0.00  0.00     0.049 A 
HETATM   21  C   UNK N   1      34.847  11.297  11.051  0.00  0.00     0.002 A 
HETATM   22  C   UNK N   1      35.158  11.803  12.314  0.00  0.00     0.018 A 
BRANCH  18  23
HETATM   23  C   UNK N   1      35.614  13.655  13.913  0.00  0.00     0.252 C 
HETATM   24  N   UNK N   1      36.789  14.298  14.136  0.00  0.00    -0.361 N 
HETATM   25  C   UNK N   1      37.163  14.768  15.446  0.00  0.00     0.149 C 
HETATM   26  H   UNK N   1      37.402  14.448  13.380  0.00  0.00     0.162 HD
HETATM   27  O   UNK N   1      34.843  13.463  14.841  0.00  0.00    -0.268 OA
ENDBRANCH  18  23
ENDBRANCH  12  13
ENDBRANCH   1  12
BRANCH   9  28
HETATM   28  O   UNK N   1      29.731  17.619   9.329  0.00  0.00    -0.353 OA
HETATM   29  C   UNK N   1      29.749  18.861   9.920  0.00  0.00     0.210 C 
ENDBRANCH   9  28
BRANCH  10  30
HETATM   30  O   UNK N   1      28.326  17.581   6.829  0.00  0.00    -0.346 OA
BRANCH  30  31
HETATM   31  C   UNK N   1      27.843  18.419   5.846  0.00  0.00     0.206 C 
BRANCH  31  32
HETATM   32  C   UNK N   1      27.225  19.670   6.429  0.00  0.00     0.045 A 
HETATM   33  C   UNK N   1      26.297  20.526   5.605  0.00  0.00     0.035 A 
HETATM   34  C   UNK N   1      27.757  20.928   5.788  0.00  0.00     0.035 A 
BRANCH  32  35
HETATM   35  N   UNK N   1      27.123  19.797   7.870  0.00  0.00    -0.420 N 
HETATM   36  H   UNK N   1      26.385  19.311   8.381  0.00  0.00     0.150 HD
HETATM   37  H   UNK N   1      27.794  20.375   8.377  0.00  0.00     0.150 HD
ENDBRANCH  32  35
ENDBRANCH  31  32
ENDBRANCH  30  31
ENDBRANCH  10  30
TORSDOF 8
ENDMDL
MODEL 3
REMARK VINA RESULT:      -7.6      2.010     10.390
REMARK  8 active torsions:
REMARK  status: ('A' for Active; 'I' for Inactive)
REMARK       I    between atoms: N_2  and  C_3 
REMARK    1  A    between atoms: C_3  and  C_5 
REMARK    2  A    between atoms: C_13  and  O_15 
REMARK    3  A    between atoms: O_15  and  C_16 
REMARK    4  A    between atoms: C_24  and  O_33 
REMARK    5  A    between atoms: C_25  and  O_27 
REMARK    6  A    between atoms: O_27  and  C_28 
REMARK    7  A    between atoms: C_28  and  C_29 
REMARK    8  A    between atoms: C_29  and  N_32 
ROOT
HETATM    1  C   UNK N   1      29.150  17.694   7.041  0.00  0.00     0.090 A 
HETATM    2  C   UNK N   1      28.470  18.406   8.042  0.00  0.00     0.055 A 
HETATM    3  C   UNK N   1      29.109  18.692   9.251  0.00  0.00     0.091 A 
HETATM    4  N   UNK N   1      30.397  18.305   9.451  0.00  0.00    -0.365 N 
ATOM      5  HN  UNK N   1      30.856  18.536  10.333  1.00  0.00     0.165 HD
HETATM    6  C   UNK N   1      31.085  17.616   8.503  0.00  0.00     0.048 A 
HETATM    7  C   UNK N   1      30.467  17.282   7.284  0.00  0.00     0.027 A 
HETATM    8  C   UNK N   1      31.179  16.560   6.322  0.00  0.00     0.056 A 
HETATM    9  C   UNK N   1      32.508  16.185   6.533  0.00  0.00     0.102 A 
HETATM   10  C   UNK N   1      33.152  16.571   7.741  0.00  0.00     0.104 A 
HETATM   11  C   UNK N   1      32.418  17.272   8.719  0.00  0.00     0.070 A 
ENDROOT
BRANCH   1  12
HETATM   12  O   UNK N   1      28.592  17.414   5.830  0.00  0.00    -0.310 OA
BRANCH  12  13
HETATM   13  C   UNK N   1      27.378  17.765   5.327  0.00  0.00     0.076 A 
HETATM   14  C   UNK N   1      26.285  16.951   5.628  0.00  0.00     0.038 A 
HETATM   15  C   UNK N   1      25.014  17.260   5.149  0.00  0.00     0.016 A 
HETATM   16  C   UNK N   1      24.804  18.395   4.354  0.00  0.00    -0.010 A 
HETATM   17  C   UNK N   1      25.914  19.220   4.041  0.00  0.00    -0.022 A 
HETATM   18  C   UNK N   1      23.514  18.740   3.864  0.00  0.00     0.043 A 
HETATM   19  C   UNK N   1      25.746  20.360   3.256  0.00  0.00     0.012 A 
HETATM   20  C   UNK N   1      27.186  18.900   4.525  0.00  0.00     0.049 A 
HETATM   21  C   UNK N   1      24.482  20.696   2.776  0.00  0.00     0.002 A 
HETATM   22  C   UNK N   1      23.380  19.896   3.079  0.00  0.00     0.018 A 
BRANCH  18  23
HETATM   23  C   UNK N   1      22.289  17.933   4.153  0.00  0.00     0.252 C 
HETATM   24  N   UNK N   1      21.943  16.921   3.315  0.00  0.00    -0.361 N 
HETATM   25  C   UNK N   1      20.770  16.115   3.539  0.00  0.00     0.149 C 
HETATM   26  H   UNK N   1      22.511  16.734   2.533  0.00  0.00     0.162 HD
HETATM   27  O   UNK N   1      21.595  18.177   5.128  0.00  0.00    -0.268 OA
ENDBRANCH  18  23
ENDBRANCH  12  13
ENDBRANCH   1  12
BRANCH   9  28
HETATM   28  O   UNK N   1      33.125  15.493   5.539  0.00  0.00    -0.353 OA
HETATM   29  C   UNK N   1      33.415  15.979   4.286  0.00  0.00     0.210 C 
ENDBRANCH   9  28
BRANCH  10  30
HETATM   30  O   UNK N   1      34.468  16.309   7.939  0.00  0.00    -0.346 OA
BRANCH  30  31
HETATM   31  C   UNK N   1      34.897  15.200   8.639  0.00  0.00     0.206 C 
BRANCH  31  32
HETATM   32  C   UNK N   1      34.861  15.431  10.133  0.00  0.00     0.045 A 
HETATM   33  C   UNK N   1      35.565  16.616  10.746  0.00  0.00     0.035 A 
HETATM   34  C   UNK N   1      36.210  15.234  10.780  0.00  0.00     0.035 A 
BRANCH  32  35
HETATM   35  N   UNK N   1      33.793  14.832  10.911  0.00  0.00    -0.420 N 
HETATM   36  H   UNK N   1      33.110  15.421  11.390  0.00  0.00     0.150 HD
HETATM   37  H   UNK N   1      33.723  13.817  10.979  0.00  0.00     0.150 HD
ENDBRANCH  32  35
ENDBRANCH  31  32
ENDBRANCH  30  31
ENDBRANCH  10  30
TORSDOF 8
ENDMDL
MODEL 4
REMARK VINA RESULT:      -7.4      2.273      3.374
REMARK  8 active torsions:
REMARK  status: ('A' for Active; 'I' for Inactive)
REMARK       I    between atoms: N_2  and  C_3 
REMARK    1  A    between atoms: C_3  and  C_5 
REMARK    2  A    between atoms: C_13  and  O_15 
REMARK    3  A    between atoms: O_15  and  C_16 
REMARK    4  A    between atoms: C_24  and  O_33 
REMARK    5  A    between atoms: C_25  and  O_27 
REMARK    6  A    between atoms: O_27  and  C_28 
REMARK    7  A    between atoms: C_28  and  C_29 
REMARK    8  A    between atoms: C_29  and  N_32 
ROOT
HETATM    1  C   UNK N   1      26.463  18.183   3.860  0.00  0.00     0.090 A 
HETATM    2  C   UNK N   1      26.751  19.464   3.363  0.00  0.00     0.055 A 
HETATM    3  C   UNK N   1      25.730  20.409   3.235  0.00  0.00     0.091 A 
HETATM    4  N   UNK N   1      24.461  20.100   3.616  0.00  0.00    -0.365 N 
ATOM      5  HN  UNK N   1      23.729  20.806   3.532  1.00  0.00     0.165 HD
HETATM    6  C   UNK N   1      24.148  18.871   4.103  0.00  0.00     0.048 A 
HETATM    7  C   UNK N   1      25.142  17.882   4.218  0.00  0.00     0.027 A 
HETATM    8  C   UNK N   1      24.805  16.615   4.706  0.00  0.00     0.056 A 
HETATM    9  C   UNK N   1      23.502  16.317   5.112  0.00  0.00     0.102 A 
HETATM   10  C   UNK N   1      22.509  17.334   5.049  0.00  0.00     0.104 A 
HETATM   11  C   UNK N   1      22.849  18.598   4.527  0.00  0.00     0.070 A 
ENDROOT
BRANCH   1  12
HETATM   12  O   UNK N   1      27.421  17.231   4.038  0.00  0.00    -0.310 OA
BRANCH  12  13
HETATM   13  C   UNK N   1      28.541  17.254   4.808  0.00  0.00     0.076 A 
HETATM   14  C   UNK N   1      29.752  16.900   4.211  0.00  0.00     0.038 A 
HETATM   15  C   UNK N   1      30.937  16.910   4.945  0.00  0.00     0.016 A 
HETATM   16  C   UNK N   1      30.940  17.277   6.297  0.00  0.00    -0.010 A 
HETATM   17  C   UNK N   1      29.709  17.631   6.908  0.00  0.00    -0.022 A 
HETATM   18  C   UNK N   1      32.137  17.310   7.064  0.00  0.00     0.043 A 
HETATM   19  C   UNK N   1      29.670  18.006   8.250  0.00  0.00     0.012 A 
HETATM   20  C   UNK N   1      28.526  17.615   6.163  0.00  0.00     0.049 A 
HETATM   21  C   UNK N   1      30.844  18.036   9.000  0.00  0.00     0.002 A 
HETATM   22  C   UNK N   1      32.062  17.694   8.412  0.00  0.00     0.018 A 
BRANCH  18  23
HETATM   23  C   UNK N   1      33.477  16.961   6.500  0.00  0.00     0.252 C 
HETATM   24  N   UNK N   1      33.883  15.666   6.495  0.00  0.00    -0.361 N 
HETATM   25  C   UNK N   1      35.166  15.272   5.971  0.00  0.00     0.149 C 
HETATM   26  H   UNK N   1      33.283  14.975   6.860  0.00  0.00     0.162 HD
HETATM   27  O   UNK N   1      34.210  17.828   6.049  0.00  0.00    -0.268 OA
ENDBRANCH  18  23
ENDBRANCH  12  13
ENDBRANCH   1  12
BRANCH   9  28
HETATM   28  O   UNK N   1      23.268  15.064   5.583  0.00  0.00    -0.353 OA
HETATM   29  C   UNK N   1      23.761  14.544   6.757  0.00  0.00     0.210 C 
ENDBRANCH   9  28
BRANCH  10  30
HETATM   30  O   UNK N   1      21.258  17.110   5.524  0.00  0.00    -0.346 OA
BRANCH  30  31
HETATM   31  C   UNK N   1      20.933  17.297   6.851  0.00  0.00     0.206 C 
BRANCH  31  32
HETATM   32  C   UNK N   1      20.283  16.068   7.448  0.00  0.00     0.045 A 
HETATM   33  C   UNK N   1      19.352  16.186   8.628  0.00  0.00     0.035 A 
HETATM   34  C   UNK N   1      20.801  15.755   8.830  0.00  0.00     0.035 A 
BRANCH  32  35
HETATM   35  N   UNK N   1      20.155  14.875   6.633  0.00  0.00    -0.420 N 
HETATM   36  H   UNK N   1      20.964  14.501   6.135  0.00  0.00     0.150 HD
HETATM   37  H   UNK N   1      19.252  14.406   6.558  0.00  0.00     0.150 HD
ENDBRANCH  32  35
ENDBRANCH  31  32
ENDBRANCH  30  31
ENDBRANCH  10  30
TORSDOF 8
ENDMDL
MODEL 5
REMARK VINA RESULT:      -7.4      2.366      3.350
REMARK  8 active torsions:
REMARK  status: ('A' for Active; 'I' for Inactive)
REMARK       I    between atoms: N_2  and  C_3 
REMARK    1  A    between atoms: C_3  and  C_5 
REMARK    2  A    between atoms: C_13  and  O_15 
REMARK    3  A    between atoms: O_15  and  C_16 
REMARK    4  A    between atoms: C_24  and  O_33 
REMARK    5  A    between atoms: C_25  and  O_27 
REMARK    6  A    between atoms: O_27  and  C_28 
REMARK    7  A    between atoms: C_28  and  C_29 
REMARK    8  A    between atoms: C_29  and  N_32 
ROOT
HETATM    1  C   UNK N   1      26.211  18.959   4.761  0.00  0.00     0.090 A 
HETATM    2  C   UNK N   1      27.134  19.797   4.117  0.00  0.00     0.055 A 
HETATM    3  C   UNK N   1      26.704  20.666   3.110  0.00  0.00     0.091 A 
HETATM    4  N   UNK N   1      25.389  20.720   2.769  0.00  0.00    -0.365 N 
ATOM      5  HN  UNK N   1      25.088  21.371   2.043  1.00  0.00     0.165 HD
HETATM    6  C   UNK N   1      24.468  19.924   3.373  0.00  0.00     0.048 A 
HETATM    7  C   UNK N   1      24.866  19.014   4.370  0.00  0.00     0.027 A 
HETATM    8  C   UNK N   1      23.912  18.189   4.975  0.00  0.00     0.056 A 
HETATM    9  C   UNK N   1      22.560  18.268   4.629  0.00  0.00     0.102 A 
HETATM   10  C   UNK N   1      22.149  19.227   3.661  0.00  0.00     0.104 A 
HETATM   11  C   UNK N   1      23.121  20.033   3.035  0.00  0.00     0.070 A 
ENDROOT
BRANCH   1  12
HETATM   12  O   UNK N   1      26.563  18.116   5.771  0.00  0.00    -0.310 OA
BRANCH  12  13
HETATM   13  C   UNK N   1      27.774  17.582   6.079  0.00  0.00     0.076 A 
HETATM   14  C   UNK N   1      28.205  16.473   5.347  0.00  0.00     0.038 A 
HETATM   15  C   UNK N   1      29.440  15.884   5.609  0.00  0.00     0.016 A 
HETATM   16  C   UNK N   1      30.278  16.391   6.611  0.00  0.00    -0.010 A 
HETATM   17  C   UNK N   1      29.840  17.513   7.360  0.00  0.00    -0.022 A 
HETATM   18  C   UNK N   1      31.549  15.816   6.888  0.00  0.00     0.043 A 
HETATM   19  C   UNK N   1      30.646  18.048   8.364  0.00  0.00     0.012 A 
HETATM   20  C   UNK N   1      28.598  18.095   7.091  0.00  0.00     0.049 A 
HETATM   21  C   UNK N   1      31.891  17.484   8.635  0.00  0.00     0.002 A 
HETATM   22  C   UNK N   1      32.337  16.382   7.903  0.00  0.00     0.018 A 
BRANCH  18  23
HETATM   23  C   UNK N   1      32.093  14.640   6.142  0.00  0.00     0.252 C 
HETATM   24  N   UNK N   1      32.851  14.844   5.034  0.00  0.00    -0.361 N 
HETATM   25  C   UNK N   1      33.395  13.749   4.272  0.00  0.00     0.149 C 
HETATM   26  H   UNK N   1      33.033  15.767   4.743  0.00  0.00     0.162 HD
HETATM   27  O   UNK N   1      31.860  13.501   6.516  0.00  0.00    -0.268 OA
ENDBRANCH  18  23
ENDBRANCH  12  13
ENDBRANCH   1  12
BRANCH   9  28
HETATM   28  O   UNK N   1      21.703  17.434   5.275  0.00  0.00    -0.353 OA
HETATM   29  C   UNK N   1      21.203  17.625   6.542  0.00  0.00     0.210 C 
ENDBRANCH   9  28
BRANCH  10  30
HETATM   30  O   UNK N   1      20.836  19.398   3.371  0.00  0.00    -0.346 OA
BRANCH  30  31
HETATM   31  C   UNK N   1      20.274  18.918   2.207  0.00  0.00     0.206 C 
BRANCH  31  32
HETATM   32  C   UNK N   1      20.021  17.428   2.278  0.00  0.00     0.045 A 
HETATM   33  C   UNK N   1      20.936  16.457   1.576  0.00  0.00     0.035 A 
HETATM   34  C   UNK N   1      19.602  16.850   0.949  0.00  0.00     0.035 A 
BRANCH  32  35
HETATM   35  N   UNK N   1      19.227  16.902   3.373  0.00  0.00    -0.420 N 
HETATM   36  H   UNK N   1      19.625  16.217   4.017  0.00  0.00     0.150 HD
HETATM   37  H   UNK N   1      18.266  17.221   3.502  0.00  0.00     0.150 HD
ENDBRANCH  32  35
ENDBRANCH  31  32
ENDBRANCH  30  31
ENDBRANCH  10  30
TORSDOF 8
ENDMDL
MODEL 6
REMARK VINA RESULT:      -7.2      3.579     11.584
REMARK  8 active torsions:
REMARK  status: ('A' for Active; 'I' for Inactive)
REMARK       I    between atoms: N_2  and  C_3 
REMARK    1  A    between atoms: C_3  and  C_5 
REMARK    2  A    between atoms: C_13  and  O_15 
REMARK    3  A    between atoms: O_15  and  C_16 
REMARK    4  A    between atoms: C_24  and  O_33 
REMARK    5  A    between atoms: C_25  and  O_27 
REMARK    6  A    between atoms: O_27  and  C_28 
REMARK    7  A    between atoms: C_28  and  C_29 
REMARK    8  A    between atoms: C_29  and  N_32 
ROOT
HETATM    1  C   UNK N   1      33.594  14.051   6.796  0.00  0.00     0.090 A 
HETATM    2  C   UNK N   1      33.053  12.934   6.141  0.00  0.00     0.055 A 
HETATM    3  C   UNK N   1      33.359  11.647   6.591  0.00  0.00     0.091 A 
HETATM    4  N   UNK N   1      34.159  11.474   7.677  0.00  0.00    -0.365 N 
ATOM      5  HN  UNK N   1      34.361  10.528   8.003  1.00  0.00     0.165 HD
HETATM    6  C   UNK N   1      34.698  12.534   8.335  0.00  0.00     0.048 A 
HETATM    7  C   UNK N   1      34.438  13.845   7.895  0.00  0.00     0.027 A 
HETATM    8  C   UNK N   1      35.010  14.928   8.570  0.00  0.00     0.056 A 
HETATM    9  C   UNK N   1      35.815  14.737   9.697  0.00  0.00     0.102 A 
HETATM   10  C   UNK N   1      36.032  13.415  10.176  0.00  0.00     0.104 A 
HETATM   11  C   UNK N   1      35.477  12.328   9.471  0.00  0.00     0.070 A 
ENDROOT
BRANCH   1  12
HETATM   12  O   UNK N   1      33.306  15.331   6.425  0.00  0.00    -0.310 OA
BRANCH  12  13
HETATM   13  C   UNK N   1      32.168  16.054   6.598  0.00  0.00     0.076 A 
HETATM   14  C   UNK N   1      31.386  16.322   5.473  0.00  0.00     0.038 A 
HETATM   15  C   UNK N   1      30.204  17.052   5.586  0.00  0.00     0.016 A 
HETATM   16  C   UNK N   1      29.774  17.532   6.830  0.00  0.00    -0.010 A 
HETATM   17  C   UNK N   1      30.570  17.267   7.973  0.00  0.00    -0.022 A 
HETATM   18  C   UNK N   1      28.565  18.267   6.973  0.00  0.00     0.043 A 
HETATM   19  C   UNK N   1      30.174  17.724   9.229  0.00  0.00     0.012 A 
HETATM   20  C   UNK N   1      31.755  16.535   7.850  0.00  0.00     0.049 A 
HETATM   21  C   UNK N   1      28.990  18.445   9.368  0.00  0.00     0.002 A 
HETATM   22  C   UNK N   1      28.195  18.710   8.252  0.00  0.00     0.018 A 
BRANCH  18  23
HETATM   23  C   UNK N   1      27.662  18.584   5.824  0.00  0.00     0.252 C 
HETATM   24  N   UNK N   1      27.849  19.734   5.125  0.00  0.00    -0.361 N 
HETATM   25  C   UNK N   1      27.005  20.095   4.014  0.00  0.00     0.149 C 
HETATM   26  H   UNK N   1      28.582  20.337   5.386  0.00  0.00     0.162 HD
HETATM   27  O   UNK N   1      26.757  17.826   5.512  0.00  0.00    -0.268 OA
ENDBRANCH  18  23
ENDBRANCH  12  13
ENDBRANCH   1  12
BRANCH   9  28
HETATM   28  O   UNK N   1      36.321  15.848  10.295  0.00  0.00    -0.353 OA
HETATM   29  C   UNK N   1      35.587  16.806  10.955  0.00  0.00     0.210 C 
ENDBRANCH   9  28
BRANCH  10  30
HETATM   30  O   UNK N   1      36.727  13.199  11.320  0.00  0.00    -0.346 OA
BRANCH  30  31
HETATM   31  C   UNK N   1      36.184  12.518  12.390  0.00  0.00     0.206 C 
BRANCH  31  32
HETATM   32  C   UNK N   1      36.365  13.276  13.686  0.00  0.00     0.045 A 
HETATM   33  C   UNK N   1      36.696  12.546  14.964  0.00  0.00     0.035 A 
HETATM   34  C   UNK N   1      35.265  12.991  14.679  0.00  0.00     0.035 A 
BRANCH  32  35
HETATM   35  N   UNK N   1      36.698  14.687  13.636  0.00  0.00    -0.420 N 
HETATM   36  H   UNK N   1      37.664  14.985  13.498  0.00  0.00     0.150 HD
HETATM   37  H   UNK N   1      35.961  15.385  13.737  0.00  0.00     0.150 HD
ENDBRANCH  32  35
ENDBRANCH  31  32
ENDBRANCH  30  31
ENDBRANCH  10  30
TORSDOF 8
ENDMDL
MODEL 7
REMARK VINA RESULT:      -7.2      7.365     12.829
REMARK  8 active torsions:
REMARK  status: ('A' for Active; 'I' for Inactive)
REMARK       I    between atoms: N_2  and  C_3 
REMARK    1  A    between atoms: C_3  and  C_5 
REMARK    2  A    between atoms: C_13  and  O_15 
REMARK    3  A    between atoms: O_15  and  C_16 
REMARK    4  A    between atoms: C_24  and  O_33 
REMARK    5  A    between atoms: C_25  and  O_27 
REMARK    6  A    between atoms: O_27  and  C_28 
REMARK    7  A    between atoms: C_28  and  C_29 
REMARK    8  A    between atoms: C_29  and  N_32 
ROOT
HETATM    1  C   UNK N   1      35.023  10.972  12.149  0.00  0.00     0.090 A 
HETATM    2  C   UNK N   1      34.255   9.800  12.061  0.00  0.00     0.055 A 
HETATM    3  C   UNK N   1      33.346   9.639  11.012  0.00  0.00     0.091 A 
HETATM    4  N   UNK N   1      33.221  10.603  10.061  0.00  0.00    -0.365 N 
ATOM      5  HN  UNK N   1      32.564  10.463   9.292  1.00  0.00     0.165 HD
HETATM    6  C   UNK N   1      33.949  11.749  10.115  0.00  0.00     0.048 A 
HETATM    7  C   UNK N   1      34.853  11.963  11.172  0.00  0.00     0.027 A 
HETATM    8  C   UNK N   1      35.586  13.152  11.226  0.00  0.00     0.056 A 
HETATM    9  C   UNK N   1      35.462  14.127  10.232  0.00  0.00     0.102 A 
HETATM   10  C   UNK N   1      34.590  13.886   9.133  0.00  0.00     0.104 A 
HETATM   11  C   UNK N   1      33.832  12.698   9.103  0.00  0.00     0.070 A 
ENDROOT
BRANCH   1  12
HETATM   12  O   UNK N   1      35.948  11.174  13.128  0.00  0.00    -0.310 OA
BRANCH  12  13
HETATM   13  C   UNK N   1      35.791  11.236  14.477  0.00  0.00     0.076 A 
HETATM   14  C   UNK N   1      35.791  10.036  15.192  0.00  0.00     0.038 A 
HETATM   15  C   UNK N   1      35.641  10.033  16.577  0.00  0.00     0.016 A 
HETATM   16  C   UNK N   1      35.487  11.233  17.284  0.00  0.00    -0.010 A 
HETATM   17  C   UNK N   1      35.479  12.453  16.560  0.00  0.00    -0.022 A 
HETATM   18  C   UNK N   1      35.346  11.257  18.699  0.00  0.00     0.043 A 
HETATM   19  C   UNK N   1      35.332  13.667  17.227  0.00  0.00     0.012 A 
HETATM   20  C   UNK N   1      35.629  12.445  15.170  0.00  0.00     0.049 A 
HETATM   21  C   UNK N   1      35.193  13.690  18.613  0.00  0.00     0.002 A 
HETATM   22  C   UNK N   1      35.203  12.498  19.340  0.00  0.00     0.018 A 
BRANCH  18  23
HETATM   23  C   UNK N   1      35.352  10.022  19.541  0.00  0.00     0.252 C 
HETATM   24  N   UNK N   1      36.521   9.582  20.073  0.00  0.00    -0.361 N 
HETATM   25  C   UNK N   1      36.588   8.394  20.887  0.00  0.00     0.149 C 
HETATM   26  H   UNK N   1      37.347  10.089  19.898  0.00  0.00     0.162 HD
HETATM   27  O   UNK N   1      34.320   9.404  19.751  0.00  0.00    -0.268 OA
ENDBRANCH  18  23
ENDBRANCH  12  13
ENDBRANCH   1  12
BRANCH   9  28
HETATM   28  O   UNK N   1      36.221  15.247  10.360  0.00  0.00    -0.353 OA
HETATM   29  C   UNK N   1      35.798  16.442  10.894  0.00  0.00     0.210 C 
ENDBRANCH   9  28
BRANCH  10  30
HETATM   30  O   UNK N   1      34.517  14.765   8.103  0.00  0.00    -0.346 OA
BRANCH  30  31
HETATM   31  C   UNK N   1      33.317  15.105   7.514  0.00  0.00     0.206 C 
BRANCH  31  32
HETATM   32  C   UNK N   1      33.021  16.582   7.655  0.00  0.00     0.045 A 
HETATM   33  C   UNK N   1      32.476  17.372   6.492  0.00  0.00     0.035 A 
HETATM   34  C   UNK N   1      33.960  17.438   6.840  0.00  0.00     0.035 A 
BRANCH  32  35
HETATM   35  N   UNK N   1      32.798  17.130   8.979  0.00  0.00    -0.420 N 
HETATM   36  H   UNK N   1      32.990  16.569   9.810  0.00  0.00     0.150 HD
HETATM   37  H   UNK N   1      32.447  18.083   9.081  0.00  0.00     0.150 HD
ENDBRANCH  32  35
ENDBRANCH  31  32
ENDBRANCH  30  31
ENDBRANCH  10  30
TORSDOF 8
ENDMDL
MODEL 8
REMARK VINA RESULT:      -7.2      2.162     10.519
REMARK  8 active torsions:
REMARK  status: ('A' for Active; 'I' for Inactive)
REMARK       I    between atoms: N_2  and  C_3 
REMARK    1  A    between atoms: C_3  and  C_5 
REMARK    2  A    between atoms: C_13  and  O_15 
REMARK    3  A    between atoms: O_15  and  C_16 
REMARK    4  A    between atoms: C_24  and  O_33 
REMARK    5  A    between atoms: C_25  and  O_27 
REMARK    6  A    between atoms: O_27  and  C_28 
REMARK    7  A    between atoms: C_28  and  C_29 
REMARK    8  A    between atoms: C_29  and  N_32 
ROOT
HETATM    1  C   UNK N   1      28.507  17.550   4.743  0.00  0.00     0.090 A 
HETATM    2  C   UNK N   1      28.534  16.938   3.481  0.00  0.00     0.055 A 
HETATM    3  C   UNK N   1      29.571  16.061   3.152  0.00  0.00     0.091 A 
HETATM    4  N   UNK N   1      30.542  15.779   4.062  0.00  0.00    -0.365 N 
ATOM      5  HN  UNK N   1      31.284  15.124   3.813  1.00  0.00     0.165 HD
HETATM    6  C   UNK N   1      30.545  16.352   5.294  0.00  0.00     0.048 A 
HETATM    7  C   UNK N   1      29.536  17.264   5.652  0.00  0.00     0.027 A 
HETATM    8  C   UNK N   1      29.558  17.860   6.917  0.00  0.00     0.056 A 
HETATM    9  C   UNK N   1      30.550  17.547   7.849  0.00  0.00     0.102 A 
HETATM   10  C   UNK N   1      31.539  16.583   7.508  0.00  0.00     0.104 A 
HETATM   11  C   UNK N   1      31.528  16.010   6.220  0.00  0.00     0.070 A 
ENDROOT
BRANCH   1  12
HETATM   12  O   UNK N   1      27.506  18.388   5.134  0.00  0.00    -0.310 OA
BRANCH  12  13
HETATM   13  C   UNK N   1      26.198  18.415   4.764  0.00  0.00     0.076 A 
HETATM   14  C   UNK N   1      25.395  17.330   5.122  0.00  0.00     0.038 A 
HETATM   15  C   UNK N   1      24.045  17.301   4.779  0.00  0.00     0.016 A 
HETATM   16  C   UNK N   1      23.463  18.359   4.068  0.00  0.00    -0.010 A 
HETATM   17  C   UNK N   1      24.278  19.459   3.698  0.00  0.00    -0.022 A 
HETATM   18  C   UNK N   1      22.084  18.359   3.719  0.00  0.00     0.043 A 
HETATM   19  C   UNK N   1      23.735  20.533   2.994  0.00  0.00     0.012 A 
HETATM   20  C   UNK N   1      25.632  19.478   4.045  0.00  0.00     0.049 A 
HETATM   21  C   UNK N   1      22.385  20.531   2.651  0.00  0.00     0.002 A 
HETATM   22  C   UNK N   1      21.569  19.458   3.012  0.00  0.00     0.018 A 
BRANCH  18  23
HETATM   23  C   UNK N   1      21.151  17.247   4.076  0.00  0.00     0.252 C 
HETATM   24  N   UNK N   1      20.944  16.239   3.191  0.00  0.00    -0.361 N 
HETATM   25  C   UNK N   1      20.051  15.145   3.478  0.00  0.00     0.149 C 
HETATM   26  H   UNK N   1      21.418  16.256   2.327  0.00  0.00     0.162 HD
HETATM   27  O   UNK N   1      20.571  17.238   5.151  0.00  0.00    -0.268 OA
ENDBRANCH  18  23
ENDBRANCH  12  13
ENDBRANCH   1  12
BRANCH   9  28
HETATM   28  O   UNK N   1      30.488  18.167   9.057  0.00  0.00    -0.353 OA
HETATM   29  C   UNK N   1      29.356  18.312   9.825  0.00  0.00     0.210 C 
ENDBRANCH   9  28
BRANCH  10  30
HETATM   30  O   UNK N   1      32.460  16.183   8.421  0.00  0.00    -0.346 OA
BRANCH  30  31
HETATM   31  C   UNK N   1      33.789  16.539   8.325  0.00  0.00     0.206 C 
BRANCH  31  32
HETATM   32  C   UNK N   1      34.574  16.107   9.543  0.00  0.00     0.045 A 
HETATM   33  C   UNK N   1      35.389  14.839   9.525  0.00  0.00     0.035 A 
HETATM   34  C   UNK N   1      34.012  14.861  10.181  0.00  0.00     0.035 A 
BRANCH  32  35
HETATM   35  N   UNK N   1      34.941  17.104  10.532  0.00  0.00    -0.420 N 
HETATM   36  H   UNK N   1      35.557  16.859  11.308  0.00  0.00     0.150 HD
HETATM   37  H   UNK N   1      34.583  18.056  10.449  0.00  0.00     0.150 HD
ENDBRANCH  32  35
ENDBRANCH  31  32
ENDBRANCH  30  31
ENDBRANCH  10  30
TORSDOF 8
ENDMDL
MODEL 9
REMARK VINA RESULT:      -7.1      1.941      2.814
REMARK  8 active torsions:
REMARK  status: ('A' for Active; 'I' for Inactive)
REMARK       I    between atoms: N_2  and  C_3 
REMARK    1  A    between atoms: C_3  and  C_5 
REMARK    2  A    between atoms: C_13  and  O_15 
REMARK    3  A    between atoms: O_15  and  C_16 
REMARK    4  A    between atoms: C_24  and  O_33 
REMARK    5  A    between atoms: C_25  and  O_27 
REMARK    6  A    between atoms: O_27  and  C_28 
REMARK    7  A    between atoms: C_28  and  C_29 
REMARK    8  A    between atoms: C_29  and  N_32 
ROOT
HETATM    1  C   UNK N   1      26.452  16.500   5.850  0.00  0.00     0.090 A 
HETATM    2  C   UNK N   1      26.645  15.216   6.382  0.00  0.00     0.055 A 
HETATM    3  C   UNK N   1      25.646  14.248   6.249  0.00  0.00     0.091 A 
HETATM    4  N   UNK N   1      24.496  14.539   5.584  0.00  0.00    -0.365 N 
ATOM      5  HN  UNK N   1      23.782  13.817   5.481  1.00  0.00     0.165 HD
HETATM    6  C   UNK N   1      24.278  15.772   5.055  0.00  0.00     0.048 A 
HETATM    7  C   UNK N   1      25.246  16.782   5.194  0.00  0.00     0.027 A 
HETATM    8  C   UNK N   1      25.004  18.052   4.660  0.00  0.00     0.056 A 
HETATM    9  C   UNK N   1      23.827  18.333   3.961  0.00  0.00     0.102 A 
HETATM   10  C   UNK N   1      22.872  17.295   3.771  0.00  0.00     0.104 A 
HETATM   11  C   UNK N   1      23.110  16.027   4.340  0.00  0.00     0.070 A 
ENDROOT
BRANCH   1  12
HETATM   12  O   UNK N   1      27.402  17.475   5.919  0.00  0.00    -0.310 OA
BRANCH  12  13
HETATM   13  C   UNK N   1      28.742  17.374   6.122  0.00  0.00     0.076 A 
HETATM   14  C   UNK N   1      29.186  17.061   7.409  0.00  0.00     0.038 A 
HETATM   15  C   UNK N   1      30.547  16.937   7.681  0.00  0.00     0.016 A 
HETATM   16  C   UNK N   1      31.500  17.121   6.670  0.00  0.00    -0.010 A 
HETATM   17  C   UNK N   1      31.051  17.444   5.364  0.00  0.00    -0.022 A 
HETATM   18  C   UNK N   1      32.894  16.985   6.919  0.00  0.00     0.043 A 
HETATM   19  C   UNK N   1      31.968  17.631   4.330  0.00  0.00     0.012 A 
HETATM   20  C   UNK N   1      29.684  17.569   5.102  0.00  0.00     0.049 A 
HETATM   21  C   UNK N   1      33.333  17.499   4.575  0.00  0.00     0.002 A 
HETATM   22  C   UNK N   1      33.789  17.177   5.854  0.00  0.00     0.018 A 
BRANCH  18  23
HETATM   23  C   UNK N   1      33.453  16.638   8.261  0.00  0.00     0.252 C 
HETATM   24  N   UNK N   1      34.545  17.301   8.721  0.00  0.00    -0.361 N 
HETATM   25  C   UNK N   1      35.132  17.004  10.004  0.00  0.00     0.149 C 
HETATM   26  H   UNK N   1      34.948  18.005   8.162  0.00  0.00     0.162 HD
HETATM   27  O   UNK N   1      32.943  15.763   8.944  0.00  0.00    -0.268 OA
ENDBRANCH  18  23
ENDBRANCH  12  13
ENDBRANCH   1  12
BRANCH   9  28
HETATM   28  O   UNK N   1      23.680  19.591   3.468  0.00  0.00    -0.353 OA
HETATM   29  C   UNK N   1      24.706  20.456   3.166  0.00  0.00     0.210 C 
ENDBRANCH   9  28
BRANCH  10  30
HETATM   30  O   UNK N   1      21.764  17.504   3.018  0.00  0.00    -0.346 OA
BRANCH  30  31
HETATM   31  C   UNK N   1      20.581  17.957   3.564  0.00  0.00     0.206 C 
BRANCH  31  32
HETATM   32  C   UNK N   1      19.924  19.003   2.691  0.00  0.00     0.045 A 
HETATM   33  C   UNK N   1      20.753  19.890   1.797  0.00  0.00     0.035 A 
HETATM   34  C   UNK N   1      20.242  20.409   3.138  0.00  0.00     0.035 A 
BRANCH  32  35
HETATM   35  N   UNK N   1      18.525  18.848   2.342  0.00  0.00    -0.420 N 
HETATM   36  H   UNK N   1      18.258  18.501   1.420  0.00  0.00     0.150 HD
HETATM   37  H   UNK N   1      17.803  19.087   3.022  0.00  0.00     0.150 HD
ENDBRANCH  32  35
ENDBRANCH  31  32
ENDBRANCH  30  31
ENDBRANCH  10  30
TORSDOF 8
ENDMDL
