MODEL 1
REMARK VINA RESULT:      -7.6      0.000      0.000
REMARK  8 active torsions:
REMARK  status: ('A' for Active; 'I' for Inactive)
REMARK    1  A    between atoms: O_34  and  C_13 
REMARK    2  A    between atoms: N_26  and  C_16 
REMARK    3  A    between atoms: O_34  and  C_18 
REMARK    4  A    between atoms: O_32  and  C_19 
REMARK    5  A    between atoms: O_33  and  C_20 
REMARK    6  A    between atoms: N_28  and  C_21 
REMARK    7  A    between atoms: N_28  and  C_22 
REMARK    8  A    between atoms: O_31  and  C_22 
ROOT
HETATM    1  C   UNK N   1      23.449  20.321   3.039  0.00  0.00     0.039 A 
HETATM    2  C   UNK N   1      22.057  20.294   3.023  0.00  0.00     0.034 A 
HETATM    3  C   UNK N   1      23.461  18.450   4.568  0.00  0.00     0.063 A 
HETATM    4  C   UNK N   1      24.158  19.365   3.762  0.00  0.00     0.077 A 
HETATM    5  C   UNK N   1      22.062  18.425   4.575  0.00  0.00     0.063 A 
HETATM    6  C   UNK N   1      21.345  19.331   3.747  0.00  0.00     0.057 A 
HETATM    7 Cl   UNK N   1      21.298  17.094   5.433  0.00  0.00    -0.082 Cl
ENDROOT
BRANCH   4   8
HETATM    8  O   UNK N   1      25.460  19.153   3.438  0.00  0.00    -0.310 OA
BRANCH   8   9
HETATM    9  C   UNK N   1      26.405  19.182   4.433  0.00  0.00     0.090 A 
HETATM   10  C   UNK N   1      26.473  20.279   5.316  0.00  0.00     0.055 A 
HETATM   11  C   UNK N   1      27.362  20.284   6.381  0.00  0.00     0.091 A 
HETATM   12  N   UNK N   1      28.161  19.212   6.598  0.00  0.00    -0.365 N 
HETATM   13  C   UNK N   1      28.134  18.128   5.781  0.00  0.00     0.048 A 
ATOM     14  HN  UNK N   1      28.797  19.219   7.396  1.00  0.00     0.165 HD
HETATM   15  C   UNK N   1      28.949  17.042   6.073  0.00  0.00     0.070 A 
HETATM   16  C   UNK N   1      27.264  18.090   4.664  0.00  0.00     0.027 A 
HETATM   17  C   UNK N   1      28.942  15.898   5.277  0.00  0.00     0.103 A 
HETATM   18  C   UNK N   1      28.091  15.848   4.138  0.00  0.00     0.102 A 
HETATM   19  C   UNK N   1      27.252  16.950   3.851  0.00  0.00     0.056 A 
BRANCH  17  20
HETATM   20  O   UNK N   1      29.767  14.883   5.649  0.00  0.00    -0.353 OA
HETATM   21  C   UNK N   1      31.067  15.017   6.073  0.00  0.00     0.210 C 
ENDBRANCH  17  20
BRANCH  18  22
HETATM   22  O   UNK N   1      28.087  14.754   3.339  0.00  0.00    -0.353 OA
HETATM   23  C   UNK N   1      28.488  14.770   2.023  0.00  0.00     0.210 C 
ENDBRANCH  18  22
ENDBRANCH   8   9
ENDBRANCH   4   8
BRANCH   6  24
HETATM   24  N   UNK N   1      19.968  19.156   3.419  0.00  0.00    -0.321 N 
HETATM   25  C   UNK N   1      19.410  18.640   2.375  0.00  0.00     0.223 C 
ATOM     26  HN  UNK N   1      19.315  19.495   4.127  1.00  0.00     0.169 HD
BRANCH  25  27
HETATM   27  N   UNK N   1      20.126  17.897   1.395  0.00  0.00    -0.307 N 
ATOM     28  HN  UNK N   1      21.006  18.279   1.047  1.00  0.00     0.171 HD
BRANCH  27  29
HETATM   29  C   UNK N   1      19.724  16.768   0.926  0.00  0.00     0.131 A 
HETATM   30  C   UNK N   1      20.186  15.513   1.282  0.00  0.00     0.084 A 
HETATM   31  C   UNK N   1      19.378  14.673   0.545  0.00  0.00     0.076 A 
HETATM   32  C   UNK N   1      19.436  13.189   0.540  0.00  0.00     0.079 C 
HETATM   33  O   UNK N   1      18.527  15.389  -0.156  0.00  0.00    -0.241 OA
HETATM   34  N   UNK N   1      18.710  16.660   0.053  0.00  0.00    -0.245 N 
HETATM   35  H   UNK N   1      18.202  17.399  -0.350  0.00  0.00     0.196 HD
ENDBRANCH  27  29
ENDBRANCH  25  27
BRANCH  25  36
HETATM   36  O   UNK N   1      18.080  18.781   2.224  0.00  0.00    -0.332 OA
HETATM   37  H   UNK N   1      17.521  19.004   1.505  0.00  0.00     0.220 HD
ENDBRANCH  25  36
ENDBRANCH   6  24
TORSDOF 8
ENDMDL
MODEL 2
REMARK VINA RESULT:      -7.6      4.202     11.221
REMARK  8 active torsions:
REMARK  status: ('A' for Active; 'I' for Inactive)
REMARK    1  A    between atoms: O_34  and  C_13 
REMARK    2  A    between atoms: N_26  and  C_16 
REMARK    3  A    between atoms: O_34  and  C_18 
REMARK    4  A    between atoms: O_32  and  C_19 
REMARK    5  A    between atoms: O_33  and  C_20 
REMARK    6  A    between atoms: N_28  and  C_21 
REMARK    7  A    between atoms: N_28  and  C_22 
REMARK    8  A    between atoms: O_31  and  C_22 
ROOT
HETATM    1  C   UNK N   1      29.059  16.282   5.342  0.00  0.00     0.039 A 
HETATM    2  C   UNK N   1      30.441  16.392   5.475  0.00  0.00     0.034 A 
HETATM    3  C   UNK N   1      28.770  17.495   7.412  0.00  0.00     0.063 A 
HETATM    4  C   UNK N   1      28.217  16.882   6.276  0.00  0.00     0.077 A 
HETATM    5  C   UNK N   1      30.158  17.596   7.566  0.00  0.00     0.063 A 
HETATM    6  C   UNK N   1      31.010  17.079   6.554  0.00  0.00     0.057 A 
HETATM    7 Cl   UNK N   1      30.735  18.582   8.901  0.00  0.00    -0.082 Cl
ENDROOT
BRANCH   4   8
HETATM    8  O   UNK N   1      26.930  17.120   5.916  0.00  0.00    -0.310 OA
BRANCH   8   9
HETATM    9  C   UNK N   1      26.649  18.221   5.147  0.00  0.00     0.090 A 
HETATM   10  C   UNK N   1      27.692  19.037   4.664  0.00  0.00     0.055 A 
HETATM   11  C   UNK N   1      27.432  20.100   3.812  0.00  0.00     0.091 A 
HETATM   12  N   UNK N   1      26.162  20.350   3.414  0.00  0.00    -0.365 N 
HETATM   13  C   UNK N   1      25.120  19.595   3.846  0.00  0.00     0.048 A 
ATOM     14  HN  UNK N   1      25.985  21.124   2.772  1.00  0.00     0.165 HD
HETATM   15  C   UNK N   1      23.843  19.875   3.375  0.00  0.00     0.070 A 
HETATM   16  C   UNK N   1      25.332  18.517   4.738  0.00  0.00     0.027 A 
HETATM   17  C   UNK N   1      22.744  19.116   3.772  0.00  0.00     0.103 A 
HETATM   18  C   UNK N   1      22.934  18.042   4.685  0.00  0.00     0.102 A 
HETATM   19  C   UNK N   1      24.236  17.751   5.152  0.00  0.00     0.056 A 
BRANCH  17  20
HETATM   20  O   UNK N   1      21.536  19.459   3.249  0.00  0.00    -0.353 OA
HETATM   21  C   UNK N   1      21.289  20.542   2.440  0.00  0.00     0.210 C 
ENDBRANCH  17  20
BRANCH  18  22
HETATM   22  O   UNK N   1      21.874  17.307   5.101  0.00  0.00    -0.353 OA
HETATM   23  C   UNK N   1      21.390  17.328   6.389  0.00  0.00     0.210 C 
ENDBRANCH  18  22
ENDBRANCH   8   9
ENDBRANCH   4   8
BRANCH   6  24
HETATM   24  N   UNK N   1      32.387  17.437   6.444  0.00  0.00    -0.321 N 
HETATM   25  C   UNK N   1      33.396  17.143   7.195  0.00  0.00     0.223 C 
ATOM     26  HN  UNK N   1      32.612  18.022   5.638  1.00  0.00     0.169 HD
BRANCH  25  27
HETATM   27  N   UNK N   1      33.346  16.151   8.215  0.00  0.00    -0.307 N 
ATOM     28  HN  UNK N   1      32.735  15.346   8.075  1.00  0.00     0.171 HD
BRANCH  27  29
HETATM   29  C   UNK N   1      34.030  16.215   9.302  0.00  0.00     0.131 A 
HETATM   30  C   UNK N   1      34.432  15.151  10.091  0.00  0.00     0.084 A 
HETATM   31  C   UNK N   1      35.183  15.768  11.069  0.00  0.00     0.076 A 
HETATM   32  C   UNK N   1      35.869  15.090  12.199  0.00  0.00     0.079 C 
HETATM   33  O   UNK N   1      35.213  17.063  10.847  0.00  0.00    -0.241 OA
HETATM   34  N   UNK N   1      34.526  17.366   9.785  0.00  0.00    -0.245 N 
HETATM   35  H   UNK N   1      34.396  18.264   9.407  0.00  0.00     0.196 HD
ENDBRANCH  27  29
ENDBRANCH  25  27
BRANCH  25  36
HETATM   36  O   UNK N   1      34.561  17.779   6.978  0.00  0.00    -0.332 OA
HETATM   37  H   UNK N   1      35.214  17.741   6.306  0.00  0.00     0.220 HD
ENDBRANCH  25  36
ENDBRANCH   6  24
TORSDOF 8
ENDMDL
MODEL 3
REMARK VINA RESULT:      -7.5      9.271     14.589
REMARK  8 active torsions:
REMARK  status: ('A' for Active; 'I' for Inactive)
REMARK    1  A    between atoms: O_34  and  C_13 
REMARK    2  A    between atoms: N_26  and  C_16 
REMARK    3  A    between atoms: O_34  and  C_18 
REMARK    4  A    between atoms: O_32  and  C_19 
REMARK    5  A    between atoms: O_33  and  C_20 
REMARK    6  A    between atoms: N_28  and  C_21 
REMARK    7  A    between atoms: N_28  and  C_22 
REMARK    8  A    between atoms: O_31  and  C_22 
ROOT
HETATM    1  C   UNK N   1      34.808  14.761  11.453  0.00  0.00     0.039 A 
HETATM    2  C   UNK N   1      34.542  15.670  10.432  0.00  0.00     0.034 A 
HETATM    3  C   UNK N   1      35.834  13.273   9.849  0.00  0.00     0.063 A 
HETATM    4  C   UNK N   1      35.506  13.587  11.178  0.00  0.00     0.077 A 
HETATM    5  C   UNK N   1      35.555  14.170   8.812  0.00  0.00     0.063 A 
HETATM    6  C   UNK N   1      34.943  15.416   9.116  0.00  0.00     0.057 A 
HETATM    7 Cl   UNK N   1      36.215  13.781   7.231  0.00  0.00    -0.082 Cl
ENDROOT
BRANCH   4   8
HETATM    8  O   UNK N   1      36.105  12.943  12.213  0.00  0.00    -0.310 OA
BRANCH   8   9
HETATM    9  C   UNK N   1      35.319  12.348  13.168  0.00  0.00     0.090 A 
HETATM   10  C   UNK N   1      34.486  11.262  12.828  0.00  0.00     0.055 A 
HETATM   11  C   UNK N   1      33.754  10.593  13.798  0.00  0.00     0.091 A 
HETATM   12  N   UNK N   1      33.855  10.965  15.096  0.00  0.00    -0.365 N 
HETATM   13  C   UNK N   1      34.645  12.001  15.479  0.00  0.00     0.048 A 
ATOM     14  HN  UNK N   1      33.327  10.454  15.803  1.00  0.00     0.165 HD
HETATM   15  C   UNK N   1      34.738  12.315  16.829  0.00  0.00     0.070 A 
HETATM   16  C   UNK N   1      35.388  12.733  14.522  0.00  0.00     0.027 A 
HETATM   17  C   UNK N   1      35.551  13.355  17.275  0.00  0.00     0.103 A 
HETATM   18  C   UNK N   1      36.289  14.116  16.326  0.00  0.00     0.102 A 
HETATM   19  C   UNK N   1      36.202  13.786  14.954  0.00  0.00     0.056 A 
BRANCH  17  20
HETATM   20  O   UNK N   1      35.585  13.580  18.616  0.00  0.00    -0.353 OA
HETATM   21  C   UNK N   1      35.197  12.692  19.590  0.00  0.00     0.210 C 
ENDBRANCH  17  20
BRANCH  18  22
HETATM   22  O   UNK N   1      37.067  15.147  16.738  0.00  0.00    -0.353 OA
HETATM   23  C   UNK N   1      37.460  16.180  15.918  0.00  0.00     0.210 C 
ENDBRANCH  18  22
ENDBRANCH   8   9
ENDBRANCH   4   8
BRANCH   6  24
HETATM   24  N   UNK N   1      34.940  16.518   8.209  0.00  0.00    -0.321 N 
HETATM   25  C   UNK N   1      34.118  16.829   7.264  0.00  0.00     0.223 C 
ATOM     26  HN  UNK N   1      35.718  17.169   8.329  1.00  0.00     0.169 HD
BRANCH  25  27
HETATM   27  N   UNK N   1      32.852  16.201   7.094  0.00  0.00    -0.307 N 
ATOM     28  HN  UNK N   1      32.820  15.300   6.617  1.00  0.00     0.171 HD
BRANCH  27  29
HETATM   29  C   UNK N   1      31.746  16.709   7.511  0.00  0.00     0.131 A 
HETATM   30  C   UNK N   1      31.543  17.388   8.700  0.00  0.00     0.084 A 
HETATM   31  C   UNK N   1      30.221  17.769   8.608  0.00  0.00     0.076 A 
HETATM   32  C   UNK N   1      29.464  18.541   9.627  0.00  0.00     0.079 C 
HETATM   33  O   UNK N   1      29.724  17.354   7.465  0.00  0.00    -0.241 OA
HETATM   34  N   UNK N   1      30.621  16.710   6.777  0.00  0.00    -0.245 N 
HETATM   35  H   UNK N   1      30.499  16.303   5.890  0.00  0.00     0.196 HD
ENDBRANCH  27  29
ENDBRANCH  25  27
BRANCH  25  36
HETATM   36  O   UNK N   1      34.458  17.820   6.420  0.00  0.00    -0.332 OA
HETATM   37  H   UNK N   1      34.753  17.852   5.530  0.00  0.00     0.220 HD
ENDBRANCH  25  36
ENDBRANCH   6  24
TORSDOF 8
ENDMDL
MODEL 4
REMARK VINA RESULT:      -7.5      1.943      2.287
REMARK  8 active torsions:
REMARK  status: ('A' for Active; 'I' for Inactive)
REMARK    1  A    between atoms: O_34  and  C_13 
REMARK    2  A    between atoms: N_26  and  C_16 
REMARK    3  A    between atoms: O_34  and  C_18 
REMARK    4  A    between atoms: O_32  and  C_19 
REMARK    5  A    between atoms: O_33  and  C_20 
REMARK    6  A    between atoms: N_28  and  C_21 
REMARK    7  A    between atoms: N_28  and  C_22 
REMARK    8  A    between atoms: O_31  and  C_22 
ROOT
HETATM    1  C   UNK N   1      24.956  18.276   3.839  0.00  0.00     0.039 A 
HETATM    2  C   UNK N   1      23.662  17.762   3.880  0.00  0.00     0.034 A 
HETATM    3  C   UNK N   1      24.087  20.380   3.031  0.00  0.00     0.063 A 
HETATM    4  C   UNK N   1      25.169  19.602   3.471  0.00  0.00     0.077 A 
HETATM    5  C   UNK N   1      22.784  19.869   3.050  0.00  0.00     0.063 A 
HETATM    6  C   UNK N   1      22.561  18.551   3.532  0.00  0.00     0.057 A 
HETATM    7 Cl   UNK N   1      21.485  21.000   2.701  0.00  0.00    -0.082 Cl
ENDROOT
BRANCH   4   8
HETATM    8  O   UNK N   1      26.342  20.185   3.832  0.00  0.00    -0.310 OA
BRANCH   8   9
HETATM    9  C   UNK N   1      26.684  20.219   5.161  0.00  0.00     0.090 A 
HETATM   10  C   UNK N   1      26.004  21.079   6.048  0.00  0.00     0.055 A 
HETATM   11  C   UNK N   1      26.276  21.061   7.408  0.00  0.00     0.091 A 
HETATM   12  N   UNK N   1      27.188  20.190   7.903  0.00  0.00    -0.365 N 
HETATM   13  C   UNK N   1      27.869  19.338   7.094  0.00  0.00     0.048 A 
ATOM     14  HN  UNK N   1      27.366  20.173   8.907  1.00  0.00     0.165 HD
HETATM   15  C   UNK N   1      28.766  18.442   7.661  0.00  0.00     0.070 A 
HETATM   16  C   UNK N   1      27.647  19.340   5.696  0.00  0.00     0.027 A 
HETATM   17  C   UNK N   1      29.473  17.533   6.877  0.00  0.00     0.103 A 
HETATM   18  C   UNK N   1      29.280  17.533   5.467  0.00  0.00     0.102 A 
HETATM   19  C   UNK N   1      28.357  18.439   4.894  0.00  0.00     0.056 A 
BRANCH  17  20
HETATM   20  O   UNK N   1      30.320  16.688   7.523  0.00  0.00    -0.353 OA
HETATM   21  C   UNK N   1      31.097  17.006   8.611  0.00  0.00     0.210 C 
ENDBRANCH  17  20
BRANCH  18  22
HETATM   22  O   UNK N   1      29.976  16.674   4.684  0.00  0.00    -0.353 OA
HETATM   23  C   UNK N   1      31.116  17.021   3.996  0.00  0.00     0.210 C 
ENDBRANCH  18  22
ENDBRANCH   8   9
ENDBRANCH   4   8
BRANCH   6  24
HETATM   24  N   UNK N   1      21.271  18.076   3.918  0.00  0.00    -0.321 N 
HETATM   25  C   UNK N   1      20.318  17.562   3.215  0.00  0.00     0.223 C 
ATOM     26  HN  UNK N   1      21.070  18.156   4.916  1.00  0.00     0.169 HD
BRANCH  25  27
HETATM   27  N   UNK N   1      20.485  17.141   1.865  0.00  0.00    -0.307 N 
ATOM     28  HN  UNK N   1      20.654  17.854   1.155  1.00  0.00     0.171 HD
BRANCH  27  29
HETATM   29  C   UNK N   1      20.435  15.910   1.494  0.00  0.00     0.131 A 
HETATM   30  C   UNK N   1      21.512  15.078   1.242  0.00  0.00     0.084 A 
HETATM   31  C   UNK N   1      20.902  13.874   0.957  0.00  0.00     0.076 A 
HETATM   32  C   UNK N   1      21.596  12.608   0.608  0.00  0.00     0.079 C 
HETATM   33  O   UNK N   1      19.599  14.011   1.051  0.00  0.00    -0.241 OA
HETATM   34  N   UNK N   1      19.283  15.230   1.376  0.00  0.00    -0.245 N 
HETATM   35  H   UNK N   1      18.376  15.585   1.509  0.00  0.00     0.196 HD
ENDBRANCH  27  29
ENDBRANCH  25  27
BRANCH  25  36
HETATM   36  O   UNK N   1      19.119  17.382   3.798  0.00  0.00    -0.332 OA
HETATM   37  H   UNK N   1      18.593  16.632   3.998  0.00  0.00     0.220 HD
ENDBRANCH  25  36
ENDBRANCH   6  24
TORSDOF 8
ENDMDL
MODEL 5
REMARK VINA RESULT:      -7.4      2.915      4.528
REMARK  8 active torsions:
REMARK  status: ('A' for Active; 'I' for Inactive)
REMARK    1  A    between atoms: O_34  and  C_13 
REMARK    2  A    between atoms: N_26  and  C_16 
REMARK    3  A    between atoms: O_34  and  C_18 
REMARK    4  A    between atoms: O_32  and  C_19 
REMARK    5  A    between atoms: O_33  and  C_20 
REMARK    6  A    between atoms: N_28  and  C_21 
REMARK    7  A    between atoms: N_28  and  C_22 
REMARK    8  A    between atoms: O_31  and  C_22 
ROOT
HETATM    1  C   UNK N   1      27.055  17.638   4.382  0.00  0.00     0.039 A 
HETATM    2  C   UNK N   1      26.229  18.497   3.661  0.00  0.00     0.034 A 
HETATM    3  C   UNK N   1      27.454  19.390   5.998  0.00  0.00     0.063 A 
HETATM    4  C   UNK N   1      27.624  18.059   5.582  0.00  0.00     0.077 A 
HETATM    5  C   UNK N   1      26.642  20.268   5.272  0.00  0.00     0.063 A 
HETATM    6  C   UNK N   1      25.975  19.799   4.109  0.00  0.00     0.057 A 
HETATM    7 Cl   UNK N   1      26.315  21.832   6.005  0.00  0.00    -0.082 Cl
ENDROOT
BRANCH   4   8
HETATM    8  O   UNK N   1      28.060  17.111   6.450  0.00  0.00    -0.310 OA
BRANCH   8   9
HETATM    9  C   UNK N   1      29.015  17.448   7.376  0.00  0.00     0.090 A 
HETATM   10  C   UNK N   1      28.636  17.863   8.670  0.00  0.00     0.055 A 
HETATM   11  C   UNK N   1      29.588  18.121   9.645  0.00  0.00     0.091 A 
HETATM   12  N   UNK N   1      30.902  17.950   9.366  0.00  0.00    -0.365 N 
HETATM   13  C   UNK N   1      31.323  17.551   8.139  0.00  0.00     0.048 A 
ATOM     14  HN  UNK N   1      31.592  18.126  10.097  1.00  0.00     0.165 HD
HETATM   15  C   UNK N   1      32.681  17.357   7.921  0.00  0.00     0.070 A 
HETATM   16  C   UNK N   1      30.390  17.303   7.103  0.00  0.00     0.027 A 
HETATM   17  C   UNK N   1      33.161  16.927   6.686  0.00  0.00     0.103 A 
HETATM   18  C   UNK N   1      32.241  16.693   5.625  0.00  0.00     0.102 A 
HETATM   19  C   UNK N   1      30.858  16.878   5.854  0.00  0.00     0.056 A 
BRANCH  17  20
HETATM   20  O   UNK N   1      34.505  16.755   6.572  0.00  0.00    -0.353 OA
HETATM   21  C   UNK N   1      35.181  15.569   6.727  0.00  0.00     0.210 C 
ENDBRANCH  17  20
BRANCH  18  22
HETATM   22  O   UNK N   1      32.690  16.297   4.410  0.00  0.00    -0.353 OA
HETATM   23  C   UNK N   1      32.510  17.025   3.256  0.00  0.00     0.210 C 
ENDBRANCH  18  22
ENDBRANCH   8   9
ENDBRANCH   4   8
BRANCH   6  24
HETATM   24  N   UNK N   1      24.875  20.488   3.515  0.00  0.00    -0.321 N 
HETATM   25  C   UNK N   1      23.629  20.163   3.422  0.00  0.00     0.223 C 
ATOM     26  HN  UNK N   1      25.114  21.387   3.095  1.00  0.00     0.169 HD
BRANCH  25  27
HETATM   27  N   UNK N   1      23.048  19.084   4.146  0.00  0.00    -0.307 N 
ATOM     28  HN  UNK N   1      23.471  18.817   5.035  1.00  0.00     0.171 HD
BRANCH  27  29
HETATM   29  C   UNK N   1      22.018  18.429   3.740  0.00  0.00     0.131 A 
HETATM   30  C   UNK N   1      21.965  17.082   3.425  0.00  0.00     0.084 A 
HETATM   31  C   UNK N   1      20.632  16.895   3.126  0.00  0.00     0.076 A 
HETATM   32  C   UNK N   1      20.002  15.614   2.715  0.00  0.00     0.079 C 
HETATM   33  O   UNK N   1      19.987  18.031   3.270  0.00  0.00    -0.241 OA
HETATM   34  N   UNK N   1      20.797  18.978   3.642  0.00  0.00    -0.245 N 
HETATM   35  H   UNK N   1      20.560  19.916   3.818  0.00  0.00     0.196 HD
ENDBRANCH  27  29
ENDBRANCH  25  27
BRANCH  25  36
HETATM   36  O   UNK N   1      22.832  20.903   2.630  0.00  0.00    -0.332 OA
HETATM   37  H   UNK N   1      22.931  21.299   1.785  0.00  0.00     0.220 HD
ENDBRANCH  25  36
ENDBRANCH   6  24
TORSDOF 8
ENDMDL
MODEL 6
REMARK VINA RESULT:      -7.4     11.110     13.866
REMARK  8 active torsions:
REMARK  status: ('A' for Active; 'I' for Inactive)
REMARK    1  A    between atoms: O_34  and  C_13 
REMARK    2  A    between atoms: N_26  and  C_16 
REMARK    3  A    between atoms: O_34  and  C_18 
REMARK    4  A    between atoms: O_32  and  C_19 
REMARK    5  A    between atoms: O_33  and  C_20 
REMARK    6  A    between atoms: N_28  and  C_21 
REMARK    7  A    between atoms: N_28  and  C_22 
REMARK    8  A    between atoms: O_31  and  C_22 
ROOT
HETATM    1  C   UNK N   1      28.450  23.234  -1.943  0.00  0.00     0.039 A 
HETATM    2  C   UNK N   1      29.758  22.769  -1.835  0.00  0.00     0.034 A 
HETATM    3  C   UNK N   1      29.047  24.427  -3.957  0.00  0.00     0.063 A 
HETATM    4  C   UNK N   1      28.074  24.015  -3.033  0.00  0.00     0.077 A 
HETATM    5  C   UNK N   1      30.369  23.981  -3.850  0.00  0.00     0.063 A 
HETATM    6  C   UNK N   1      30.721  23.093  -2.797  0.00  0.00     0.057 A 
HETATM    7 Cl   UNK N   1      31.446  24.367  -5.184  0.00  0.00    -0.082 Cl
ENDROOT
BRANCH   4   8
HETATM    8  O   UNK N   1      26.752  24.101  -3.332  0.00  0.00    -0.310 OA
BRANCH   8   9
HETATM    9  C   UNK N   1      26.312  25.151  -4.098  0.00  0.00     0.090 A 
HETATM   10  C   UNK N   1      26.213  26.444  -3.544  0.00  0.00     0.055 A 
HETATM   11  C   UNK N   1      25.857  27.532  -4.328  0.00  0.00     0.091 A 
HETATM   12  N   UNK N   1      25.625  27.362  -5.652  0.00  0.00    -0.365 N 
HETATM   13  C   UNK N   1      25.710  26.141  -6.238  0.00  0.00     0.048 A 
ATOM     14  HN  UNK N   1      25.382  28.173  -6.222  1.00  0.00     0.165 HD
HETATM   15  C   UNK N   1      25.497  26.032  -7.606  0.00  0.00     0.070 A 
HETATM   16  C   UNK N   1      26.041  24.997  -5.473  0.00  0.00     0.027 A 
HETATM   17  C   UNK N   1      25.593  24.805  -8.258  0.00  0.00     0.103 A 
HETATM   18  C   UNK N   1      25.904  23.639  -7.503  0.00  0.00     0.102 A 
HETATM   19  C   UNK N   1      26.133  23.754  -6.112  0.00  0.00     0.056 A 
BRANCH  17  20
HETATM   20  O   UNK N   1      25.378  24.801  -9.600  0.00  0.00    -0.353 OA
HETATM   21  C   UNK N   1      25.762  25.785 -10.479  0.00  0.00     0.210 C 
ENDBRANCH  17  20
BRANCH  18  22
HETATM   22  O   UNK N   1      25.979  22.432  -8.115  0.00  0.00    -0.353 OA
HETATM   23  C   UNK N   1      25.074  21.416  -7.908  0.00  0.00     0.210 C 
ENDBRANCH  18  22
ENDBRANCH   8   9
ENDBRANCH   4   8
BRANCH   6  24
HETATM   24  N   UNK N   1      31.920  22.320  -2.805  0.00  0.00    -0.321 N 
HETATM   25  C   UNK N   1      32.140  21.111  -3.202  0.00  0.00     0.223 C 
ATOM     26  HN  UNK N   1      32.740  22.803  -2.435  1.00  0.00     0.169 HD
BRANCH  25  27
HETATM   27  N   UNK N   1      31.204  20.359  -3.967  0.00  0.00    -0.307 N 
ATOM     28  HN  UNK N   1      30.576  19.725  -3.473  1.00  0.00     0.171 HD
BRANCH  27  29
HETATM   29  C   UNK N   1      31.107  20.438  -5.247  0.00  0.00     0.131 A 
HETATM   30  C   UNK N   1      30.037  20.942  -5.966  0.00  0.00     0.084 A 
HETATM   31  C   UNK N   1      30.482  20.858  -7.269  0.00  0.00     0.076 A 
HETATM   32  C   UNK N   1      29.724  21.270  -8.477  0.00  0.00     0.079 C 
HETATM   33  O   UNK N   1      31.699  20.361  -7.284  0.00  0.00    -0.241 OA
HETATM   34  N   UNK N   1      32.106  20.098  -6.077  0.00  0.00    -0.245 N 
HETATM   35  H   UNK N   1      32.979  19.723  -5.822  0.00  0.00     0.196 HD
ENDBRANCH  27  29
ENDBRANCH  25  27
BRANCH  25  36
HETATM   36  O   UNK N   1      33.327  20.548  -2.911  0.00  0.00    -0.332 OA
HETATM   37  H   UNK N   1      33.928  20.617  -2.194  0.00  0.00     0.220 HD
ENDBRANCH  25  36
ENDBRANCH   6  24
TORSDOF 8
ENDMDL
MODEL 7
REMARK VINA RESULT:      -7.2      4.834     11.903
REMARK  8 active torsions:
REMARK  status: ('A' for Active; 'I' for Inactive)
REMARK    1  A    between atoms: O_34  and  C_13 
REMARK    2  A    between atoms: N_26  and  C_16 
REMARK    3  A    between atoms: O_34  and  C_18 
REMARK    4  A    between atoms: O_32  and  C_19 
REMARK    5  A    between atoms: O_33  and  C_20 
REMARK    6  A    between atoms: N_28  and  C_21 
REMARK    7  A    between atoms: N_28  and  C_22 
REMARK    8  A    between atoms: O_31  and  C_22 
ROOT
HETATM    1  C   UNK N   1      32.705  16.987   4.602  0.00  0.00     0.039 A 
HETATM    2  C   UNK N   1      33.599  17.142   5.658  0.00  0.00     0.034 A 
HETATM    3  C   UNK N   1      30.857  17.211   6.142  0.00  0.00     0.063 A 
HETATM    4  C   UNK N   1      31.334  17.079   4.828  0.00  0.00     0.077 A 
HETATM    5  C   UNK N   1      31.745  17.349   7.215  0.00  0.00     0.063 A 
HETATM    6  C   UNK N   1      33.144  17.366   6.962  0.00  0.00     0.057 A 
HETATM    7 Cl   UNK N   1      31.044  17.740   8.778  0.00  0.00    -0.082 Cl
ENDROOT
BRANCH   4   8
HETATM    8  O   UNK N   1      30.527  17.341   3.767  0.00  0.00    -0.310 OA
BRANCH   8   9
HETATM    9  C   UNK N   1      29.495  16.480   3.491  0.00  0.00     0.090 A 
HETATM   10  C   UNK N   1      29.755  15.121   3.221  0.00  0.00     0.055 A 
HETATM   11  C   UNK N   1      28.718  14.219   3.028  0.00  0.00     0.091 A 
HETATM   12  N   UNK N   1      27.433  14.638   3.126  0.00  0.00    -0.365 N 
HETATM   13  C   UNK N   1      27.126  15.934   3.388  0.00  0.00     0.048 A 
ATOM     14  HN  UNK N   1      26.679  13.962   3.001  1.00  0.00     0.165 HD
HETATM   15  C   UNK N   1      25.792  16.299   3.513  0.00  0.00     0.070 A 
HETATM   16  C   UNK N   1      28.150  16.896   3.562  0.00  0.00     0.027 A 
HETATM   17  C   UNK N   1      25.425  17.612   3.801  0.00  0.00     0.103 A 
HETATM   18  C   UNK N   1      26.438  18.598   3.960  0.00  0.00     0.102 A 
HETATM   19  C   UNK N   1      27.797  18.221   3.844  0.00  0.00     0.056 A 
BRANCH  17  20
HETATM   20  O   UNK N   1      24.095  17.870   3.915  0.00  0.00    -0.353 OA
HETATM   21  C   UNK N   1      23.408  18.051   5.092  0.00  0.00     0.210 C 
ENDBRANCH  17  20
BRANCH  18  22
HETATM   22  O   UNK N   1      26.101  19.885   4.217  0.00  0.00    -0.353 OA
HETATM   23  C   UNK N   1      26.400  20.530   5.396  0.00  0.00     0.210 C 
ENDBRANCH  18  22
ENDBRANCH   8   9
ENDBRANCH   4   8
BRANCH   6  24
HETATM   24  N   UNK N   1      34.096  17.845   7.911  0.00  0.00    -0.321 N 
HETATM   25  C   UNK N   1      34.701  17.238   8.877  0.00  0.00     0.223 C 
ATOM     26  HN  UNK N   1      34.339  18.831   7.809  1.00  0.00     0.169 HD
BRANCH  25  27
HETATM   27  N   UNK N   1      34.694  15.823   9.035  0.00  0.00    -0.307 N 
ATOM     28  HN  UNK N   1      34.574  15.245   8.202  1.00  0.00     0.171 HD
BRANCH  27  29
HETATM   29  C   UNK N   1      34.831  15.234  10.170  0.00  0.00     0.131 A 
HETATM   30  C   UNK N   1      36.022  14.898  10.789  0.00  0.00     0.084 A 
HETATM   31  C   UNK N   1      35.600  14.368  11.990  0.00  0.00     0.076 A 
HETATM   32  C   UNK N   1      36.476  13.837  13.065  0.00  0.00     0.079 C 
HETATM   33  O   UNK N   1      34.288  14.410  12.049  0.00  0.00    -0.241 OA
HETATM   34  N   UNK N   1      33.792  14.930  10.965  0.00  0.00    -0.245 N 
HETATM   35  H   UNK N   1      32.840  15.074  10.766  0.00  0.00     0.196 HD
ENDBRANCH  27  29
ENDBRANCH  25  27
BRANCH  25  36
HETATM   36  O   UNK N   1      35.405  17.975   9.755  0.00  0.00    -0.332 OA
HETATM   37  H   UNK N   1      35.572  18.892   9.856  0.00  0.00     0.220 HD
ENDBRANCH  25  36
ENDBRANCH   6  24
TORSDOF 8
ENDMDL
MODEL 8
REMARK VINA RESULT:      -7.2      2.739      5.024
REMARK  8 active torsions:
REMARK  status: ('A' for Active; 'I' for Inactive)
REMARK    1  A    between atoms: O_34  and  C_13 
REMARK    2  A    between atoms: N_26  and  C_16 
REMARK    3  A    between atoms: O_34  and  C_18 
REMARK    4  A    between atoms: O_32  and  C_19 
REMARK    5  A    between atoms: O_33  and  C_20 
REMARK    6  A    between atoms: N_28  and  C_21 
REMARK    7  A    between atoms: N_28  and  C_22 
REMARK    8  A    between atoms: O_31  and  C_22 
ROOT
HETATM    1  C   UNK N   1      28.144  18.994   6.671  0.00  0.00     0.039 A 
HETATM    2  C   UNK N   1      27.513  19.729   5.671  0.00  0.00     0.034 A 
HETATM    3  C   UNK N   1      27.115  16.977   5.829  0.00  0.00     0.063 A 
HETATM    4  C   UNK N   1      27.997  17.610   6.719  0.00  0.00     0.077 A 
HETATM    5  C   UNK N   1      26.460  17.708   4.831  0.00  0.00     0.063 A 
HETATM    6  C   UNK N   1      26.702  19.103   4.717  0.00  0.00     0.057 A 
HETATM    7 Cl   UNK N   1      25.566  16.784   3.631  0.00  0.00    -0.082 Cl
ENDROOT
BRANCH   4   8
HETATM    8  O   UNK N   1      28.920  16.893   7.410  0.00  0.00    -0.310 OA
BRANCH   8   9
HETATM    9  C   UNK N   1      30.244  17.240   7.305  0.00  0.00     0.090 A 
HETATM   10  C   UNK N   1      30.913  17.832   8.396  0.00  0.00     0.055 A 
HETATM   11  C   UNK N   1      32.271  18.106   8.337  0.00  0.00     0.091 A 
HETATM   12  N   UNK N   1      32.978  17.780   7.229  0.00  0.00    -0.365 N 
HETATM   13  C   UNK N   1      32.385  17.206   6.151  0.00  0.00     0.048 A 
ATOM     14  HN  UNK N   1      33.980  17.970   7.204  1.00  0.00     0.165 HD
HETATM   15  C   UNK N   1      33.166  16.859   5.056  0.00  0.00     0.070 A 
HETATM   16  C   UNK N   1      30.996  16.934   6.153  0.00  0.00     0.027 A 
HETATM   17  C   UNK N   1      32.609  16.249   3.934  0.00  0.00     0.103 A 
HETATM   18  C   UNK N   1      31.211  15.986   3.908  0.00  0.00     0.102 A 
HETATM   19  C   UNK N   1      30.420  16.328   5.030  0.00  0.00     0.056 A 
BRANCH  17  20
HETATM   20  O   UNK N   1      33.456  15.938   2.917  0.00  0.00    -0.353 OA
HETATM   21  C   UNK N   1      34.002  14.700   2.674  0.00  0.00     0.210 C 
ENDBRANCH  17  20
BRANCH  18  22
HETATM   22  O   UNK N   1      30.646  15.414   2.817  0.00  0.00    -0.353 OA
HETATM   23  C   UNK N   1      30.061  14.169   2.826  0.00  0.00     0.210 C 
ENDBRANCH  18  22
ENDBRANCH   8   9
ENDBRANCH   4   8
BRANCH   6  24
HETATM   24  N   UNK N   1      26.373  19.854   3.549  0.00  0.00    -0.321 N 
HETATM   25  C   UNK N   1      25.228  20.229   3.084  0.00  0.00     0.223 C 
ATOM     26  HN  UNK N   1      27.176  20.141   2.988  1.00  0.00     0.169 HD
BRANCH  25  27
HETATM   27  N   UNK N   1      24.019  20.146   3.830  0.00  0.00    -0.307 N 
ATOM     28  HN  UNK N   1      24.043  20.398   4.818  1.00  0.00     0.171 HD
BRANCH  27  29
HETATM   29  C   UNK N   1      22.896  19.773   3.324  0.00  0.00     0.131 A 
HETATM   30  C   UNK N   1      22.182  18.632   3.646  0.00  0.00     0.084 A 
HETATM   31  C   UNK N   1      21.045  18.761   2.877  0.00  0.00     0.076 A 
HETATM   32  C   UNK N   1      19.913  17.801   2.827  0.00  0.00     0.079 C 
HETATM   33  O   UNK N   1      21.105  19.880   2.190  0.00  0.00    -0.241 OA
HETATM   34  N   UNK N   1      22.211  20.516   2.440  0.00  0.00    -0.245 N 
HETATM   35  H   UNK N   1      22.492  21.377   2.055  0.00  0.00     0.196 HD
ENDBRANCH  27  29
ENDBRANCH  25  27
BRANCH  25  36
HETATM   36  O   UNK N   1      25.182  20.758   1.848  0.00  0.00    -0.332 OA
HETATM   37  H   UNK N   1      24.719  20.545   1.060  0.00  0.00     0.220 HD
ENDBRANCH  25  36
ENDBRANCH   6  24
TORSDOF 8
ENDMDL
MODEL 9
REMARK VINA RESULT:      -7.1      5.054     11.642
REMARK  8 active torsions:
REMARK  status: ('A' for Active; 'I' for Inactive)
REMARK    1  A    between atoms: O_34  and  C_13 
REMARK    2  A    between atoms: N_26  and  C_16 
REMARK    3  A    between atoms: O_34  and  C_18 
REMARK    4  A    between atoms: O_32  and  C_19 
REMARK    5  A    between atoms: O_33  and  C_20 
REMARK    6  A    between atoms: N_28  and  C_21 
REMARK    7  A    between atoms: N_28  and  C_22 
REMARK    8  A    between atoms: O_31  and  C_22 
ROOT
HETATM    1  C   UNK N   1      30.404  17.763   8.190  0.00  0.00     0.039 A 
HETATM    2  C   UNK N   1      31.673  18.095   8.657  0.00  0.00     0.034 A 
HETATM    3  C   UNK N   1      31.395  16.774   6.221  0.00  0.00     0.063 A 
HETATM    4  C   UNK N   1      30.261  17.050   7.002  0.00  0.00     0.077 A 
HETATM    5  C   UNK N   1      32.674  17.120   6.670  0.00  0.00     0.063 A 
HETATM    6  C   UNK N   1      32.821  17.747   7.937  0.00  0.00     0.057 A 
HETATM    7 Cl   UNK N   1      34.032  16.523   5.728  0.00  0.00    -0.082 Cl
ENDROOT
BRANCH   4   8
HETATM    8  O   UNK N   1      29.093  16.391   6.788  0.00  0.00    -0.310 OA
BRANCH   8   9
HETATM    9  C   UNK N   1      28.517  16.449   5.544  0.00  0.00     0.090 A 
HETATM   10  C   UNK N   1      28.673  15.381   4.637  0.00  0.00     0.055 A 
HETATM   11  C   UNK N   1      28.023  15.385   3.411  0.00  0.00     0.091 A 
HETATM   12  N   UNK N   1      27.205  16.413   3.084  0.00  0.00    -0.365 N 
HETATM   13  C   UNK N   1      27.016  17.465   3.921  0.00  0.00     0.048 A 
ATOM     14  HN  UNK N   1      26.718  16.396   2.188  1.00  0.00     0.165 HD
HETATM   15  C   UNK N   1      26.137  18.474   3.549  0.00  0.00     0.070 A 
HETATM   16  C   UNK N   1      27.680  17.520   5.170  0.00  0.00     0.027 A 
HETATM   17  C   UNK N   1      25.893  19.564   4.382  0.00  0.00     0.103 A 
HETATM   18  C   UNK N   1      26.567  19.649   5.632  0.00  0.00     0.102 A 
HETATM   19  C   UNK N   1      27.452  18.613   6.014  0.00  0.00     0.056 A 
BRANCH  17  20
HETATM   20  O   UNK N   1      25.009  20.496   3.936  0.00  0.00    -0.353 OA
HETATM   21  C   UNK N   1      23.987  20.273   3.044  0.00  0.00     0.210 C 
ENDBRANCH  17  20
BRANCH  18  22
HETATM   22  O   UNK N   1      26.361  20.712   6.446  0.00  0.00    -0.353 OA
HETATM   23  C   UNK N   1      27.119  21.860   6.407  0.00  0.00     0.210 C 
ENDBRANCH  18  22
ENDBRANCH   8   9
ENDBRANCH   4   8
BRANCH   6  24
HETATM   24  N   UNK N   1      34.069  17.816   8.627  0.00  0.00    -0.321 N 
HETATM   25  C   UNK N   1      34.521  17.126   9.620  0.00  0.00     0.223 C 
ATOM     26  HN  UNK N   1      34.709  18.529   8.276  1.00  0.00     0.169 HD
BRANCH  25  27
HETATM   27  N   UNK N   1      33.897  15.937  10.091  0.00  0.00    -0.307 N 
ATOM     28  HN  UNK N   1      33.087  16.027  10.705  1.00  0.00     0.171 HD
BRANCH  27  29
HETATM   29  C   UNK N   1      34.298  14.754   9.783  0.00  0.00     0.131 A 
HETATM   30  C   UNK N   1      35.014  14.391   8.656  0.00  0.00     0.084 A 
HETATM   31  C   UNK N   1      35.238  13.046   8.860  0.00  0.00     0.076 A 
HETATM   32  C   UNK N   1      35.974  12.136   7.946  0.00  0.00     0.079 C 
HETATM   33  O   UNK N   1      34.706  12.683  10.006  0.00  0.00    -0.241 OA
HETATM   34  N   UNK N   1      34.131  13.693  10.589  0.00  0.00    -0.245 N 
HETATM   35  H   UNK N   1      33.664  13.682  11.455  0.00  0.00     0.196 HD
ENDBRANCH  27  29
ENDBRANCH  25  27
BRANCH  25  36
HETATM   36  O   UNK N   1      35.657  17.531  10.215  0.00  0.00    -0.332 OA
HETATM   37  H   UNK N   1      36.454  17.104  10.466  0.00  0.00     0.220 HD
ENDBRANCH  25  36
ENDBRANCH   6  24
TORSDOF 8
ENDMDL
