REMARK  7 active torsions:
REMARK  status: ('A' for Active; 'I' for Inactive)
REMARK    1  A    between atoms: C_15  and  C_3 
REMARK    2  A    between atoms: C_16  and  C_4 
REMARK    3  A    between atoms: C_6  and  C_5 
REMARK    4  A    between atoms: N_22  and  C_5 
REMARK    5  A    between atoms: O_23  and  C_6 
REMARK    6  A    between atoms: O_24  and  C_14 
REMARK    7  A    between atoms: O_24  and  C_17 
ROOT
HETATM    1  C   UNK N   1       4.794   6.532  -0.104  0.00  0.00     0.044 C 
HETATM    2  C   UNK N   1       2.452   6.644   0.456  0.00  0.00     0.032 C 
HETATM    3  C   UNK N   1       3.709   4.676   0.969  0.00  0.00     0.032 C 
HETATM    4  C   UNK N   1       3.542   8.636  -0.387  0.00  0.00     0.099 C 
HETATM    5  C   UNK N   1       6.117   4.573   0.508  0.00  0.00     0.099 C 
HETATM    6  C   UNK N   1       3.602   7.266   0.005  0.00  0.00     0.045 C 
HETATM    7  C   UNK N   1       4.861   5.253   0.459  0.00  0.00     0.045 C 
HETATM    8  C   UNK N   1       2.508   5.275   0.570  0.00  0.00     0.177 C 
HETATM    9  N   UNK N   1       3.483   9.747  -0.702  0.00  0.00    -0.191 NA
HETATM   10  N   UNK N   1       7.153   4.059   0.526  0.00  0.00    -0.191 NA
ENDROOT
BRANCH   8  11
HETATM   11  O   UNK N   1       2.000   4.695  -0.540  0.00  0.00    -0.334 OA
BRANCH  11  12
HETATM   12  C   UNK N   1       2.015   3.369  -0.646  0.00  0.00     0.118 A 
HETATM   13  C   UNK N   1       3.027   2.477  -1.001  0.00  0.00     0.061 A 
HETATM   14  N   UNK N   1       2.604   1.242  -0.672  0.00  0.00    -0.300 N 
HETATM   15  N   UNK N   1       1.389   1.350  -0.146  0.00  0.00    -0.291 N 
ATOM     16  HN  UNK N   1       3.125   0.375  -0.804  1.00  0.00     0.187 HD
HETATM   17  C   UNK N   1       1.012   2.643  -0.146  0.00  0.00     0.063 A 
BRANCH  13  18
HETATM   18  C   UNK N   1       4.423   2.770  -1.482  0.00  0.00     0.057 C 
HETATM   19  C   UNK N   1       5.407   1.707  -0.993  0.00  0.00     0.011 C 
ENDBRANCH  13  18
BRANCH  15  20
HETATM   20  C   UNK N   1       0.689   0.205   0.415  0.00  0.00     0.175 C 
BRANCH  20  21
HETATM   21  C   UNK N   1      -0.713   0.526   0.888  0.00  0.00     0.185 C 
BRANCH  21  22
HETATM   22  O   UNK N   1      -1.528  -0.567   0.630  0.00  0.00    -0.399 OA
HETATM   23  H   UNK N   1      -2.475  -0.455   0.450  0.00  0.00     0.209 HD
ENDBRANCH  21  22
ENDBRANCH  20  21
ENDBRANCH  15  20
BRANCH  17  24
HETATM   24  C   UNK N   1      -0.211   3.261   0.468  0.00  0.00     0.057 C 
HETATM   25  C   UNK N   1      -1.269   3.562  -0.576  0.00  0.00     0.011 C 
ENDBRANCH  17  24
ENDBRANCH  11  12
ENDBRANCH   8  11
TORSDOF 7
