REMARK  29 active torsions:
REMARK  status: ('A' for Active; 'I' for Inactive)
REMARK    1  A    between atoms: C_12  and  C_14 
REMARK    2  A    between atoms: C_18  and  S_20 
REMARK    3  A    between atoms: S_20  and  N_23 
REMARK    4  A    between atoms: N_23  and  C_24 
REMARK    5  A    between atoms: C_24  and  C_25 
REMARK    6  A    between atoms: C_25  and  O_26 
REMARK    7  A    between atoms: O_26  and  C_27 
REMARK    8  A    between atoms: C_27  and  C_28 
REMARK    9  A    between atoms: C_28  and  O_29 
REMARK   10  A    between atoms: O_29  and  C_30 
REMARK   11  A    between atoms: C_30  and  C_31 
REMARK   12  A    between atoms: C_31  and  N_32 
REMARK       I    between atoms: N_32  and  C_33 
REMARK       I    between atoms: C_33  and  N_35 
REMARK   13  A    between atoms: N_35  and  C_36 
REMARK   14  A    between atoms: C_36  and  C_37 
REMARK   15  A    between atoms: C_37  and  C_38 
REMARK   16  A    between atoms: C_38  and  C_39 
REMARK   17  A    between atoms: C_39  and  N_40 
REMARK       I    between atoms: N_40  and  C_41 
REMARK       I    between atoms: C_41  and  N_43 
REMARK   18  A    between atoms: N_43  and  C_44 
REMARK   19  A    between atoms: C_44  and  C_45 
REMARK   20  A    between atoms: C_45  and  O_46 
REMARK   21  A    between atoms: O_46  and  C_47 
REMARK   22  A    between atoms: C_47  and  C_48 
REMARK   23  A    between atoms: C_48  and  O_49 
REMARK   24  A    between atoms: O_49  and  C_50 
REMARK   25  A    between atoms: C_50  and  C_51 
REMARK   26  A    between atoms: C_51  and  N_52 
REMARK   27  A    between atoms: N_52  and  S_53 
REMARK   28  A    between atoms: S_53  and  C_56 
REMARK   29  A    between atoms: C_62  and  C_60 
ROOT
HETATM    1  C   UNK N   1     -14.545  -2.103  -0.381  0.00  0.00     0.021 C 
ENDROOT
BRANCH   1   2
HETATM    2  C   UNK N   1     -15.407  -2.151   0.895  0.00  0.00     0.124 C 
BRANCH   2   3
HETATM    3  N   UNK N   1     -15.798  -0.843   1.383  0.00  0.00    -0.343 N 
HETATM    4  C   UNK N   1     -16.554   0.013   0.655  0.00  0.00     0.316 C 
HETATM    5  N   UNK N   1     -16.990  -0.342  -0.582  0.00  0.00    -0.341 N 
HETATM    6  O   UNK N   1     -16.833   1.109   1.119  0.00  0.00    -0.247 OA
HETATM    7  H   UNK N   1     -16.723  -1.218  -0.945  0.00  0.00     0.164 HD
HETATM    8  H   UNK N   1     -15.502  -0.565   2.280  0.00  0.00     0.164 HD
BRANCH   5   9
HETATM    9  C   UNK N   1     -17.826   0.513  -1.383  0.00  0.00     0.150 C 
BRANCH   9  10
HETATM   10  C   UNK N   1     -19.280   0.235  -1.047  0.00  0.00     0.187 C 
BRANCH  10  11
HETATM   11  O   UNK N   1     -19.501   0.512   0.303  0.00  0.00    -0.387 OA
BRANCH  11  12
HETATM   12  C   UNK N   1     -19.712  -0.729   0.909  0.00  0.00     0.193 C 
BRANCH  12  13
HETATM   13  C   UNK N   1     -20.846  -0.612   1.913  0.00  0.00     0.193 C 
BRANCH  13  14
HETATM   14  O   UNK N   1     -22.053  -0.347   1.257  0.00  0.00    -0.387 OA
BRANCH  14  15
HETATM   15  C   UNK N   1     -22.194   1.043   1.289  0.00  0.00     0.188 C 
BRANCH  15  16
HETATM   16  C   UNK N   1     -22.442   1.564  -0.115  0.00  0.00     0.158 C 
BRANCH  16  17
HETATM   17  N   UNK N   1     -23.864   1.817  -0.304  0.00  0.00    -0.313 N 
HETATM   18  H   UNK N   1     -24.338   2.683  -0.050  0.00  0.00     0.172 HD
BRANCH  17  19
HETATM   19  S   UNK N   1     -24.658   0.406  -1.040  0.00  0.00     0.258 S 
HETATM   20  O   UNK N   1     -23.535  -0.545  -1.493  0.00  0.00    -0.201 OA
HETATM   21  O   UNK N   1     -25.191   0.906  -2.390  0.00  0.00    -0.201 OA
BRANCH  19  22
HETATM   22  C   UNK N   1     -25.914  -0.463  -0.108  0.00  0.00     0.080 A 
HETATM   23  C   UNK N   1     -27.045   0.194   0.385  0.00  0.00     0.025 A 
HETATM   24  C   UNK N   1     -27.989  -0.517   1.138  0.00  0.00     0.002 A 
HETATM   25  C   UNK N   1     -27.790  -1.878   1.413  0.00  0.00     0.008 A 
HETATM   26  C   UNK N   1     -26.665  -2.547   0.904  0.00  0.00    -0.046 A 
HETATM   27  C   UNK N   1     -25.740  -1.819   0.145  0.00  0.00     0.033 A 
BRANCH  26  28
HETATM   28  C   UNK N   1     -26.396  -3.999   1.274  0.00  0.00     0.080 C 
HETATM   29  C   UNK N   1     -25.156  -4.614   0.620  0.00  0.00    -0.037 A 
HETATM   30  C   UNK N   1     -25.242  -5.838  -0.079  0.00  0.00    -0.001 A 
HETATM   31  C   UNK N   1     -23.920  -3.952   0.681  0.00  0.00     0.032 A 
HETATM   32  C   UNK N   1     -26.556  -6.556  -0.143  0.00  0.00     0.312 C 
HETATM   33  C   UNK N   1     -24.102  -6.374  -0.704  0.00  0.00     0.044 A 
HETATM   34  N   UNK N   1     -27.648  -5.591  -0.177  0.00  0.00     0.089 N 
HETATM   35  C   UNK N   1     -28.876  -6.362  -0.240  0.00  0.00     0.310 C 
HETATM   36  C   UNK N   1     -27.649  -4.885   1.102  0.00  0.00     0.286 C 
HETATM   37  C   UNK N   1     -22.890  -5.683  -0.652  0.00  0.00     0.048 A 
HETATM   38 Cl   UNK N   1     -24.163  -7.906  -1.562  0.00  0.00    -0.084 Cl
HETATM   39  C   UNK N   1     -22.800  -4.475   0.036  0.00  0.00     0.036 A 
HETATM   40 Cl   UNK N   1     -21.291  -3.594   0.051  0.00  0.00    -0.084 Cl
ENDBRANCH  26  28
ENDBRANCH  19  22
ENDBRANCH  17  19
ENDBRANCH  16  17
ENDBRANCH  15  16
ENDBRANCH  14  15
ENDBRANCH  13  14
ENDBRANCH  12  13
ENDBRANCH  11  12
ENDBRANCH  10  11
ENDBRANCH   9  10
ENDBRANCH   5   9
ENDBRANCH   2   3
ENDBRANCH   1   2
BRANCH   1  41
HETATM   41  C   UNK N   1     -14.052  -0.714  -0.783  0.00  0.00     0.021 C 
BRANCH  41  42
HETATM   42  C   UNK N   1     -13.183  -0.133   0.319  0.00  0.00     0.124 C 
BRANCH  42  43
HETATM   43  N   UNK N   1     -11.876   0.150  -0.196  0.00  0.00    -0.343 N 
HETATM   44  C   UNK N   1     -11.083  -0.812  -0.733  0.00  0.00     0.316 C 
HETATM   45  O   UNK N   1     -11.450  -1.976  -0.771  0.00  0.00    -0.247 OA
HETATM   46  N   UNK N   1      -9.872  -0.479  -1.225  0.00  0.00    -0.341 N 
HETATM   47  H   UNK N   1      -9.347  -1.155  -1.711  0.00  0.00     0.164 HD
HETATM   48  H   UNK N   1     -11.541   1.075  -0.159  0.00  0.00     0.164 HD
BRANCH  46  49
HETATM   49  C   UNK N   1      -9.331   0.845  -1.053  0.00  0.00     0.150 C 
BRANCH  49  50
HETATM   50  C   UNK N   1      -8.536   0.922   0.254  0.00  0.00     0.187 C 
BRANCH  50  51
HETATM   51  O   UNK N   1      -9.172   0.198   1.277  0.00  0.00    -0.387 OA
BRANCH  51  52
HETATM   52  C   UNK N   1      -8.202  -0.678   1.786  0.00  0.00     0.193 C 
BRANCH  52  53
HETATM   53  C   UNK N   1      -8.251  -2.066   1.126  0.00  0.00     0.193 C 
BRANCH  53  54
HETATM   54  O   UNK N   1      -8.061  -1.964  -0.258  0.00  0.00    -0.387 OA
BRANCH  54  55
HETATM   55  C   UNK N   1      -7.051  -2.847  -0.640  0.00  0.00     0.188 C 
BRANCH  55  56
HETATM   56  C   UNK N   1      -6.265  -2.174  -1.761  0.00  0.00     0.158 C 
BRANCH  56  57
HETATM   57  N   UNK N   1      -4.829  -2.196  -1.514  0.00  0.00    -0.313 N 
HETATM   58  H   UNK N   1      -4.153  -2.687  -2.099  0.00  0.00     0.172 HD
BRANCH  57  59
HETATM   59  S   UNK N   1      -4.403  -1.257  -0.063  0.00  0.00     0.258 S 
HETATM   60  O   UNK N   1      -3.822  -2.371   0.819  0.00  0.00    -0.201 OA
HETATM   61  O   UNK N   1      -5.647  -0.961   0.771  0.00  0.00    -0.201 OA
BRANCH  59  62
HETATM   62  C   UNK N   1      -3.217   0.053   0.053  0.00  0.00     0.080 A 
HETATM   63  C   UNK N   1      -3.569   1.408   0.084  0.00  0.00     0.025 A 
HETATM   64  C   UNK N   1      -2.591   2.364   0.409  0.00  0.00     0.002 A 
HETATM   65  C   UNK N   1      -1.290   1.951   0.753  0.00  0.00     0.008 A 
HETATM   66  C   UNK N   1      -0.964   0.584   0.735  0.00  0.00    -0.046 A 
HETATM   67  C   UNK N   1      -1.941  -0.331   0.385  0.00  0.00     0.033 A 
BRANCH  66  68
HETATM   68  C   UNK N   1       0.362   0.057   1.233  0.00  0.00     0.080 C 
HETATM   69  C   UNK N   1       0.354  -1.480   1.398  0.00  0.00     0.286 C 
HETATM   70  N   UNK N   1       0.585  -2.103   0.101  0.00  0.00     0.089 N 
HETATM   71  C   UNK N   1       2.000  -1.930  -0.210  0.00  0.00     0.312 C 
HETATM   72  C   UNK N   1       0.322  -3.525   0.224  0.00  0.00     0.310 C 
HETATM   73  C   UNK N   1       2.366  -0.465  -0.245  0.00  0.00    -0.001 A 
HETATM   74  C   UNK N   1       1.550   0.491   0.411  0.00  0.00    -0.037 A 
HETATM   75  C   UNK N   1       3.525  -0.045  -0.917  0.00  0.00     0.044 A 
HETATM   76  C   UNK N   1       1.888   1.846   0.351  0.00  0.00     0.032 A 
HETATM   77  C   UNK N   1       3.025   2.256  -0.342  0.00  0.00     0.036 A 
HETATM   78  C   UNK N   1       3.848   1.314  -0.962  0.00  0.00     0.048 A 
HETATM   79 Cl   UNK N   1       3.432   3.955  -0.414  0.00  0.00    -0.084 Cl
HETATM   80 Cl   UNK N   1       4.595  -1.202  -1.695  0.00  0.00    -0.084 Cl
ENDBRANCH  66  68
ENDBRANCH  59  62
ENDBRANCH  57  59
ENDBRANCH  56  57
ENDBRANCH  55  56
ENDBRANCH  54  55
ENDBRANCH  53  54
ENDBRANCH  52  53
ENDBRANCH  51  52
ENDBRANCH  50  51
ENDBRANCH  49  50
ENDBRANCH  46  49
ENDBRANCH  42  43
ENDBRANCH  41  42
ENDBRANCH   1  41
TORSDOF 29
