MODEL 1
REMARK VINA RESULT:      -8.1      0.000      0.000
REMARK  6 active torsions:
REMARK  status: ('A' for Active; 'I' for Inactive)
REMARK    1  A    between atoms: C_4  and  N_8 
REMARK    2  A    between atoms: C_5  and  N_7 
REMARK       I    between atoms: N_8  and  C_9 
REMARK    3  A    between atoms: C_9  and  C_11 
REMARK    4  A    between atoms: C_14  and  C_17 
REMARK    5  A    between atoms: C_17  and  N_18 
REMARK       I    between atoms: N_18  and  C_19 
REMARK    6  A    between atoms: C_24  and  C_27 
ROOT
HETATM    1  C   UNK N   1      27.336  16.820   5.690  0.00  0.00     0.032 A 
HETATM    2  C   UNK N   1      26.844  15.816   6.542  0.00  0.00     0.017 A 
HETATM    3  C   UNK N   1      25.551  15.304   6.347  0.00  0.00     0.010 A 
HETATM    4  C   UNK N   1      24.757  15.786   5.294  0.00  0.00    -0.040 A 
HETATM    5  C   UNK N   1      25.261  16.757   4.434  0.00  0.00     0.010 A 
HETATM    6  C   UNK N   1      26.540  17.266   4.626  0.00  0.00     0.017 A 
ENDROOT
BRANCH   4   7
HETATM    7  C   UNK N   1      23.314  15.432   5.184  0.00  0.00     0.176 C 
BRANCH   7   8
HETATM    8  N   UNK N   1      22.419  16.399   5.761  0.00  0.00    -0.222 N 
HETATM    9  C   UNK N   1      21.676  16.063   6.918  0.00  0.00     0.678 A 
HETATM   10  N   UNK N   1      20.499  16.696   7.168  0.00  0.00    -0.202 N 
HETATM   11  N   UNK N   1      22.093  15.059   7.742  0.00  0.00    -0.191 N 
HETATM   12  C   UNK N   1      19.720  16.332   8.218  0.00  0.00     0.108 A 
ATOM     13  HN  UNK N   1      20.197  17.456   6.558  1.00  0.00     0.183 HD
HETATM   14  C   UNK N   1      20.128  15.304   9.065  0.00  0.00     0.048 A 
HETATM   15  C   UNK N   1      21.352  14.673   8.818  0.00  0.00     0.062 A 
ATOM     16  HN  UNK N   1      22.977  14.590   7.550  1.00  0.00     0.184 HD
HETATM   17  H   UNK N   1      22.324  17.290   5.354  0.00  0.00     0.178 HD
BRANCH  15  18
HETATM   18  C   UNK N   1      21.847  13.609   9.721  0.00  0.00     0.007 A 
HETATM   19  C   UNK N   1      23.210  13.281   9.773  0.00  0.00     0.016 A 
HETATM   20  C   UNK N   1      23.654  12.265  10.619  0.00  0.00     0.018 A 
HETATM   21  C   UNK N   1      22.727  11.572  11.399  0.00  0.00     0.087 A 
HETATM   22  N   UNK N   1      21.406  11.894  11.337  0.00  0.00    -0.374 N 
HETATM   23  C   UNK N   1      20.954  12.890  10.527  0.00  0.00     0.101 A 
ATOM     24  HN  UNK N   1      20.740  11.377  11.912  1.00  0.00     0.164 HD
ENDBRANCH  15  18
ENDBRANCH   7   8
ENDBRANCH   4   7
BRANCH   1  25
HETATM   25  C   UNK N   1      28.625  17.498   5.943  0.00  0.00     0.256 C 
HETATM   26  N   UNK N   1      29.618  16.780   6.537  0.00  0.00    -0.321 N 
HETATM   27  H   UNK N   1      29.368  15.883   6.855  0.00  0.00     0.169 HD
HETATM   28  O   UNK N   1      28.812  18.644   5.560  0.00  0.00    -0.267 OA
BRANCH  26  29
HETATM   29  C   UNK N   1      30.970  17.162   6.756  0.00  0.00     0.061 A 
HETATM   30  C   UNK N   1      31.924  17.169   5.726  0.00  0.00     0.032 A 
HETATM   31  C   UNK N   1      33.251  17.519   5.997  0.00  0.00     0.002 A 
HETATM   32  C   UNK N   1      33.634  17.859   7.298  0.00  0.00     0.002 A 
HETATM   33  C   UNK N   1      32.692  17.853   8.328  0.00  0.00     0.031 A 
HETATM   34  C   UNK N   1      31.365  17.506   8.062  0.00  0.00     0.052 A 
BRANCH  34  35
HETATM   35  N   UNK N   1      30.427  17.491   9.116  0.00  0.00    -0.397 N 
HETATM   36  H   UNK N   1      30.571  18.053   9.911  0.00  0.00     0.156 HD
HETATM   37  H   UNK N   1      29.629  16.918   9.056  0.00  0.00     0.156 HD
ENDBRANCH  34  35
ENDBRANCH  26  29
ENDBRANCH   1  25
TORSDOF 6
ENDMDL
MODEL 2
REMARK VINA RESULT:      -8.1     11.402     16.390
REMARK  6 active torsions:
REMARK  status: ('A' for Active; 'I' for Inactive)
REMARK    1  A    between atoms: C_4  and  N_8 
REMARK    2  A    between atoms: C_5  and  N_7 
REMARK       I    between atoms: N_8  and  C_9 
REMARK    3  A    between atoms: C_9  and  C_11 
REMARK    4  A    between atoms: C_14  and  C_17 
REMARK    5  A    between atoms: C_17  and  N_18 
REMARK       I    between atoms: N_18  and  C_19 
REMARK    6  A    between atoms: C_24  and  C_27 
ROOT
HETATM    1  C   UNK N   1      35.287  11.648  18.842  0.00  0.00     0.032 A 
HETATM    2  C   UNK N   1      35.180  13.048  18.780  0.00  0.00     0.017 A 
HETATM    3  C   UNK N   1      35.313  13.706  17.546  0.00  0.00     0.010 A 
HETATM    4  C   UNK N   1      35.541  12.963  16.377  0.00  0.00    -0.040 A 
HETATM    5  C   UNK N   1      35.614  11.575  16.439  0.00  0.00     0.010 A 
HETATM    6  C   UNK N   1      35.484  10.923  17.660  0.00  0.00     0.017 A 
ENDROOT
BRANCH   4   7
HETATM    7  C   UNK N   1      35.902  13.627  15.093  0.00  0.00     0.176 C 
BRANCH   7   8
HETATM    8  N   UNK N   1      37.045  13.057  14.430  0.00  0.00    -0.222 N 
HETATM    9  C   UNK N   1      37.147  13.131  13.021  0.00  0.00     0.678 A 
HETATM   10  N   UNK N   1      37.879  12.203  12.350  0.00  0.00    -0.202 N 
HETATM   11  N   UNK N   1      36.457  14.081  12.325  0.00  0.00    -0.191 N 
HETATM   12  C   UNK N   1      37.920  12.194  10.993  0.00  0.00     0.108 A 
ATOM     13  HN  UNK N   1      38.405  11.503  12.873  1.00  0.00     0.183 HD
HETATM   14  C   UNK N   1      37.216  13.152  10.268  0.00  0.00     0.048 A 
HETATM   15  C   UNK N   1      36.485  14.121  10.965  0.00  0.00     0.062 A 
ATOM     16  HN  UNK N   1      35.912  14.775  12.834  1.00  0.00     0.184 HD
HETATM   17  H   UNK N   1      37.753  12.618  14.955  0.00  0.00     0.178 HD
BRANCH  15  18
HETATM   18  C   UNK N   1      35.761  15.187  10.235  0.00  0.00     0.007 A 
HETATM   19  C   UNK N   1      35.404  15.028   8.888  0.00  0.00     0.016 A 
HETATM   20  C   UNK N   1      34.737  16.051   8.215  0.00  0.00     0.018 A 
HETATM   21  C   UNK N   1      34.440  17.235   8.892  0.00  0.00     0.087 A 
HETATM   22  N   UNK N   1      34.795  17.381  10.197  0.00  0.00    -0.374 N 
HETATM   23  C   UNK N   1      35.437  16.392  10.876  0.00  0.00     0.101 A 
ATOM     24  HN  UNK N   1      34.574  18.254  10.678  1.00  0.00     0.164 HD
ENDBRANCH  15  18
ENDBRANCH   7   8
ENDBRANCH   4   7
BRANCH   1  25
HETATM   25  C   UNK N   1      35.306  10.923  20.131  0.00  0.00     0.256 C 
HETATM   26  N   UNK N   1      34.178  10.257  20.506  0.00  0.00    -0.321 N 
HETATM   27  H   UNK N   1      33.388  10.397  19.936  0.00  0.00     0.169 HD
HETATM   28  O   UNK N   1      36.329  10.863  20.797  0.00  0.00    -0.267 OA
BRANCH  26  29
HETATM   29  C   UNK N   1      33.998   9.387  21.616  0.00  0.00     0.061 A 
HETATM   30  C   UNK N   1      34.407   8.044  21.589  0.00  0.00     0.032 A 
HETATM   31  C   UNK N   1      34.176   7.217  22.693  0.00  0.00     0.002 A 
HETATM   32  C   UNK N   1      33.533   7.722  23.826  0.00  0.00     0.002 A 
HETATM   33  C   UNK N   1      33.122   9.056  23.860  0.00  0.00     0.031 A 
HETATM   34  C   UNK N   1      33.352   9.888  22.761  0.00  0.00     0.052 A 
BRANCH  34  35
HETATM   35  N   UNK N   1      32.918  11.230  22.804  0.00  0.00    -0.397 N 
HETATM   36  H   UNK N   1      31.997  11.441  23.079  0.00  0.00     0.156 HD
HETATM   37  H   UNK N   1      33.538  11.954  22.559  0.00  0.00     0.156 HD
ENDBRANCH  34  35
ENDBRANCH  26  29
ENDBRANCH   1  25
TORSDOF 6
ENDMDL
MODEL 3
REMARK VINA RESULT:      -8.1      7.656     12.311
REMARK  6 active torsions:
REMARK  status: ('A' for Active; 'I' for Inactive)
REMARK    1  A    between atoms: C_4  and  N_8 
REMARK    2  A    between atoms: C_5  and  N_7 
REMARK       I    between atoms: N_8  and  C_9 
REMARK    3  A    between atoms: C_9  and  C_11 
REMARK    4  A    between atoms: C_14  and  C_17 
REMARK    5  A    between atoms: C_17  and  N_18 
REMARK       I    between atoms: N_18  and  C_19 
REMARK    6  A    between atoms: C_24  and  C_27 
ROOT
HETATM    1  C   UNK N   1      35.839  13.186  13.612  0.00  0.00     0.032 A 
HETATM    2  C   UNK N   1      35.240  12.360  12.645  0.00  0.00     0.017 A 
HETATM    3  C   UNK N   1      34.782  12.914  11.438  0.00  0.00     0.010 A 
HETATM    4  C   UNK N   1      34.935  14.288  11.195  0.00  0.00    -0.040 A 
HETATM    5  C   UNK N   1      35.557  15.095  12.142  0.00  0.00     0.010 A 
HETATM    6  C   UNK N   1      36.009  14.549  13.338  0.00  0.00     0.017 A 
ENDROOT
BRANCH   4   7
HETATM    7  C   UNK N   1      34.275  14.949  10.034  0.00  0.00     0.176 C 
BRANCH   7   8
HETATM    8  N   UNK N   1      32.865  15.183  10.206  0.00  0.00    -0.222 N 
HETATM    9  C   UNK N   1      32.124  15.789   9.164  0.00  0.00     0.678 A 
HETATM   10  N   UNK N   1      30.989  16.478   9.458  0.00  0.00    -0.202 N 
HETATM   11  N   UNK N   1      32.577  15.750   7.878  0.00  0.00    -0.191 N 
HETATM   12  C   UNK N   1      30.308  17.146   8.494  0.00  0.00     0.108 A 
ATOM     13  HN  UNK N   1      30.645  16.492  10.419  1.00  0.00     0.183 HD
HETATM   14  C   UNK N   1      30.762  17.122   7.177  0.00  0.00     0.048 A 
HETATM   15  C   UNK N   1      31.916  16.391   6.875  0.00  0.00     0.062 A 
ATOM     16  HN  UNK N   1      33.428  15.231   7.663  1.00  0.00     0.184 HD
HETATM   17  H   UNK N   1      32.419  14.922  11.044  0.00  0.00     0.178 HD
BRANCH  15  18
HETATM   18  C   UNK N   1      32.406  16.300   5.481  0.00  0.00     0.007 A 
HETATM   19  C   UNK N   1      31.916  17.156   4.484  0.00  0.00     0.016 A 
HETATM   20  C   UNK N   1      32.379  17.043   3.173  0.00  0.00     0.018 A 
HETATM   21  C   UNK N   1      33.324  16.063   2.865  0.00  0.00     0.087 A 
HETATM   22  N   UNK N   1      33.790  15.234   3.838  0.00  0.00    -0.374 N 
HETATM   23  C   UNK N   1      33.359  15.335   5.125  0.00  0.00     0.101 A 
ATOM     24  HN  UNK N   1      34.479  14.521   3.596  1.00  0.00     0.164 HD
ENDBRANCH  15  18
ENDBRANCH   7   8
ENDBRANCH   4   7
BRANCH   1  25
HETATM   25  C   UNK N   1      36.198  12.683  14.955  0.00  0.00     0.256 C 
HETATM   26  N   UNK N   1      35.254  12.745  15.934  0.00  0.00    -0.321 N 
HETATM   27  H   UNK N   1      34.426  13.224  15.702  0.00  0.00     0.169 HD
HETATM   28  O   UNK N   1      37.285  12.159  15.153  0.00  0.00    -0.267 OA
BRANCH  26  29
HETATM   29  C   UNK N   1      35.313  12.208  17.249  0.00  0.00     0.061 A 
HETATM   30  C   UNK N   1      35.306  10.825  17.494  0.00  0.00     0.032 A 
HETATM   31  C   UNK N   1      35.329  10.343  18.807  0.00  0.00     0.002 A 
HETATM   32  C   UNK N   1      35.355  11.237  19.882  0.00  0.00     0.002 A 
HETATM   33  C   UNK N   1      35.361  12.613  19.646  0.00  0.00     0.031 A 
HETATM   34  C   UNK N   1      35.339  13.100  18.336  0.00  0.00     0.052 A 
BRANCH  34  35
HETATM   35  N   UNK N   1      35.331  14.493  18.114  0.00  0.00    -0.397 N 
HETATM   36  H   UNK N   1      35.365  14.845  17.196  0.00  0.00     0.156 HD
HETATM   37  H   UNK N   1      35.290  15.112  18.878  0.00  0.00     0.156 HD
ENDBRANCH  34  35
ENDBRANCH  26  29
ENDBRANCH   1  25
TORSDOF 6
ENDMDL
MODEL 4
REMARK VINA RESULT:      -8.1      7.335     11.757
REMARK  6 active torsions:
REMARK  status: ('A' for Active; 'I' for Inactive)
REMARK    1  A    between atoms: C_4  and  N_8 
REMARK    2  A    between atoms: C_5  and  N_7 
REMARK       I    between atoms: N_8  and  C_9 
REMARK    3  A    between atoms: C_9  and  C_11 
REMARK    4  A    between atoms: C_14  and  C_17 
REMARK    5  A    between atoms: C_17  and  N_18 
REMARK       I    between atoms: N_18  and  C_19 
REMARK    6  A    between atoms: C_24  and  C_27 
ROOT
HETATM    1  C   UNK N   1      35.617  13.321  13.062  0.00  0.00     0.032 A 
HETATM    2  C   UNK N   1      35.308  12.167  12.323  0.00  0.00     0.017 A 
HETATM    3  C   UNK N   1      34.859  12.282  10.997  0.00  0.00     0.010 A 
HETATM    4  C   UNK N   1      34.733  13.550  10.409  0.00  0.00    -0.040 A 
HETATM    5  C   UNK N   1      35.071  14.689  11.134  0.00  0.00     0.010 A 
HETATM    6  C   UNK N   1      35.513  14.576  12.447  0.00  0.00     0.017 A 
ENDROOT
BRANCH   4   7
HETATM    7  C   UNK N   1      34.060  13.732   9.092  0.00  0.00     0.176 C 
BRANCH   7   8
HETATM    8  N   UNK N   1      34.745  14.621   8.191  0.00  0.00    -0.222 N 
HETATM    9  C   UNK N   1      34.013  15.606   7.488  0.00  0.00     0.678 A 
HETATM   10  N   UNK N   1      34.486  16.079   6.305  0.00  0.00    -0.202 N 
HETATM   11  N   UNK N   1      32.801  16.032   7.951  0.00  0.00    -0.191 N 
HETATM   12  C   UNK N   1      33.763  16.956   5.564  0.00  0.00     0.108 A 
ATOM     13  HN  UNK N   1      35.399  15.771   5.969  1.00  0.00     0.183 HD
HETATM   14  C   UNK N   1      32.521  17.394   6.018  0.00  0.00     0.048 A 
HETATM   15  C   UNK N   1      32.050  16.924   7.249  0.00  0.00     0.062 A 
ATOM     16  HN  UNK N   1      32.453  15.674   8.839  1.00  0.00     0.184 HD
HETATM   17  H   UNK N   1      35.718  14.543   8.065  0.00  0.00     0.178 HD
BRANCH  15  18
HETATM   18  C   UNK N   1      30.758  17.401   7.793  0.00  0.00     0.007 A 
HETATM   19  C   UNK N   1      29.547  17.088   7.158  0.00  0.00     0.016 A 
HETATM   20  C   UNK N   1      28.342  17.560   7.677  0.00  0.00     0.018 A 
HETATM   21  C   UNK N   1      28.356  18.355   8.825  0.00  0.00     0.087 A 
HETATM   22  N   UNK N   1      29.537  18.657   9.431  0.00  0.00    -0.374 N 
HETATM   23  C   UNK N   1      30.723  18.197   8.946  0.00  0.00     0.101 A 
ATOM     24  HN  UNK N   1      29.532  19.241  10.267  1.00  0.00     0.164 HD
ENDBRANCH  15  18
ENDBRANCH   7   8
ENDBRANCH   4   7
BRANCH   1  25
HETATM   25  C   UNK N   1      35.946  13.263  14.502  0.00  0.00     0.256 C 
HETATM   26  N   UNK N   1      34.969  12.871  15.365  0.00  0.00    -0.321 N 
HETATM   27  H   UNK N   1      34.073  12.755  14.975  0.00  0.00     0.169 HD
HETATM   28  O   UNK N   1      37.083  13.489  14.891  0.00  0.00    -0.267 OA
BRANCH  26  29
HETATM   29  C   UNK N   1      35.078  12.608  16.759  0.00  0.00     0.061 A 
HETATM   30  C   UNK N   1      35.023  13.630  17.720  0.00  0.00     0.032 A 
HETATM   31  C   UNK N   1      35.171  13.326  19.078  0.00  0.00     0.002 A 
HETATM   32  C   UNK N   1      35.380  12.005  19.482  0.00  0.00     0.002 A 
HETATM   33  C   UNK N   1      35.438  10.984  18.532  0.00  0.00     0.031 A 
HETATM   34  C   UNK N   1      35.288  11.281  17.175  0.00  0.00     0.052 A 
BRANCH  34  35
HETATM   35  N   UNK N   1      35.364  10.241  16.225  0.00  0.00    -0.397 N 
HETATM   36  H   UNK N   1      36.150  10.166  15.638  0.00  0.00     0.156 HD
HETATM   37  H   UNK N   1      34.629   9.589  16.150  0.00  0.00     0.156 HD
ENDBRANCH  34  35
ENDBRANCH  26  29
ENDBRANCH   1  25
TORSDOF 6
ENDMDL
MODEL 5
REMARK VINA RESULT:      -7.9      5.075     11.334
REMARK  6 active torsions:
REMARK  status: ('A' for Active; 'I' for Inactive)
REMARK    1  A    between atoms: C_4  and  N_8 
REMARK    2  A    between atoms: C_5  and  N_7 
REMARK       I    between atoms: N_8  and  C_9 
REMARK    3  A    between atoms: C_9  and  C_11 
REMARK    4  A    between atoms: C_14  and  C_17 
REMARK    5  A    between atoms: C_17  and  N_18 
REMARK       I    between atoms: N_18  and  C_19 
REMARK    6  A    between atoms: C_24  and  C_27 
ROOT
HETATM    1  C   UNK N   1      30.868  17.293   6.009  0.00  0.00     0.032 A 
HETATM    2  C   UNK N   1      32.112  17.308   5.354  0.00  0.00     0.017 A 
HETATM    3  C   UNK N   1      33.298  17.356   6.104  0.00  0.00     0.010 A 
HETATM    4  C   UNK N   1      33.240  17.376   7.506  0.00  0.00    -0.040 A 
HETATM    5  C   UNK N   1      32.008  17.330   8.151  0.00  0.00     0.010 A 
HETATM    6  C   UNK N   1      30.832  17.284   7.410  0.00  0.00     0.017 A 
ENDROOT
BRANCH   4   7
HETATM    7  C   UNK N   1      34.452  17.645   8.330  0.00  0.00     0.176 C 
BRANCH   7   8
HETATM    8  N   UNK N   1      34.322  17.282   9.716  0.00  0.00    -0.222 N 
HETATM    9  C   UNK N   1      34.872  16.063  10.176  0.00  0.00     0.678 A 
HETATM   10  N   UNK N   1      34.346  15.459  11.275  0.00  0.00    -0.202 N 
HETATM   11  N   UNK N   1      35.877  15.451   9.484  0.00  0.00    -0.191 N 
HETATM   12  C   UNK N   1      34.792  14.245  11.685  0.00  0.00     0.108 A 
ATOM     13  HN  UNK N   1      33.605  15.925  11.798  1.00  0.00     0.183 HD
HETATM   14  C   UNK N   1      35.812  13.604  10.985  0.00  0.00     0.048 A 
HETATM   15  C   UNK N   1      36.368  14.241   9.871  0.00  0.00     0.062 A 
ATOM     16  HN  UNK N   1      36.268  15.909   8.662  1.00  0.00     0.184 HD
HETATM   17  H   UNK N   1      33.852  17.880  10.341  0.00  0.00     0.178 HD
BRANCH  15  18
HETATM   18  C   UNK N   1      37.486  13.618   9.126  0.00  0.00     0.007 A 
HETATM   19  C   UNK N   1      38.530  12.969   9.801  0.00  0.00     0.016 A 
HETATM   20  C   UNK N   1      39.583  12.402   9.082  0.00  0.00     0.018 A 
HETATM   21  C   UNK N   1      39.590  12.500   7.690  0.00  0.00     0.087 A 
HETATM   22  N   UNK N   1      38.575  13.137   7.045  0.00  0.00    -0.374 N 
HETATM   23  C   UNK N   1      37.533  13.687   7.726  0.00  0.00     0.101 A 
ATOM     24  HN  UNK N   1      38.595  13.203   6.027  1.00  0.00     0.164 HD
ENDBRANCH  15  18
ENDBRANCH   7   8
ENDBRANCH   4   7
BRANCH   1  25
HETATM   25  C   UNK N   1      29.593  17.396   5.268  0.00  0.00     0.256 C 
HETATM   26  N   UNK N   1      28.767  18.439   5.560  0.00  0.00    -0.321 N 
HETATM   27  H   UNK N   1      29.033  18.996   6.326  0.00  0.00     0.169 HD
HETATM   28  O   UNK N   1      29.329  16.610   4.370  0.00  0.00    -0.267 OA
BRANCH  26  29
HETATM   29  C   UNK N   1      27.569  18.825   4.898  0.00  0.00     0.061 A 
HETATM   30  C   UNK N   1      27.521  19.911   4.009  0.00  0.00     0.032 A 
HETATM   31  C   UNK N   1      26.311  20.275   3.409  0.00  0.00     0.002 A 
HETATM   32  C   UNK N   1      25.144  19.562   3.695  0.00  0.00     0.002 A 
HETATM   33  C   UNK N   1      25.183  18.482   4.579  0.00  0.00     0.031 A 
HETATM   34  C   UNK N   1      26.390  18.113   5.179  0.00  0.00     0.052 A 
BRANCH  34  35
HETATM   35  N   UNK N   1      26.411  17.028   6.081  0.00  0.00    -0.397 N 
HETATM   36  H   UNK N   1      25.907  17.078   6.925  0.00  0.00     0.156 HD
HETATM   37  H   UNK N   1      26.931  16.220   5.866  0.00  0.00     0.156 HD
ENDBRANCH  34  35
ENDBRANCH  26  29
ENDBRANCH   1  25
TORSDOF 6
ENDMDL
MODEL 6
REMARK VINA RESULT:      -7.8      6.021      8.514
REMARK  6 active torsions:
REMARK  status: ('A' for Active; 'I' for Inactive)
REMARK    1  A    between atoms: C_4  and  N_8 
REMARK    2  A    between atoms: C_5  and  N_7 
REMARK       I    between atoms: N_8  and  C_9 
REMARK    3  A    between atoms: C_9  and  C_11 
REMARK    4  A    between atoms: C_14  and  C_17 
REMARK    5  A    between atoms: C_17  and  N_18 
REMARK       I    between atoms: N_18  and  C_19 
REMARK    6  A    between atoms: C_24  and  C_27 
ROOT
HETATM    1  C   UNK N   1      34.353  15.264   6.545  0.00  0.00     0.032 A 
HETATM    2  C   UNK N   1      34.388  14.810   5.215  0.00  0.00     0.017 A 
HETATM    3  C   UNK N   1      33.833  15.596   4.192  0.00  0.00     0.010 A 
HETATM    4  C   UNK N   1      33.256  16.838   4.498  0.00  0.00    -0.040 A 
HETATM    5  C   UNK N   1      33.252  17.298   5.812  0.00  0.00     0.010 A 
HETATM    6  C   UNK N   1      33.799  16.520   6.826  0.00  0.00     0.017 A 
ENDROOT
BRANCH   4   7
HETATM    7  C   UNK N   1      32.469  17.599   3.487  0.00  0.00     0.176 C 
BRANCH   7   8
HETATM    8  N   UNK N   1      31.521  16.805   2.751  0.00  0.00    -0.222 N 
HETATM    9  C   UNK N   1      30.168  16.769   3.163  0.00  0.00     0.678 A 
HETATM   10  N   UNK N   1      29.399  15.691   2.856  0.00  0.00    -0.202 N 
HETATM   11  N   UNK N   1      29.649  17.774   3.927  0.00  0.00    -0.191 N 
HETATM   12  C   UNK N   1      28.126  15.587   3.315  0.00  0.00     0.108 A 
ATOM     13  HN  UNK N   1      29.785  14.948   2.272  1.00  0.00     0.183 HD
HETATM   14  C   UNK N   1      27.585  16.601   4.102  0.00  0.00     0.048 A 
HETATM   15  C   UNK N   1      28.371  17.720   4.394  0.00  0.00     0.062 A 
ATOM     16  HN  UNK N   1      30.230  18.581   4.152  1.00  0.00     0.184 HD
HETATM   17  H   UNK N   1      31.813  16.289   1.965  0.00  0.00     0.178 HD
BRANCH  15  18
HETATM   18  C   UNK N   1      27.819  18.843   5.187  0.00  0.00     0.007 A 
HETATM   19  C   UNK N   1      27.398  20.028   4.567  0.00  0.00     0.016 A 
HETATM   20  C   UNK N   1      26.896  21.079   5.333  0.00  0.00     0.018 A 
HETATM   21  C   UNK N   1      26.830  20.942   6.721  0.00  0.00     0.087 A 
HETATM   22  N   UNK N   1      27.246  19.790   7.314  0.00  0.00    -0.374 N 
HETATM   23  C   UNK N   1      27.729  18.748   6.583  0.00  0.00     0.101 A 
ATOM     24  HN  UNK N   1      27.194  19.706   8.329  1.00  0.00     0.164 HD
ENDBRANCH  15  18
ENDBRANCH   7   8
ENDBRANCH   4   7
BRANCH   1  25
HETATM   25  C   UNK N   1      34.784  14.411   7.674  0.00  0.00     0.256 C 
HETATM   26  N   UNK N   1      35.415  15.010   8.721  0.00  0.00    -0.321 N 
HETATM   27  H   UNK N   1      35.636  15.961   8.603  0.00  0.00     0.169 HD
HETATM   28  O   UNK N   1      34.512  13.220   7.693  0.00  0.00    -0.267 OA
BRANCH  26  29
HETATM   29  C   UNK N   1      35.796  14.434   9.965  0.00  0.00     0.061 A 
HETATM   30  C   UNK N   1      37.043  13.817  10.154  0.00  0.00     0.032 A 
HETATM   31  C   UNK N   1      37.359  13.233  11.385  0.00  0.00     0.002 A 
HETATM   32  C   UNK N   1      36.433  13.257  12.431  0.00  0.00     0.002 A 
HETATM   33  C   UNK N   1      35.190  13.867  12.250  0.00  0.00     0.031 A 
HETATM   34  C   UNK N   1      34.870  14.454  11.023  0.00  0.00     0.052 A 
BRANCH  34  35
HETATM   35  N   UNK N   1      33.605  15.054  10.851  0.00  0.00    -0.397 N 
HETATM   36  H   UNK N   1      33.445  15.969  11.178  0.00  0.00     0.156 HD
HETATM   37  H   UNK N   1      32.882  14.558  10.403  0.00  0.00     0.156 HD
ENDBRANCH  34  35
ENDBRANCH  26  29
ENDBRANCH   1  25
TORSDOF 6
ENDMDL
MODEL 7
REMARK VINA RESULT:      -7.8      2.618      8.739
REMARK  6 active torsions:
REMARK  status: ('A' for Active; 'I' for Inactive)
REMARK    1  A    between atoms: C_4  and  N_8 
REMARK    2  A    between atoms: C_5  and  N_7 
REMARK       I    between atoms: N_8  and  C_9 
REMARK    3  A    between atoms: C_9  and  C_11 
REMARK    4  A    between atoms: C_14  and  C_17 
REMARK    5  A    between atoms: C_17  and  N_18 
REMARK       I    between atoms: N_18  and  C_19 
REMARK    6  A    between atoms: C_24  and  C_27 
ROOT
HETATM    1  C   UNK N   1      24.565  14.165   6.302  0.00  0.00     0.032 A 
HETATM    2  C   UNK N   1      24.283  15.541   6.332  0.00  0.00     0.017 A 
HETATM    3  C   UNK N   1      24.801  16.384   5.335  0.00  0.00     0.010 A 
HETATM    4  C   UNK N   1      25.589  15.849   4.305  0.00  0.00    -0.040 A 
HETATM    5  C   UNK N   1      25.839  14.480   4.261  0.00  0.00     0.010 A 
HETATM    6  C   UNK N   1      25.328  13.645   5.248  0.00  0.00     0.017 A 
ENDROOT
BRANCH   4   7
HETATM    7  C   UNK N   1      26.333  16.727   3.359  0.00  0.00     0.176 C 
BRANCH   7   8
HETATM    8  N   UNK N   1      27.604  16.203   2.935  0.00  0.00    -0.222 N 
HETATM    9  C   UNK N   1      28.770  16.507   3.676  0.00  0.00     0.678 A 
HETATM   10  N   UNK N   1      29.982  16.491   3.060  0.00  0.00    -0.202 N 
HETATM   11  N   UNK N   1      28.680  16.889   4.983  0.00  0.00    -0.191 N 
HETATM   12  C   UNK N   1      31.106  16.867   3.721  0.00  0.00     0.108 A 
ATOM     13  HN  UNK N   1      30.048  16.191   2.087  1.00  0.00     0.183 HD
HETATM   14  C   UNK N   1      31.031  17.265   5.054  0.00  0.00     0.048 A 
HETATM   15  C   UNK N   1      29.785  17.256   5.690  0.00  0.00     0.062 A 
ATOM     16  HN  UNK N   1      27.769  16.898   5.440  1.00  0.00     0.184 HD
HETATM   17  H   UNK N   1      27.662  15.635   2.132  0.00  0.00     0.178 HD
BRANCH  15  18
HETATM   18  C   UNK N   1      29.666  17.627   7.119  0.00  0.00     0.007 A 
HETATM   19  C   UNK N   1      28.431  18.001   7.669  0.00  0.00     0.016 A 
HETATM   20  C   UNK N   1      28.343  18.362   9.013  0.00  0.00     0.018 A 
HETATM   21  C   UNK N   1      29.497  18.358   9.798  0.00  0.00     0.087 A 
HETATM   22  N   UNK N   1      30.691  17.998   9.255  0.00  0.00    -0.374 N 
HETATM   23  C   UNK N   1      30.797  17.632   7.948  0.00  0.00     0.101 A 
ATOM     24  HN  UNK N   1      31.527  18.002   9.840  1.00  0.00     0.164 HD
ENDBRANCH  15  18
ENDBRANCH   7   8
ENDBRANCH   4   7
BRANCH   1  25
HETATM   25  C   UNK N   1      24.173  13.262   7.405  0.00  0.00     0.256 C 
HETATM   26  N   UNK N   1      23.568  13.811   8.495  0.00  0.00    -0.321 N 
HETATM   27  H   UNK N   1      23.532  14.794   8.516  0.00  0.00     0.169 HD
HETATM   28  O   UNK N   1      24.321  12.053   7.303  0.00  0.00    -0.267 OA
BRANCH  26  29
HETATM   29  C   UNK N   1      22.984  13.144   9.607  0.00  0.00     0.061 A 
HETATM   30  C   UNK N   1      21.595  12.993   9.745  0.00  0.00     0.032 A 
HETATM   31  C   UNK N   1      21.065  12.360  10.874  0.00  0.00     0.002 A 
HETATM   32  C   UNK N   1      21.916  11.879  11.873  0.00  0.00     0.002 A 
HETATM   33  C   UNK N   1      23.299  12.027  11.744  0.00  0.00     0.031 A 
HETATM   34  C   UNK N   1      23.833  12.656  10.617  0.00  0.00     0.052 A 
BRANCH  34  35
HETATM   35  N   UNK N   1      25.232  12.811  10.507  0.00  0.00    -0.397 N 
HETATM   36  H   UNK N   1      25.734  12.289   9.841  0.00  0.00     0.156 HD
HETATM   37  H   UNK N   1      25.704  13.442  11.097  0.00  0.00     0.156 HD
ENDBRANCH  34  35
ENDBRANCH  26  29
ENDBRANCH   1  25
TORSDOF 6
ENDMDL
MODEL 8
REMARK VINA RESULT:      -7.7      4.180      6.527
REMARK  6 active torsions:
REMARK  status: ('A' for Active; 'I' for Inactive)
REMARK    1  A    between atoms: C_4  and  N_8 
REMARK    2  A    between atoms: C_5  and  N_7 
REMARK       I    between atoms: N_8  and  C_9 
REMARK    3  A    between atoms: C_9  and  C_11 
REMARK    4  A    between atoms: C_14  and  C_17 
REMARK    5  A    between atoms: C_17  and  N_18 
REMARK       I    between atoms: N_18  and  C_19 
REMARK    6  A    between atoms: C_24  and  C_27 
ROOT
HETATM    1  C   UNK N   1      31.511  17.303   8.280  0.00  0.00     0.032 A 
HETATM    2  C   UNK N   1      30.839  18.294   9.016  0.00  0.00     0.017 A 
HETATM    3  C   UNK N   1      29.517  18.635   8.686  0.00  0.00     0.010 A 
HETATM    4  C   UNK N   1      28.866  17.977   7.631  0.00  0.00    -0.040 A 
HETATM    5  C   UNK N   1      29.524  16.974   6.927  0.00  0.00     0.010 A 
HETATM    6  C   UNK N   1      30.833  16.637   7.250  0.00  0.00     0.017 A 
ENDROOT
BRANCH   4   7
HETATM    7  C   UNK N   1      27.554  18.454   7.111  0.00  0.00     0.176 C 
BRANCH   7   8
HETATM    8  N   UNK N   1      27.637  19.603   6.249  0.00  0.00    -0.222 N 
HETATM    9  C   UNK N   1      26.685  19.775   5.217  0.00  0.00     0.678 A 
HETATM   10  N   UNK N   1      27.012  20.500   4.114  0.00  0.00    -0.202 N 
HETATM   11  N   UNK N   1      25.469  19.159   5.285  0.00  0.00    -0.191 N 
HETATM   12  C   UNK N   1      26.154  20.605   3.068  0.00  0.00     0.108 A 
ATOM     13  HN  UNK N   1      27.916  20.971   4.072  1.00  0.00     0.183 HD
HETATM   14  C   UNK N   1      24.912  19.977   3.119  0.00  0.00     0.048 A 
HETATM   15  C   UNK N   1      24.570  19.253   4.267  0.00  0.00     0.062 A 
ATOM     16  HN  UNK N   1      25.229  18.618   6.115  1.00  0.00     0.184 HD
HETATM   17  H   UNK N   1      28.353  20.266   6.378  0.00  0.00     0.178 HD
BRANCH  15  18
HETATM   18  C   UNK N   1      23.242  18.609   4.383  0.00  0.00     0.007 A 
HETATM   19  C   UNK N   1      22.179  18.988   3.551  0.00  0.00     0.016 A 
HETATM   20  C   UNK N   1      20.931  18.380   3.687  0.00  0.00     0.018 A 
HETATM   21  C   UNK N   1      20.751  17.403   4.667  0.00  0.00     0.087 A 
HETATM   22  N   UNK N   1      21.787  17.045   5.474  0.00  0.00    -0.374 N 
HETATM   23  C   UNK N   1      23.016  17.618   5.350  0.00  0.00     0.101 A 
ATOM     24  HN  UNK N   1      21.639  16.331   6.187  1.00  0.00     0.164 HD
ENDBRANCH  15  18
ENDBRANCH   7   8
ENDBRANCH   4   7
BRANCH   1  25
HETATM   25  C   UNK N   1      32.946  17.014   8.486  0.00  0.00     0.256 C 
HETATM   26  N   UNK N   1      33.279  15.871   9.146  0.00  0.00    -0.321 N 
HETATM   27  H   UNK N   1      32.530  15.366   9.536  0.00  0.00     0.169 HD
HETATM   28  O   UNK N   1      33.803  17.745   8.011  0.00  0.00    -0.267 OA
BRANCH  26  29
HETATM   29  C   UNK N   1      34.573  15.313   9.344  0.00  0.00     0.061 A 
HETATM   30  C   UNK N   1      35.016  14.180   8.644  0.00  0.00     0.032 A 
HETATM   31  C   UNK N   1      36.283  13.647   8.899  0.00  0.00     0.002 A 
HETATM   32  C   UNK N   1      37.114  14.237   9.855  0.00  0.00     0.002 A 
HETATM   33  C   UNK N   1      36.680  15.364  10.557  0.00  0.00     0.031 A 
HETATM   34  C   UNK N   1      35.415  15.902  10.305  0.00  0.00     0.052 A 
BRANCH  34  35
HETATM   35  N   UNK N   1      34.985  17.032  11.032  0.00  0.00    -0.397 N 
HETATM   36  H   UNK N   1      34.223  17.565  10.709  0.00  0.00     0.156 HD
HETATM   37  H   UNK N   1      35.447  17.287  11.863  0.00  0.00     0.156 HD
ENDBRANCH  34  35
ENDBRANCH  26  29
ENDBRANCH   1  25
TORSDOF 6
ENDMDL
MODEL 9
REMARK VINA RESULT:      -7.6     13.355     16.357
REMARK  6 active torsions:
REMARK  status: ('A' for Active; 'I' for Inactive)
REMARK    1  A    between atoms: C_4  and  N_8 
REMARK    2  A    between atoms: C_5  and  N_7 
REMARK       I    between atoms: N_8  and  C_9 
REMARK    3  A    between atoms: C_9  and  C_11 
REMARK    4  A    between atoms: C_14  and  C_17 
REMARK    5  A    between atoms: C_17  and  N_18 
REMARK       I    between atoms: N_18  and  C_19 
REMARK    6  A    between atoms: C_24  and  C_27 
ROOT
HETATM    1  C   UNK N   1      35.326  12.583  16.108  0.00  0.00     0.032 A 
HETATM    2  C   UNK N   1      35.261  13.569  17.107  0.00  0.00     0.017 A 
HETATM    3  C   UNK N   1      35.202  13.194  18.459  0.00  0.00     0.010 A 
HETATM    4  C   UNK N   1      35.220  11.835  18.811  0.00  0.00    -0.040 A 
HETATM    5  C   UNK N   1      35.316  10.863  17.820  0.00  0.00     0.010 A 
HETATM    6  C   UNK N   1      35.373  11.233  16.481  0.00  0.00     0.017 A 
ENDROOT
BRANCH   4   7
HETATM    7  C   UNK N   1      34.942  11.390  20.205  0.00  0.00     0.176 C 
BRANCH   7   8
HETATM    8  N   UNK N   1      35.423  10.070  20.515  0.00  0.00    -0.222 N 
HETATM    9  C   UNK N   1      35.318   9.578  21.837  0.00  0.00     0.678 A 
HETATM   10  N   UNK N   1      36.184   8.625  22.272  0.00  0.00    -0.202 N 
HETATM   11  N   UNK N   1      34.403  10.106  22.702  0.00  0.00    -0.191 N 
HETATM   12  C   UNK N   1      36.166   8.201  23.561  0.00  0.00     0.108 A 
ATOM     13  HN  UNK N   1      36.857   8.222  21.620  1.00  0.00     0.183 HD
HETATM   14  C   UNK N   1      35.243   8.734  24.457  0.00  0.00     0.048 A 
HETATM   15  C   UNK N   1      34.337   9.696  23.999  0.00  0.00     0.062 A 
ATOM     16  HN  UNK N   1      33.755  10.819  22.370  1.00  0.00     0.184 HD
HETATM   17  H   UNK N   1      35.824   9.512  19.810  0.00  0.00     0.178 HD
BRANCH  15  18
HETATM   18  C   UNK N   1      33.308  10.255  24.906  0.00  0.00     0.007 A 
HETATM   19  C   UNK N   1      33.669  10.927  26.082  0.00  0.00     0.016 A 
HETATM   20  C   UNK N   1      32.684  11.432  26.931  0.00  0.00     0.018 A 
HETATM   21  C   UNK N   1      31.340  11.249  26.602  0.00  0.00     0.087 A 
HETATM   22  N   UNK N   1      31.000  10.591  25.461  0.00  0.00    -0.374 N 
HETATM   23  C   UNK N   1      31.945  10.100  24.613  0.00  0.00     0.101 A 
ATOM     24  HN  UNK N   1      30.013  10.463  25.235  1.00  0.00     0.164 HD
ENDBRANCH  15  18
ENDBRANCH   7   8
ENDBRANCH   4   7
BRANCH   1  25
HETATM   25  C   UNK N   1      35.237  12.918  14.671  0.00  0.00     0.256 C 
HETATM   26  N   UNK N   1      36.202  13.719  14.141  0.00  0.00    -0.321 N 
HETATM   27  H   UNK N   1      36.838  14.108  14.783  0.00  0.00     0.169 HD
HETATM   28  O   UNK N   1      34.364  12.428  13.970  0.00  0.00    -0.267 OA
BRANCH  26  29
HETATM   29  C   UNK N   1      36.408  14.066  12.777  0.00  0.00     0.061 A 
HETATM   30  C   UNK N   1      35.822  15.202  12.196  0.00  0.00     0.032 A 
HETATM   31  C   UNK N   1      36.024  15.482  10.841  0.00  0.00     0.002 A 
HETATM   32  C   UNK N   1      36.807  14.630  10.058  0.00  0.00     0.002 A 
HETATM   33  C   UNK N   1      37.392  13.498  10.628  0.00  0.00     0.031 A 
HETATM   34  C   UNK N   1      37.195  13.214  11.981  0.00  0.00     0.052 A 
BRANCH  34  35
HETATM   35  N   UNK N   1      37.780  12.058  12.540  0.00  0.00    -0.397 N 
HETATM   36  H   UNK N   1      38.048  11.311  11.958  0.00  0.00     0.156 HD
HETATM   37  H   UNK N   1      37.922  12.000  13.512  0.00  0.00     0.156 HD
ENDBRANCH  34  35
ENDBRANCH  26  29
ENDBRANCH   1  25
TORSDOF 6
ENDMDL
