MODEL 1
REMARK VINA RESULT:      -6.4      0.000      0.000
REMARK  11 active torsions:
REMARK  status: ('A' for Active; 'I' for Inactive)
REMARK    1  A    between atoms: C_17  and  C_13 
REMARK    2  A    between atoms: N_21  and  C_13 
REMARK    3  A    between atoms: C_17  and  C_14 
REMARK    4  A    between atoms: O_27  and  C_14 
REMARK    5  A    between atoms: N_22  and  C_15 
REMARK    6  A    between atoms: N_24  and  C_16 
REMARK    7  A    between atoms: O_25  and  C_17 
REMARK    8  A    between atoms: O_27  and  C_18 
REMARK    9  A    between atoms: N_24  and  C_19 
REMARK   10  A    between atoms: O_26  and  C_19 
REMARK   11  A    between atoms: N_21  and  C_20 
ROOT
HETATM    1  C   UNK N   1      31.969  15.354   4.121  0.00  0.00     0.032 A 
HETATM    2  C   UNK N   1      32.199  17.733   3.735  0.00  0.00     0.032 A 
HETATM    3  C   UNK N   1      33.035  15.399   5.017  0.00  0.00     0.039 A 
HETATM    4  C   UNK N   1      33.253  17.783   4.641  0.00  0.00     0.039 A 
HETATM    5  C   UNK N   1      31.546  16.524   3.474  0.00  0.00     0.035 A 
HETATM    6  C   UNK N   1      33.651  16.624   5.306  0.00  0.00     0.069 A 
ENDROOT
BRANCH   5   7
HETATM    7  N   UNK N   1      30.252  16.588   2.918  0.00  0.00    -0.323 N 
HETATM    8  H   UNK N   1      30.107  16.559   1.944  0.00  0.00     0.169 HD
BRANCH   7   9
HETATM    9  C   UNK N   1      29.163  16.697   3.830  0.00  0.00     0.217 C 
HETATM   10  N   UNK N   1      28.631  17.865   4.030  0.00  0.00    -0.352 N 
ATOM     11  HN  UNK N   1      29.147  18.670   3.675  1.00  0.00     0.163 HD
BRANCH  10  12
HETATM   12  C   UNK N   1      27.380  18.146   4.706  0.00  0.00     0.085 C 
HETATM   13  C   UNK N   1      26.412  18.865   3.758  0.00  0.00     0.025 C 
HETATM   14  C   UNK N   1      26.703  20.363   3.694  0.00  0.00     0.002 C 
HETATM   15  C   UNK N   1      26.612  20.955   5.095  0.00  0.00     0.000 C 
HETATM   16  C   UNK N   1      27.690  20.329   5.970  0.00  0.00     0.002 C 
HETATM   17  C   UNK N   1      27.474  18.826   6.077  0.00  0.00     0.025 C 
ENDBRANCH  10  12
BRANCH   9  18
HETATM   18  O   UNK N   1      28.627  15.586   4.358  0.00  0.00    -0.333 OA
HETATM   19  H   UNK N   1      28.840  14.729   4.045  0.00  0.00     0.220 HD
ENDBRANCH   9  18
ENDBRANCH   7   9
ENDBRANCH   5   7
BRANCH   6  20
HETATM   20  O   UNK N   1      34.614  16.695   6.237  0.00  0.00    -0.349 OA
BRANCH  20  21
HETATM   21  C   UNK N   1      34.286  16.482   7.541  0.00  0.00     0.209 C 
BRANCH  21  22
HETATM   22  C   UNK N   1      34.205  17.755   8.359  0.00  0.00     0.159 C 
BRANCH  22  23
HETATM   23  C   UNK N   1      32.755  18.216   8.326  0.00  0.00     0.148 C 
BRANCH  23  24
HETATM   24  N   UNK N   1      31.922  17.310   9.120  0.00  0.00    -0.411 N 
HETATM   25  H   UNK N   1      32.297  16.628   9.780  0.00  0.00     0.154 HD
BRANCH  24  26
HETATM   26  C   UNK N   1      30.486  17.491   8.860  0.00  0.00     0.014 C 
HETATM   27  C   UNK N   1      30.196  16.992   7.462  0.00  0.00     0.037 C 
HETATM   28  C   UNK N   1      30.052  18.950   8.921  0.00  0.00     0.037 C 
HETATM   29  C   UNK N   1      29.654  16.686   9.842  0.00  0.00     0.037 C 
ENDBRANCH  24  26
ENDBRANCH  23  24
ENDBRANCH  22  23
BRANCH  22  30
HETATM   30  O   UNK N   1      35.006  18.746   7.786  0.00  0.00    -0.392 OA
HETATM   31  H   UNK N   1      34.761  19.478   7.199  0.00  0.00     0.210 HD
ENDBRANCH  22  30
ENDBRANCH  21  22
ENDBRANCH  20  21
ENDBRANCH   6  20
TORSDOF 11
ENDMDL
MODEL 2
REMARK VINA RESULT:      -6.3      4.505      9.263
REMARK  11 active torsions:
REMARK  status: ('A' for Active; 'I' for Inactive)
REMARK    1  A    between atoms: C_17  and  C_13 
REMARK    2  A    between atoms: N_21  and  C_13 
REMARK    3  A    between atoms: C_17  and  C_14 
REMARK    4  A    between atoms: O_27  and  C_14 
REMARK    5  A    between atoms: N_22  and  C_15 
REMARK    6  A    between atoms: N_24  and  C_16 
REMARK    7  A    between atoms: O_25  and  C_17 
REMARK    8  A    between atoms: O_27  and  C_18 
REMARK    9  A    between atoms: N_24  and  C_19 
REMARK   10  A    between atoms: O_26  and  C_19 
REMARK   11  A    between atoms: N_21  and  C_20 
ROOT
HETATM    1  C   UNK N   1      25.745  18.877   4.760  0.00  0.00     0.032 A 
HETATM    2  C   UNK N   1      26.082  20.514   3.008  0.00  0.00     0.032 A 
HETATM    3  C   UNK N   1      24.368  18.954   4.564  0.00  0.00     0.039 A 
HETATM    4  C   UNK N   1      24.709  20.579   2.799  0.00  0.00     0.039 A 
HETATM    5  C   UNK N   1      26.611  19.660   3.982  0.00  0.00     0.035 A 
HETATM    6  C   UNK N   1      23.853  19.777   3.553  0.00  0.00     0.069 A 
ENDROOT
BRANCH   5   7
HETATM    7  N   UNK N   1      27.968  19.299   3.867  0.00  0.00    -0.323 N 
HETATM    8  H   UNK N   1      28.593  19.815   3.308  0.00  0.00     0.169 HD
BRANCH   7   9
HETATM    9  C   UNK N   1      28.394  18.152   4.597  0.00  0.00     0.217 C 
HETATM   10  N   UNK N   1      28.801  18.307   5.822  0.00  0.00    -0.352 N 
ATOM     11  HN  UNK N   1      28.981  19.264   6.127  1.00  0.00     0.163 HD
BRANCH  10  12
HETATM   12  C   UNK N   1      29.028  17.263   6.801  0.00  0.00     0.085 C 
HETATM   13  C   UNK N   1      27.897  17.247   7.835  0.00  0.00     0.025 C 
HETATM   14  C   UNK N   1      28.118  18.300   8.921  0.00  0.00     0.002 C 
HETATM   15  C   UNK N   1      29.460  18.052   9.597  0.00  0.00     0.000 C 
HETATM   16  C   UNK N   1      30.574  18.227   8.574  0.00  0.00     0.002 C 
HETATM   17  C   UNK N   1      30.418  17.215   7.447  0.00  0.00     0.025 C 
ENDBRANCH  10  12
BRANCH   9  18
HETATM   18  O   UNK N   1      28.243  16.931   4.061  0.00  0.00    -0.333 OA
HETATM   19  H   UNK N   1      28.216  16.154   4.584  0.00  0.00     0.220 HD
ENDBRANCH   9  18
ENDBRANCH   7   9
ENDBRANCH   5   7
BRANCH   6  20
HETATM   20  O   UNK N   1      22.538  19.785   3.291  0.00  0.00    -0.349 OA
BRANCH  20  21
HETATM   21  C   UNK N   1      22.087  20.480   2.209  0.00  0.00     0.209 C 
BRANCH  21  22
HETATM   22  C   UNK N   1      20.769  19.963   1.669  0.00  0.00     0.159 C 
BRANCH  22  23
HETATM   23  C   UNK N   1      20.671  18.494   2.057  0.00  0.00     0.148 C 
BRANCH  23  24
HETATM   24  N   UNK N   1      20.042  18.363   3.373  0.00  0.00    -0.411 N 
HETATM   25  H   UNK N   1      19.378  19.038   3.753  0.00  0.00     0.154 HD
BRANCH  24  26
HETATM   26  C   UNK N   1      20.474  17.151   4.086  0.00  0.00     0.014 C 
HETATM   27  C   UNK N   1      21.551  16.482   3.261  0.00  0.00     0.037 C 
HETATM   28  C   UNK N   1      19.351  16.141   4.274  0.00  0.00     0.037 C 
HETATM   29  C   UNK N   1      21.057  17.503   5.443  0.00  0.00     0.037 C 
ENDBRANCH  24  26
ENDBRANCH  23  24
ENDBRANCH  22  23
BRANCH  22  30
HETATM   30  O   UNK N   1      20.746  20.065   0.277  0.00  0.00    -0.392 OA
HETATM   31  H   UNK N   1      21.011  19.418  -0.396  0.00  0.00     0.210 HD
ENDBRANCH  22  30
ENDBRANCH  21  22
ENDBRANCH  20  21
ENDBRANCH   6  20
TORSDOF 11
ENDMDL
MODEL 3
REMARK VINA RESULT:      -6.2      4.263      8.886
REMARK  11 active torsions:
REMARK  status: ('A' for Active; 'I' for Inactive)
REMARK    1  A    between atoms: C_17  and  C_13 
REMARK    2  A    between atoms: N_21  and  C_13 
REMARK    3  A    between atoms: C_17  and  C_14 
REMARK    4  A    between atoms: O_27  and  C_14 
REMARK    5  A    between atoms: N_22  and  C_15 
REMARK    6  A    between atoms: N_24  and  C_16 
REMARK    7  A    between atoms: O_25  and  C_17 
REMARK    8  A    between atoms: O_27  and  C_18 
REMARK    9  A    between atoms: N_24  and  C_19 
REMARK   10  A    between atoms: O_26  and  C_19 
REMARK   11  A    between atoms: N_21  and  C_20 
ROOT
HETATM    1  C   UNK N   1      33.032  15.380   9.225  0.00  0.00     0.032 A 
HETATM    2  C   UNK N   1      34.241  17.415   8.718  0.00  0.00     0.032 A 
HETATM    3  C   UNK N   1      31.848  15.982   8.805  0.00  0.00     0.039 A 
HETATM    4  C   UNK N   1      33.063  18.011   8.282  0.00  0.00     0.039 A 
HETATM    5  C   UNK N   1      34.237  16.096   9.185  0.00  0.00     0.035 A 
HETATM    6  C   UNK N   1      31.872  17.286   8.294  0.00  0.00     0.069 A 
ENDROOT
BRANCH   5   7
HETATM    7  N   UNK N   1      35.464  15.403   9.195  0.00  0.00    -0.323 N 
HETATM    8  H   UNK N   1      35.864  15.052   8.368  0.00  0.00     0.169 HD
BRANCH   7   9
HETATM    9  C   UNK N   1      36.098  15.234  10.460  0.00  0.00     0.217 C 
HETATM   10  N   UNK N   1      35.836  14.166  11.152  0.00  0.00    -0.352 N 
ATOM     11  HN  UNK N   1      35.042  13.603  10.843  1.00  0.00     0.163 HD
BRANCH  10  12
HETATM   12  C   UNK N   1      36.552  13.688  12.318  0.00  0.00     0.085 C 
HETATM   13  C   UNK N   1      37.326  12.408  11.980  0.00  0.00     0.025 C 
HETATM   14  C   UNK N   1      36.423  11.177  12.042  0.00  0.00     0.002 C 
HETATM   15  C   UNK N   1      35.806  11.074  13.431  0.00  0.00     0.000 C 
HETATM   16  C   UNK N   1      34.920  12.288  13.673  0.00  0.00     0.002 C 
HETATM   17  C   UNK N   1      35.748  13.564  13.618  0.00  0.00     0.025 C 
ENDBRANCH  10  12
BRANCH   9  18
HETATM   18  O   UNK N   1      37.042  16.104  10.850  0.00  0.00    -0.333 OA
HETATM   19  H   UNK N   1      37.402  16.746  10.270  0.00  0.00     0.220 HD
ENDBRANCH   9  18
ENDBRANCH   7   9
ENDBRANCH   5   7
BRANCH   6  20
HETATM   20  O   UNK N   1      30.757  17.841   7.798  0.00  0.00    -0.349 OA
BRANCH  20  21
HETATM   21  C   UNK N   1      29.813  18.308   8.662  0.00  0.00     0.209 C 
BRANCH  21  22
HETATM   22  C   UNK N   1      28.466  17.631   8.506  0.00  0.00     0.159 C 
BRANCH  22  23
HETATM   23  C   UNK N   1      28.070  17.754   7.041  0.00  0.00     0.148 C 
BRANCH  23  24
HETATM   24  N   UNK N   1      27.084  18.824   6.875  0.00  0.00    -0.411 N 
HETATM   25  H   UNK N   1      26.325  19.002   7.532  0.00  0.00     0.154 HD
BRANCH  24  26
HETATM   26  C   UNK N   1      27.310  19.613   5.655  0.00  0.00     0.014 C 
HETATM   27  C   UNK N   1      26.038  19.585   4.837  0.00  0.00     0.037 C 
HETATM   28  C   UNK N   1      28.424  19.051   4.782  0.00  0.00     0.037 C 
HETATM   29  C   UNK N   1      27.631  21.057   5.997  0.00  0.00     0.037 C 
ENDBRANCH  24  26
ENDBRANCH  23  24
ENDBRANCH  22  23
BRANCH  22  30
HETATM   30  O   UNK N   1      27.508  18.280   9.288  0.00  0.00    -0.392 OA
HETATM   31  H   UNK N   1      26.696  17.931   9.689  0.00  0.00     0.210 HD
ENDBRANCH  22  30
ENDBRANCH  21  22
ENDBRANCH  20  21
ENDBRANCH   6  20
TORSDOF 11
ENDMDL
MODEL 4
REMARK VINA RESULT:      -6.1      6.101     10.073
REMARK  11 active torsions:
REMARK  status: ('A' for Active; 'I' for Inactive)
REMARK    1  A    between atoms: C_17  and  C_13 
REMARK    2  A    between atoms: N_21  and  C_13 
REMARK    3  A    between atoms: C_17  and  C_14 
REMARK    4  A    between atoms: O_27  and  C_14 
REMARK    5  A    between atoms: N_22  and  C_15 
REMARK    6  A    between atoms: N_24  and  C_16 
REMARK    7  A    between atoms: O_25  and  C_17 
REMARK    8  A    between atoms: O_27  and  C_18 
REMARK    9  A    between atoms: N_24  and  C_19 
REMARK   10  A    between atoms: O_26  and  C_19 
REMARK   11  A    between atoms: N_21  and  C_20 
ROOT
HETATM    1  C   UNK N   1      35.998  15.302  12.044  0.00  0.00     0.032 A 
HETATM    2  C   UNK N   1      36.865  13.869  10.295  0.00  0.00     0.032 A 
HETATM    3  C   UNK N   1      35.254  16.003  11.098  0.00  0.00     0.039 A 
HETATM    4  C   UNK N   1      36.109  14.558   9.351  0.00  0.00     0.039 A 
HETATM    5  C   UNK N   1      36.810  14.230  11.645  0.00  0.00     0.035 A 
HETATM    6  C   UNK N   1      35.280  15.602   9.755  0.00  0.00     0.069 A 
ENDROOT
BRANCH   5   7
HETATM    7  N   UNK N   1      37.220  13.271  12.594  0.00  0.00    -0.323 N 
HETATM    8  H   UNK N   1      38.170  13.140  12.818  0.00  0.00     0.169 HD
BRANCH   7   9
HETATM    9  C   UNK N   1      36.194  12.501  13.215  0.00  0.00     0.217 C 
HETATM   10  N   UNK N   1      36.038  12.592  14.502  0.00  0.00    -0.352 N 
ATOM     11  HN  UNK N   1      36.782  13.057  15.022  1.00  0.00     0.163 HD
BRANCH  10  12
HETATM   12  C   UNK N   1      34.915  12.102  15.277  0.00  0.00     0.085 C 
HETATM   13  C   UNK N   1      34.462  13.162  16.288  0.00  0.00     0.025 C 
HETATM   14  C   UNK N   1      35.329  13.142  17.546  0.00  0.00     0.002 C 
HETATM   15  C   UNK N   1      35.275  11.754  18.172  0.00  0.00     0.000 C 
HETATM   16  C   UNK N   1      35.876  10.746  17.201  0.00  0.00     0.002 C 
HETATM   17  C   UNK N   1      35.069  10.714  15.910  0.00  0.00     0.025 C 
ENDBRANCH  10  12
BRANCH   9  18
HETATM   18  O   UNK N   1      35.335  11.806  12.454  0.00  0.00    -0.333 OA
HETATM   19  H   UNK N   1      35.313  11.887  11.521  0.00  0.00     0.220 HD
ENDBRANCH   9  18
ENDBRANCH   7   9
ENDBRANCH   5   7
BRANCH   6  20
HETATM   20  O   UNK N   1      34.495  16.208   8.852  0.00  0.00    -0.349 OA
BRANCH  20  21
HETATM   21  C   UNK N   1      34.360  17.563   8.901  0.00  0.00     0.209 C 
BRANCH  21  22
HETATM   22  C   UNK N   1      33.562  18.131   7.744  0.00  0.00     0.159 C 
BRANCH  22  23
HETATM   23  C   UNK N   1      32.286  17.307   7.633  0.00  0.00     0.148 C 
BRANCH  23  24
HETATM   24  N   UNK N   1      31.650  17.189   8.947  0.00  0.00    -0.411 N 
HETATM   25  H   UNK N   1      32.127  16.842   9.779  0.00  0.00     0.154 HD
BRANCH  24  26
HETATM   26  C   UNK N   1      30.245  17.624   8.933  0.00  0.00     0.014 C 
HETATM   27  C   UNK N   1      30.212  19.110   9.215  0.00  0.00     0.037 C 
HETATM   28  C   UNK N   1      29.401  16.939  10.000  0.00  0.00     0.037 C 
HETATM   29  C   UNK N   1      29.617  17.378   7.573  0.00  0.00     0.037 C 
ENDBRANCH  24  26
ENDBRANCH  23  24
ENDBRANCH  22  23
BRANCH  22  30
HETATM   30  O   UNK N   1      34.284  18.007   6.555  0.00  0.00    -0.392 OA
HETATM   31  H   UNK N   1      34.484  17.214   6.032  0.00  0.00     0.210 HD
ENDBRANCH  22  30
ENDBRANCH  21  22
ENDBRANCH  20  21
ENDBRANCH   6  20
TORSDOF 11
ENDMDL
MODEL 5
REMARK VINA RESULT:      -6.1      9.074     13.149
REMARK  11 active torsions:
REMARK  status: ('A' for Active; 'I' for Inactive)
REMARK    1  A    between atoms: C_17  and  C_13 
REMARK    2  A    between atoms: N_21  and  C_13 
REMARK    3  A    between atoms: C_17  and  C_14 
REMARK    4  A    between atoms: O_27  and  C_14 
REMARK    5  A    between atoms: N_22  and  C_15 
REMARK    6  A    between atoms: N_24  and  C_16 
REMARK    7  A    between atoms: O_25  and  C_17 
REMARK    8  A    between atoms: O_27  and  C_18 
REMARK    9  A    between atoms: N_24  and  C_19 
REMARK   10  A    between atoms: O_26  and  C_19 
REMARK   11  A    between atoms: N_21  and  C_20 
ROOT
HETATM    1  C   UNK N   1      36.660  14.400  16.425  0.00  0.00     0.032 A 
HETATM    2  C   UNK N   1      34.840  12.939  15.782  0.00  0.00     0.032 A 
HETATM    3  C   UNK N   1      36.993  14.572  15.084  0.00  0.00     0.039 A 
HETATM    4  C   UNK N   1      35.160  13.124  14.441  0.00  0.00     0.039 A 
HETATM    5  C   UNK N   1      35.580  13.580  16.781  0.00  0.00     0.035 A 
HETATM    6  C   UNK N   1      36.215  13.964  14.089  0.00  0.00     0.069 A 
ENDROOT
BRANCH   5   7
HETATM    7  N   UNK N   1      34.978  13.724  18.048  0.00  0.00    -0.323 N 
HETATM    8  H   UNK N   1      34.426  14.509  18.269  0.00  0.00     0.169 HD
BRANCH   7   9
HETATM    9  C   UNK N   1      35.208  12.683  18.993  0.00  0.00     0.217 C 
HETATM   10  N   UNK N   1      35.237  11.454  18.572  0.00  0.00    -0.352 N 
ATOM     11  HN  UNK N   1      34.898  11.286  17.625  1.00  0.00     0.163 HD
BRANCH  10  12
HETATM   12  C   UNK N   1      35.700  10.294  19.309  0.00  0.00     0.085 C 
HETATM   13  C   UNK N   1      36.502   9.365  18.390  0.00  0.00     0.025 C 
HETATM   14  C   UNK N   1      35.582   8.464  17.567  0.00  0.00     0.002 C 
HETATM   15  C   UNK N   1      34.700   7.651  18.507  0.00  0.00     0.000 C 
HETATM   16  C   UNK N   1      33.806   8.599  19.295  0.00  0.00     0.002 C 
HETATM   17  C   UNK N   1      34.653   9.542  20.139  0.00  0.00     0.025 C 
ENDBRANCH  10  12
BRANCH   9  18
HETATM   18  O   UNK N   1      35.519  12.995  20.260  0.00  0.00    -0.333 OA
HETATM   19  H   UNK N   1      36.399  12.964  20.583  0.00  0.00     0.220 HD
ENDBRANCH   9  18
ENDBRANCH   7   9
ENDBRANCH   5   7
BRANCH   6  20
HETATM   20  O   UNK N   1      36.467  14.200  12.793  0.00  0.00    -0.349 OA
BRANCH  20  21
HETATM   21  C   UNK N   1      35.456  14.645  11.996  0.00  0.00     0.209 C 
BRANCH  21  22
HETATM   22  C   UNK N   1      35.821  15.876  11.191  0.00  0.00     0.159 C 
BRANCH  22  23
HETATM   23  C   UNK N   1      34.968  15.855   9.930  0.00  0.00     0.148 C 
BRANCH  23  24
HETATM   24  N   UNK N   1      34.167  17.078   9.846  0.00  0.00    -0.411 N 
HETATM   25  H   UNK N   1      33.948  17.669  10.648  0.00  0.00     0.154 HD
BRANCH  24  26
HETATM   26  C   UNK N   1      33.711  17.360   8.476  0.00  0.00     0.014 C 
HETATM   27  C   UNK N   1      34.425  18.601   7.990  0.00  0.00     0.037 C 
HETATM   28  C   UNK N   1      32.216  17.634   8.393  0.00  0.00     0.037 C 
HETATM   29  C   UNK N   1      34.056  16.211   7.546  0.00  0.00     0.037 C 
ENDBRANCH  24  26
ENDBRANCH  23  24
ENDBRANCH  22  23
BRANCH  22  30
HETATM   30  O   UNK N   1      37.168  15.830  10.825  0.00  0.00    -0.392 OA
HETATM   31  H   UNK N   1      37.928  16.301  11.200  0.00  0.00     0.210 HD
ENDBRANCH  22  30
ENDBRANCH  21  22
ENDBRANCH  20  21
ENDBRANCH   6  20
TORSDOF 11
ENDMDL
MODEL 6
REMARK VINA RESULT:      -6.0      2.302      5.836
REMARK  11 active torsions:
REMARK  status: ('A' for Active; 'I' for Inactive)
REMARK    1  A    between atoms: C_17  and  C_13 
REMARK    2  A    between atoms: N_21  and  C_13 
REMARK    3  A    between atoms: C_17  and  C_14 
REMARK    4  A    between atoms: O_27  and  C_14 
REMARK    5  A    between atoms: N_22  and  C_15 
REMARK    6  A    between atoms: N_24  and  C_16 
REMARK    7  A    between atoms: O_25  and  C_17 
REMARK    8  A    between atoms: O_27  and  C_18 
REMARK    9  A    between atoms: N_24  and  C_19 
REMARK   10  A    between atoms: O_26  and  C_19 
REMARK   11  A    between atoms: N_21  and  C_20 
ROOT
HETATM    1  C   UNK N   1      32.497  15.518   8.543  0.00  0.00     0.032 A 
HETATM    2  C   UNK N   1      34.019  17.305   7.951  0.00  0.00     0.032 A 
HETATM    3  C   UNK N   1      31.499  16.455   8.798  0.00  0.00     0.039 A 
HETATM    4  C   UNK N   1      33.018  18.241   8.189  0.00  0.00     0.039 A 
HETATM    5  C   UNK N   1      33.765  15.940   8.118  0.00  0.00     0.035 A 
HETATM    6  C   UNK N   1      31.750  17.817   8.581  0.00  0.00     0.069 A 
ENDROOT
BRANCH   5   7
HETATM    7  N   UNK N   1      34.623  15.031   7.465  0.00  0.00    -0.323 N 
HETATM    8  H   UNK N   1      35.138  14.358   7.966  0.00  0.00     0.169 HD
BRANCH   7   9
HETATM    9  C   UNK N   1      34.711  15.133   6.047  0.00  0.00     0.217 C 
HETATM   10  N   UNK N   1      33.612  15.145   5.353  0.00  0.00    -0.352 N 
ATOM     11  HN  UNK N   1      32.757  14.881   5.844  1.00  0.00     0.163 HD
BRANCH  10  12
HETATM   12  C   UNK N   1      33.473  15.492   3.953  0.00  0.00     0.085 C 
HETATM   13  C   UNK N   1      33.176  16.989   3.802  0.00  0.00     0.025 C 
HETATM   14  C   UNK N   1      31.693  17.288   4.015  0.00  0.00     0.002 C 
HETATM   15  C   UNK N   1      30.868  16.480   3.021  0.00  0.00     0.000 C 
HETATM   16  C   UNK N   1      31.066  14.996   3.299  0.00  0.00     0.002 C 
HETATM   17  C   UNK N   1      32.530  14.618   3.117  0.00  0.00     0.025 C 
ENDBRANCH  10  12
BRANCH   9  18
HETATM   18  O   UNK N   1      35.903  15.348   5.470  0.00  0.00    -0.333 OA
HETATM   19  H   UNK N   1      36.390  16.137   5.604  0.00  0.00     0.220 HD
ENDBRANCH   9  18
ENDBRANCH   7   9
ENDBRANCH   5   7
BRANCH   6  20
HETATM   20  O   UNK N   1      30.769  18.719   8.731  0.00  0.00    -0.349 OA
BRANCH  20  21
HETATM   21  C   UNK N   1      29.677  18.386   9.473  0.00  0.00     0.209 C 
BRANCH  21  22
HETATM   22  C   UNK N   1      28.447  18.090   8.638  0.00  0.00     0.159 C 
BRANCH  22  23
HETATM   23  C   UNK N   1      28.361  19.172   7.570  0.00  0.00     0.148 C 
BRANCH  23  24
HETATM   24  N   UNK N   1      27.106  19.045   6.826  0.00  0.00    -0.411 N 
HETATM   25  H   UNK N   1      26.360  18.398   7.080  0.00  0.00     0.154 HD
BRANCH  24  26
HETATM   26  C   UNK N   1      27.042  19.953   5.671  0.00  0.00     0.014 C 
HETATM   27  C   UNK N   1      27.210  21.368   6.177  0.00  0.00     0.037 C 
HETATM   28  C   UNK N   1      25.708  19.888   4.939  0.00  0.00     0.037 C 
HETATM   29  C   UNK N   1      28.160  19.656   4.689  0.00  0.00     0.037 C 
ENDBRANCH  24  26
ENDBRANCH  23  24
ENDBRANCH  22  23
BRANCH  22  30
HETATM   30  O   UNK N   1      27.300  18.147   9.432  0.00  0.00    -0.392 OA
HETATM   31  H   UNK N   1      26.385  17.907   9.216  0.00  0.00     0.210 HD
ENDBRANCH  22  30
ENDBRANCH  21  22
ENDBRANCH  20  21
ENDBRANCH   6  20
TORSDOF 11
ENDMDL
MODEL 7
REMARK VINA RESULT:      -6.0      5.901     10.123
REMARK  11 active torsions:
REMARK  status: ('A' for Active; 'I' for Inactive)
REMARK    1  A    between atoms: C_17  and  C_13 
REMARK    2  A    between atoms: N_21  and  C_13 
REMARK    3  A    between atoms: C_17  and  C_14 
REMARK    4  A    between atoms: O_27  and  C_14 
REMARK    5  A    between atoms: N_22  and  C_15 
REMARK    6  A    between atoms: N_24  and  C_16 
REMARK    7  A    between atoms: O_25  and  C_17 
REMARK    8  A    between atoms: O_27  and  C_18 
REMARK    9  A    between atoms: N_24  and  C_19 
REMARK   10  A    between atoms: O_26  and  C_19 
REMARK   11  A    between atoms: N_21  and  C_20 
ROOT
HETATM    1  C   UNK N   1      35.671  15.869  11.506  0.00  0.00     0.032 A 
HETATM    2  C   UNK N   1      36.623  13.938  10.397  0.00  0.00     0.032 A 
HETATM    3  C   UNK N   1      35.084  16.265  10.306  0.00  0.00     0.039 A 
HETATM    4  C   UNK N   1      36.023  14.324   9.203  0.00  0.00     0.039 A 
HETATM    5  C   UNK N   1      36.446  14.701  11.557  0.00  0.00     0.035 A 
HETATM    6  C   UNK N   1      35.228  15.468   9.163  0.00  0.00     0.069 A 
ENDROOT
BRANCH   5   7
HETATM    7  N   UNK N   1      36.683  14.072  12.795  0.00  0.00    -0.323 N 
HETATM    8  H   UNK N   1      37.569  14.097  13.225  0.00  0.00     0.169 HD
BRANCH   7   9
HETATM    9  C   UNK N   1      35.582  13.397  13.396  0.00  0.00     0.217 C 
HETATM   10  N   UNK N   1      35.672  13.044  14.644  0.00  0.00    -0.352 N 
ATOM     11  HN  UNK N   1      36.598  13.092  15.068  1.00  0.00     0.163 HD
BRANCH  10  12
HETATM   12  C   UNK N   1      34.593  12.587  15.497  0.00  0.00     0.085 C 
HETATM   13  C   UNK N   1      35.061  12.517  16.956  0.00  0.00     0.025 C 
HETATM   14  C   UNK N   1      35.820  11.221  17.237  0.00  0.00     0.002 C 
HETATM   15  C   UNK N   1      34.927  10.032  16.908  0.00  0.00     0.000 C 
HETATM   16  C   UNK N   1      34.608  10.046  15.419  0.00  0.00     0.002 C 
HETATM   17  C   UNK N   1      33.854  11.318  15.054  0.00  0.00     0.025 C 
ENDBRANCH  10  12
BRANCH   9  18
HETATM   18  O   UNK N   1      34.436  13.258  12.712  0.00  0.00    -0.333 OA
HETATM   19  H   UNK N   1      33.919  13.993  12.445  0.00  0.00     0.220 HD
ENDBRANCH   9  18
ENDBRANCH   7   9
ENDBRANCH   5   7
BRANCH   6  20
HETATM   20  O   UNK N   1      34.589  15.788   8.029  0.00  0.00    -0.349 OA
BRANCH  20  21
HETATM   21  C   UNK N   1      33.496  16.598   8.095  0.00  0.00     0.209 C 
BRANCH  21  22
HETATM   22  C   UNK N   1      33.609  17.835   7.227  0.00  0.00     0.159 C 
BRANCH  22  23
HETATM   23  C   UNK N   1      33.741  17.360   5.787  0.00  0.00     0.148 C 
BRANCH  23  24
HETATM   24  N   UNK N   1      32.881  16.197   5.561  0.00  0.00    -0.411 N 
HETATM   25  H   UNK N   1      32.812  15.409   6.206  0.00  0.00     0.154 HD
BRANCH  24  26
HETATM   26  C   UNK N   1      32.130  16.288   4.300  0.00  0.00     0.014 C 
HETATM   27  C   UNK N   1      31.298  17.551   4.341  0.00  0.00     0.037 C 
HETATM   28  C   UNK N   1      31.174  15.121   4.093  0.00  0.00     0.037 C 
HETATM   29  C   UNK N   1      33.074  16.372   3.114  0.00  0.00     0.037 C 
ENDBRANCH  24  26
ENDBRANCH  23  24
ENDBRANCH  22  23
BRANCH  22  30
HETATM   30  O   UNK N   1      34.752  18.561   7.570  0.00  0.00    -0.392 OA
HETATM   31  H   UNK N   1      34.832  19.394   8.061  0.00  0.00     0.210 HD
ENDBRANCH  22  30
ENDBRANCH  21  22
ENDBRANCH  20  21
ENDBRANCH   6  20
TORSDOF 11
ENDMDL
MODEL 8
REMARK VINA RESULT:      -5.9      4.422      9.467
REMARK  11 active torsions:
REMARK  status: ('A' for Active; 'I' for Inactive)
REMARK    1  A    between atoms: C_17  and  C_13 
REMARK    2  A    between atoms: N_21  and  C_13 
REMARK    3  A    between atoms: C_17  and  C_14 
REMARK    4  A    between atoms: O_27  and  C_14 
REMARK    5  A    between atoms: N_22  and  C_15 
REMARK    6  A    between atoms: N_24  and  C_16 
REMARK    7  A    between atoms: O_25  and  C_17 
REMARK    8  A    between atoms: O_27  and  C_18 
REMARK    9  A    between atoms: N_24  and  C_19 
REMARK   10  A    between atoms: O_26  and  C_19 
REMARK   11  A    between atoms: N_21  and  C_20 
ROOT
HETATM    1  C   UNK N   1      26.179  20.190   3.331  0.00  0.00     0.032 A 
HETATM    2  C   UNK N   1      25.555  18.399   4.837  0.00  0.00     0.032 A 
HETATM    3  C   UNK N   1      24.835  20.407   3.037  0.00  0.00     0.039 A 
HETATM    4  C   UNK N   1      24.212  18.626   4.557  0.00  0.00     0.039 A 
HETATM    5  C   UNK N   1      26.546  19.181   4.234  0.00  0.00     0.035 A 
HETATM    6  C   UNK N   1      23.848  19.650   3.683  0.00  0.00     0.069 A 
ENDROOT
BRANCH   5   7
HETATM    7  N   UNK N   1      27.812  19.222   4.852  0.00  0.00    -0.323 N 
HETATM    8  H   UNK N   1      28.039  19.912   5.516  0.00  0.00     0.169 HD
BRANCH   7   9
HETATM    9  C   UNK N   1      28.748  18.218   4.470  0.00  0.00     0.217 C 
HETATM   10  N   UNK N   1      29.710  17.917   5.291  0.00  0.00    -0.352 N 
ATOM     11  HN  UNK N   1      29.859  18.554   6.074  1.00  0.00     0.163 HD
BRANCH  10  12
HETATM   12  C   UNK N   1      30.597  16.774   5.209  0.00  0.00     0.085 C 
HETATM   13  C   UNK N   1      31.225  16.488   6.578  0.00  0.00     0.025 C 
HETATM   14  C   UNK N   1      32.430  17.391   6.838  0.00  0.00     0.002 C 
HETATM   15  C   UNK N   1      33.457  17.194   5.730  0.00  0.00     0.000 C 
HETATM   16  C   UNK N   1      32.850  17.634   4.405  0.00  0.00     0.002 C 
HETATM   17  C   UNK N   1      31.630  16.783   4.076  0.00  0.00     0.025 C 
ENDBRANCH  10  12
BRANCH   9  18
HETATM   18  O   UNK N   1      28.545  17.515   3.345  0.00  0.00    -0.333 OA
HETATM   19  H   UNK N   1      28.534  17.917   2.499  0.00  0.00     0.220 HD
ENDBRANCH   9  18
ENDBRANCH   7   9
ENDBRANCH   5   7
BRANCH   6  20
HETATM   20  O   UNK N   1      22.550  19.915   3.481  0.00  0.00    -0.349 OA
BRANCH  20  21
HETATM   21  C   UNK N   1      22.158  20.404   2.271  0.00  0.00     0.209 C 
BRANCH  21  22
HETATM   22  C   UNK N   1      20.708  20.110   1.943  0.00  0.00     0.159 C 
BRANCH  22  23
HETATM   23  C   UNK N   1      20.274  18.953   2.832  0.00  0.00     0.148 C 
BRANCH  23  24
HETATM   24  N   UNK N   1      20.765  17.687   2.282  0.00  0.00    -0.411 N 
HETATM   25  H   UNK N   1      20.964  17.538   1.293  0.00  0.00     0.154 HD
BRANCH  24  26
HETATM   26  C   UNK N   1      20.936  16.654   3.315  0.00  0.00     0.014 C 
HETATM   27  C   UNK N   1      19.850  15.618   3.126  0.00  0.00     0.037 C 
HETATM   28  C   UNK N   1      20.802  17.201   4.729  0.00  0.00     0.037 C 
HETATM   29  C   UNK N   1      22.284  15.970   3.175  0.00  0.00     0.037 C 
ENDBRANCH  24  26
ENDBRANCH  23  24
ENDBRANCH  22  23
BRANCH  22  30
HETATM   30  O   UNK N   1      20.586  19.724   0.607  0.00  0.00    -0.392 OA
HETATM   31  H   UNK N   1      21.257  19.373   0.000  0.00  0.00     0.210 HD
ENDBRANCH  22  30
ENDBRANCH  21  22
ENDBRANCH  20  21
ENDBRANCH   6  20
TORSDOF 11
ENDMDL
MODEL 9
REMARK VINA RESULT:      -5.9      3.900      6.032
REMARK  11 active torsions:
REMARK  status: ('A' for Active; 'I' for Inactive)
REMARK    1  A    between atoms: C_17  and  C_13 
REMARK    2  A    between atoms: N_21  and  C_13 
REMARK    3  A    between atoms: C_17  and  C_14 
REMARK    4  A    between atoms: O_27  and  C_14 
REMARK    5  A    between atoms: N_22  and  C_15 
REMARK    6  A    between atoms: N_24  and  C_16 
REMARK    7  A    between atoms: O_25  and  C_17 
REMARK    8  A    between atoms: O_27  and  C_18 
REMARK    9  A    between atoms: N_24  and  C_19 
REMARK   10  A    between atoms: O_26  and  C_19 
REMARK   11  A    between atoms: N_21  and  C_20 
ROOT
HETATM    1  C   UNK N   1      26.350  20.585   5.041  0.00  0.00     0.032 A 
HETATM    2  C   UNK N   1      26.266  18.313   4.208  0.00  0.00     0.032 A 
HETATM    3  C   UNK N   1      27.337  20.212   5.951  0.00  0.00     0.039 A 
HETATM    4  C   UNK N   1      27.263  17.943   5.104  0.00  0.00     0.039 A 
HETATM    5  C   UNK N   1      25.808  19.634   4.164  0.00  0.00     0.035 A 
HETATM    6  C   UNK N   1      27.822  18.897   5.953  0.00  0.00     0.069 A 
ENDROOT
BRANCH   5   7
HETATM    7  N   UNK N   1      25.148  20.058   2.993  0.00  0.00    -0.323 N 
HETATM    8  H   UNK N   1      25.634  20.191   2.147  0.00  0.00     0.169 HD
BRANCH   7   9
HETATM    9  C   UNK N   1      23.745  20.286   3.091  0.00  0.00     0.217 C 
HETATM   10  N   UNK N   1      22.975  19.299   3.444  0.00  0.00    -0.352 N 
ATOM     11  HN  UNK N   1      23.393  18.369   3.439  1.00  0.00     0.163 HD
BRANCH  10  12
HETATM   12  C   UNK N   1      21.585  19.382   3.843  0.00  0.00     0.085 C 
HETATM   13  C   UNK N   1      21.340  18.538   5.099  0.00  0.00     0.025 C 
HETATM   14  C   UNK N   1      21.142  17.063   4.750  0.00  0.00     0.002 C 
HETATM   15  C   UNK N   1      19.975  16.926   3.781  0.00  0.00     0.000 C 
HETATM   16  C   UNK N   1      20.316  17.648   2.485  0.00  0.00     0.002 C 
HETATM   17  C   UNK N   1      20.538  19.130   2.750  0.00  0.00     0.025 C 
ENDBRANCH  10  12
BRANCH   9  18
HETATM   18  O   UNK N   1      23.264  21.530   2.949  0.00  0.00    -0.333 OA
HETATM   19  H   UNK N   1      22.676  21.765   2.257  0.00  0.00     0.220 HD
ENDBRANCH   9  18
ENDBRANCH   7   9
ENDBRANCH   5   7
BRANCH   6  20
HETATM   20  O   UNK N   1      28.838  18.551   6.757  0.00  0.00    -0.349 OA
BRANCH  20  21
HETATM   21  C   UNK N   1      28.612  18.446   8.096  0.00  0.00     0.209 C 
BRANCH  21  22
HETATM   22  C   UNK N   1      29.865  18.607   8.933  0.00  0.00     0.159 C 
BRANCH  22  23
HETATM   23  C   UNK N   1      30.749  17.400   8.651  0.00  0.00     0.148 C 
BRANCH  23  24
HETATM   24  N   UNK N   1      32.159  17.761   8.817  0.00  0.00    -0.411 N 
HETATM   25  H   UNK N   1      32.509  18.344   9.578  0.00  0.00     0.154 HD
BRANCH  24  26
HETATM   26  C   UNK N   1      33.014  17.191   7.765  0.00  0.00     0.014 C 
HETATM   27  C   UNK N   1      34.339  17.920   7.792  0.00  0.00     0.037 C 
HETATM   28  C   UNK N   1      32.429  17.362   6.369  0.00  0.00     0.037 C 
HETATM   29  C   UNK N   1      33.270  15.716   8.018  0.00  0.00     0.037 C 
ENDBRANCH  24  26
ENDBRANCH  23  24
ENDBRANCH  22  23
BRANCH  22  30
HETATM   30  O   UNK N   1      29.538  18.620  10.291  0.00  0.00    -0.392 OA
HETATM   31  H   UNK N   1      30.056  18.933  11.049  0.00  0.00     0.210 HD
ENDBRANCH  22  30
ENDBRANCH  21  22
ENDBRANCH  20  21
ENDBRANCH   6  20
TORSDOF 11
ENDMDL
