MODEL 1
REMARK VINA RESULT:      -7.2      0.000      0.000
REMARK  9 active torsions:
REMARK  status: ('A' for Active; 'I' for Inactive)
REMARK       I    between atoms: C_2  and  N_4 
REMARK    1  A    between atoms: N_4  and  C_5 
REMARK    2  A    between atoms: C_5  and  C_6 
REMARK    3  A    between atoms: C_6  and  O_7 
REMARK    4  A    between atoms: O_7  and  C_8 
REMARK    5  A    between atoms: C_8  and  C_10 
REMARK    6  A    between atoms: C_10  and  C_11 
REMARK    7  A    between atoms: C_10  and  O_18 
REMARK    8  A    between atoms: O_18  and  C_19 
REMARK    9  A    between atoms: C_23  and  C_25 
ROOT
HETATM    1  C   UNK N   1      21.922  18.301   5.002  0.00  0.00     0.261 C 
ENDROOT
BRANCH   1   2
HETATM    2  C   UNK N   1      21.347  17.886   6.355  0.00  0.00     0.293 C 
HETATM    3  O   UNK N   1      21.155  18.736   7.207  0.00  0.00    -0.262 OA
BRANCH   2   4
HETATM    4  O   UNK N   1      20.953  16.608   6.609  0.00  0.00    -0.318 OA
BRANCH   4   5
HETATM    5  C   UNK N   1      21.800  15.530   6.543  0.00  0.00     0.198 C 
BRANCH   5   6
HETATM    6  C   UNK N   1      21.970  14.871   7.890  0.00  0.00     0.149 C 
BRANCH   6   7
HETATM    7  N   UNK N   1      20.674  14.778   8.514  0.00  0.00    -0.359 N 
HETATM    8  C   UNK N   1      20.444  13.999   9.598  0.00  0.00     0.213 C 
HETATM    9  C   UNK N   1      21.541  13.200  10.228  0.00  0.00     0.117 C 
HETATM   10  O   UNK N   1      19.319  13.939  10.067  0.00  0.00    -0.274 OA
HETATM   11  H   UNK N   1      19.928  15.300   8.138  0.00  0.00     0.162 HD
ENDBRANCH   6   7
ENDBRANCH   5   6
ENDBRANCH   4   5
ENDBRANCH   2   4
ENDBRANCH   1   2
BRANCH   1  12
HETATM   12  C   UNK N   1      21.244  17.783   3.750  0.00  0.00    -0.019 A 
HETATM   13  C   UNK N   1      21.621  16.567   3.152  0.00  0.00     0.012 A 
HETATM   14  C   UNK N   1      21.030  16.157   1.955  0.00  0.00     0.024 A 
HETATM   15  C   UNK N   1      20.066  16.961   1.341  0.00  0.00     0.034 A 
HETATM   16  C   UNK N   1      19.687  18.171   1.929  0.00  0.00     0.024 A 
HETATM   17 Cl   UNK N   1      19.346  16.461  -0.173  0.00  0.00    -0.084 Cl
HETATM   18  C   UNK N   1      20.276  18.580   3.128  0.00  0.00     0.012 A 
ENDBRANCH   1  12
BRANCH   1  19
HETATM   19  O   UNK N   1      23.302  18.093   4.966  0.00  0.00    -0.331 OA
BRANCH  19  20
HETATM   20  C   UNK N   1      24.245  18.927   4.434  0.00  0.00     0.071 A 
HETATM   21  C   UNK N   1      24.048  19.596   3.213  0.00  0.00     0.037 A 
HETATM   22  C   UNK N   1      25.002  20.481   2.718  0.00  0.00     0.004 A 
HETATM   23  C   UNK N   1      26.181  20.697   3.428  0.00  0.00     0.016 A 
HETATM   24  C   UNK N   1      26.412  20.022   4.632  0.00  0.00     0.050 A 
HETATM   25  C   UNK N   1      25.436  19.145   5.136  0.00  0.00     0.052 A 
BRANCH  24  26
HETATM   26  C   UNK N   1      27.705  20.238   5.358  0.00  0.00     0.417 C 
HETATM   27  F   UNK N   1      27.832  19.290   6.356  0.00  0.00    -0.166 F 
HETATM   28  F   UNK N   1      27.752  21.497   5.931  0.00  0.00    -0.166 F 
HETATM   29  F   UNK N   1      28.760  20.108   4.473  0.00  0.00    -0.166 F 
ENDBRANCH  24  26
ENDBRANCH  19  20
ENDBRANCH   1  19
TORSDOF 9
ENDMDL
MODEL 2
REMARK VINA RESULT:      -7.1      8.875     11.616
REMARK  9 active torsions:
REMARK  status: ('A' for Active; 'I' for Inactive)
REMARK       I    between atoms: C_2  and  N_4 
REMARK    1  A    between atoms: N_4  and  C_5 
REMARK    2  A    between atoms: C_5  and  C_6 
REMARK    3  A    between atoms: C_6  and  O_7 
REMARK    4  A    between atoms: O_7  and  C_8 
REMARK    5  A    between atoms: C_8  and  C_10 
REMARK    6  A    between atoms: C_10  and  C_11 
REMARK    7  A    between atoms: C_10  and  O_18 
REMARK    8  A    between atoms: O_18  and  C_19 
REMARK    9  A    between atoms: C_23  and  C_25 
ROOT
HETATM    1  C   UNK N   1      33.292  17.435   8.146  0.00  0.00     0.261 C 
ENDROOT
BRANCH   1   2
HETATM    2  C   UNK N   1      34.582  18.043   8.692  0.00  0.00     0.293 C 
HETATM    3  O   UNK N   1      34.954  19.125   8.273  0.00  0.00    -0.262 OA
BRANCH   2   4
HETATM    4  O   UNK N   1      35.285  17.458   9.700  0.00  0.00    -0.318 OA
BRANCH   4   5
HETATM    5  C   UNK N   1      34.877  16.315  10.341  0.00  0.00     0.198 C 
BRANCH   5   6
HETATM    6  C   UNK N   1      36.041  15.565  10.942  0.00  0.00     0.149 C 
BRANCH   6   7
HETATM    7  N   UNK N   1      35.645  15.086  12.243  0.00  0.00    -0.359 N 
HETATM    8  C   UNK N   1      35.272  13.803  12.461  0.00  0.00     0.213 C 
HETATM    9  C   UNK N   1      35.271  12.795  11.355  0.00  0.00     0.117 C 
HETATM   10  O   UNK N   1      34.921  13.461  13.578  0.00  0.00    -0.274 OA
HETATM   11  H   UNK N   1      35.648  15.715  13.001  0.00  0.00     0.162 HD
ENDBRANCH   6   7
ENDBRANCH   5   6
ENDBRANCH   4   5
ENDBRANCH   2   4
ENDBRANCH   1   2
BRANCH   1  12
HETATM   12  C   UNK N   1      33.347  16.734   6.804  0.00  0.00    -0.019 A 
HETATM   13  C   UNK N   1      33.477  15.337   6.701  0.00  0.00     0.012 A 
HETATM   14  C   UNK N   1      33.604  14.731   5.449  0.00  0.00     0.024 A 
HETATM   15  C   UNK N   1      33.612  15.514   4.292  0.00  0.00     0.034 A 
HETATM   16  C   UNK N   1      33.483  16.902   4.386  0.00  0.00     0.024 A 
HETATM   17 Cl   UNK N   1      33.798  14.757   2.726  0.00  0.00    -0.084 Cl
HETATM   18  C   UNK N   1      33.354  17.509   5.638  0.00  0.00     0.012 A 
ENDBRANCH   1  12
BRANCH   1  19
HETATM   19  O   UNK N   1      32.246  18.358   8.205  0.00  0.00    -0.331 OA
BRANCH  19  20
HETATM   20  C   UNK N   1      30.916  18.082   8.358  0.00  0.00     0.071 A 
HETATM   21  C   UNK N   1      30.197  18.473   9.501  0.00  0.00     0.037 A 
HETATM   22  C   UNK N   1      28.831  18.225   9.609  0.00  0.00     0.004 A 
HETATM   23  C   UNK N   1      28.164  17.562   8.581  0.00  0.00     0.016 A 
HETATM   24  C   UNK N   1      28.864  17.139   7.445  0.00  0.00     0.050 A 
HETATM   25  C   UNK N   1      30.239  17.410   7.333  0.00  0.00     0.052 A 
BRANCH  24  26
HETATM   26  C   UNK N   1      28.134  16.391   6.370  0.00  0.00     0.417 C 
HETATM   27  F   UNK N   1      28.965  15.416   5.849  0.00  0.00    -0.166 F 
HETATM   28  F   UNK N   1      27.746  17.239   5.347  0.00  0.00    -0.166 F 
HETATM   29  F   UNK N   1      27.010  15.790   6.906  0.00  0.00    -0.166 F 
ENDBRANCH  24  26
ENDBRANCH  19  20
ENDBRANCH   1  19
TORSDOF 9
ENDMDL
MODEL 3
REMARK VINA RESULT:      -7.1     14.121     17.012
REMARK  9 active torsions:
REMARK  status: ('A' for Active; 'I' for Inactive)
REMARK       I    between atoms: C_2  and  N_4 
REMARK    1  A    between atoms: N_4  and  C_5 
REMARK    2  A    between atoms: C_5  and  C_6 
REMARK    3  A    between atoms: C_6  and  O_7 
REMARK    4  A    between atoms: O_7  and  C_8 
REMARK    5  A    between atoms: C_8  and  C_10 
REMARK    6  A    between atoms: C_10  and  C_11 
REMARK    7  A    between atoms: C_10  and  O_18 
REMARK    8  A    between atoms: O_18  and  C_19 
REMARK    9  A    between atoms: C_23  and  C_25 
ROOT
HETATM    1  C   UNK N   1      35.292  12.791  13.174  0.00  0.00     0.261 C 
ENDROOT
BRANCH   1   2
HETATM    2  C   UNK N   1      35.326  14.215  12.623  0.00  0.00     0.293 C 
HETATM    3  O   UNK N   1      36.186  14.985  13.012  0.00  0.00    -0.262 OA
BRANCH   2   4
HETATM    4  O   UNK N   1      34.480  14.627  11.639  0.00  0.00    -0.318 OA
BRANCH   4   5
HETATM    5  C   UNK N   1      34.905  15.017  10.393  0.00  0.00     0.198 C 
BRANCH   5   6
HETATM    6  C   UNK N   1      33.931  15.971   9.745  0.00  0.00     0.149 C 
BRANCH   6   7
HETATM    7  N   UNK N   1      34.549  17.273   9.683  0.00  0.00    -0.359 N 
HETATM    8  C   UNK N   1      34.654  17.973   8.528  0.00  0.00     0.213 C 
HETATM    9  C   UNK N   1      34.107  17.437   7.242  0.00  0.00     0.117 C 
HETATM   10  O   UNK N   1      35.210  19.058   8.532  0.00  0.00    -0.274 OA
HETATM   11  H   UNK N   1      34.908  17.667  10.511  0.00  0.00     0.162 HD
ENDBRANCH   6   7
ENDBRANCH   5   6
ENDBRANCH   4   5
ENDBRANCH   2   4
ENDBRANCH   1   2
BRANCH   1  12
HETATM   12  C   UNK N   1      35.112  11.651  12.193  0.00  0.00    -0.019 A 
HETATM   13  C   UNK N   1      35.928  11.515  11.055  0.00  0.00     0.012 A 
HETATM   14  C   UNK N   1      35.684  10.498  10.130  0.00  0.00     0.024 A 
HETATM   15  C   UNK N   1      34.619   9.616  10.327  0.00  0.00     0.034 A 
HETATM   16  C   UNK N   1      33.804   9.744  11.454  0.00  0.00     0.024 A 
HETATM   17 Cl   UNK N   1      34.297   8.359   9.154  0.00  0.00    -0.084 Cl
HETATM   18  C   UNK N   1      34.049  10.760  12.382  0.00  0.00     0.012 A 
ENDBRANCH   1  12
BRANCH   1  19
HETATM   19  O   UNK N   1      34.403  12.696  14.246  0.00  0.00    -0.331 OA
BRANCH  19  20
HETATM   20  C   UNK N   1      34.708  12.382  15.541  0.00  0.00     0.071 A 
HETATM   21  C   UNK N   1      34.860  13.367  16.533  0.00  0.00     0.037 A 
HETATM   22  C   UNK N   1      35.120  13.017  17.856  0.00  0.00     0.004 A 
HETATM   23  C   UNK N   1      35.254  11.675  18.205  0.00  0.00     0.016 A 
HETATM   24  C   UNK N   1      35.134  10.679  17.229  0.00  0.00     0.050 A 
HETATM   25  C   UNK N   1      34.851  11.037  15.899  0.00  0.00     0.052 A 
BRANCH  24  26
HETATM   26  C   UNK N   1      35.322   9.244  17.620  0.00  0.00     0.417 C 
HETATM   27  F   UNK N   1      35.191   8.446  16.498  0.00  0.00    -0.166 F 
HETATM   28  F   UNK N   1      34.382   8.854  18.557  0.00  0.00    -0.166 F 
HETATM   29  F   UNK N   1      36.587   9.072  18.153  0.00  0.00    -0.166 F 
ENDBRANCH  24  26
ENDBRANCH  19  20
ENDBRANCH   1  19
TORSDOF 9
ENDMDL
MODEL 4
REMARK VINA RESULT:      -7.1     13.172     15.021
REMARK  9 active torsions:
REMARK  status: ('A' for Active; 'I' for Inactive)
REMARK       I    between atoms: C_2  and  N_4 
REMARK    1  A    between atoms: N_4  and  C_5 
REMARK    2  A    between atoms: C_5  and  C_6 
REMARK    3  A    between atoms: C_6  and  O_7 
REMARK    4  A    between atoms: O_7  and  C_8 
REMARK    5  A    between atoms: C_8  and  C_10 
REMARK    6  A    between atoms: C_10  and  C_11 
REMARK    7  A    between atoms: C_10  and  O_18 
REMARK    8  A    between atoms: O_18  and  C_19 
REMARK    9  A    between atoms: C_23  and  C_25 
ROOT
HETATM    1  C   UNK N   1      29.896  23.748  -3.664  0.00  0.00     0.261 C 
ENDROOT
BRANCH   1   2
HETATM    2  C   UNK N   1      30.320  22.713  -2.624  0.00  0.00     0.293 C 
HETATM    3  O   UNK N   1      30.446  23.054  -1.461  0.00  0.00    -0.262 OA
BRANCH   2   4
HETATM    4  O   UNK N   1      30.473  21.397  -2.937  0.00  0.00    -0.318 OA
BRANCH   4   5
HETATM    5  C   UNK N   1      31.332  20.948  -3.910  0.00  0.00     0.198 C 
BRANCH   5   6
HETATM    6  C   UNK N   1      32.770  21.256  -3.571  0.00  0.00     0.149 C 
BRANCH   6   7
HETATM    7  N   UNK N   1      33.454  20.009  -3.330  0.00  0.00    -0.359 N 
HETATM    8  C   UNK N   1      34.176  19.381  -4.288  0.00  0.00     0.213 C 
HETATM    9  C   UNK N   1      34.324  19.965  -5.658  0.00  0.00     0.117 C 
HETATM   10  O   UNK N   1      34.711  18.315  -4.035  0.00  0.00    -0.274 OA
HETATM   11  H   UNK N   1      33.393  19.600  -2.437  0.00  0.00     0.162 HD
ENDBRANCH   6   7
ENDBRANCH   5   6
ENDBRANCH   4   5
ENDBRANCH   2   4
ENDBRANCH   1   2
BRANCH   1  12
HETATM   12  C   UNK N   1      30.845  24.892  -3.957  0.00  0.00    -0.019 A 
HETATM   13  C   UNK N   1      30.618  26.190  -3.464  0.00  0.00     0.012 A 
HETATM   14  C   UNK N   1      31.470  27.238  -3.819  0.00  0.00     0.024 A 
HETATM   15  C   UNK N   1      32.547  27.003  -4.676  0.00  0.00     0.034 A 
HETATM   16  C   UNK N   1      32.780  25.717  -5.171  0.00  0.00     0.024 A 
HETATM   17 Cl   UNK N   1      33.598  28.322  -5.142  0.00  0.00    -0.084 Cl
HETATM   18  C   UNK N   1      31.930  24.667  -4.815  0.00  0.00     0.012 A 
ENDBRANCH   1  12
BRANCH   1  19
HETATM   19  O   UNK N   1      28.601  24.203  -3.410  0.00  0.00    -0.331 OA
BRANCH  19  20
HETATM   20  C   UNK N   1      27.653  24.538  -4.336  0.00  0.00     0.071 A 
HETATM   21  C   UNK N   1      27.284  23.669  -5.377  0.00  0.00     0.037 A 
HETATM   22  C   UNK N   1      26.278  24.013  -6.277  0.00  0.00     0.004 A 
HETATM   23  C   UNK N   1      25.638  25.245  -6.162  0.00  0.00     0.016 A 
HETATM   24  C   UNK N   1      26.007  26.139  -5.150  0.00  0.00     0.050 A 
HETATM   25  C   UNK N   1      27.009  25.777  -4.232  0.00  0.00     0.052 A 
BRANCH  24  26
HETATM   26  C   UNK N   1      25.333  27.476  -5.070  0.00  0.00     0.417 C 
HETATM   27  F   UNK N   1      25.146  27.813  -3.742  0.00  0.00    -0.166 F 
HETATM   28  F   UNK N   1      24.102  27.453  -5.701  0.00  0.00    -0.166 F 
HETATM   29  F   UNK N   1      26.130  28.432  -5.672  0.00  0.00    -0.166 F 
ENDBRANCH  24  26
ENDBRANCH  19  20
ENDBRANCH   1  19
TORSDOF 9
ENDMDL
MODEL 5
REMARK VINA RESULT:      -7.1     12.984     14.722
REMARK  9 active torsions:
REMARK  status: ('A' for Active; 'I' for Inactive)
REMARK       I    between atoms: C_2  and  N_4 
REMARK    1  A    between atoms: N_4  and  C_5 
REMARK    2  A    between atoms: C_5  and  C_6 
REMARK    3  A    between atoms: C_6  and  O_7 
REMARK    4  A    between atoms: O_7  and  C_8 
REMARK    5  A    between atoms: C_8  and  C_10 
REMARK    6  A    between atoms: C_10  and  C_11 
REMARK    7  A    between atoms: C_10  and  O_18 
REMARK    8  A    between atoms: O_18  and  C_19 
REMARK    9  A    between atoms: C_23  and  C_25 
ROOT
HETATM    1  C   UNK N   1      27.213  25.176  -4.563  0.00  0.00     0.261 C 
ENDROOT
BRANCH   1   2
HETATM    2  C   UNK N   1      27.642  24.236  -3.439  0.00  0.00     0.293 C 
HETATM    3  O   UNK N   1      26.877  24.027  -2.513  0.00  0.00    -0.262 OA
BRANCH   2   4
HETATM    4  O   UNK N   1      28.817  23.550  -3.481  0.00  0.00    -0.318 OA
BRANCH   4   5
HETATM    5  C   UNK N   1      29.478  23.257  -4.648  0.00  0.00     0.198 C 
BRANCH   5   6
HETATM    6  C   UNK N   1      30.957  23.534  -4.536  0.00  0.00     0.149 C 
BRANCH   6   7
HETATM    7  N   UNK N   1      31.413  23.040  -3.259  0.00  0.00    -0.359 N 
HETATM    8  C   UNK N   1      32.090  21.875  -3.132  0.00  0.00     0.213 C 
HETATM    9  C   UNK N   1      32.426  21.036  -4.325  0.00  0.00     0.117 C 
HETATM   10  O   UNK N   1      32.427  21.494  -2.023  0.00  0.00    -0.274 OA
HETATM   11  H   UNK N   1      31.225  23.571  -2.451  0.00  0.00     0.162 HD
ENDBRANCH   6   7
ENDBRANCH   5   6
ENDBRANCH   4   5
ENDBRANCH   2   4
ENDBRANCH   1   2
BRANCH   1  12
HETATM   12  C   UNK N   1      27.124  26.658  -4.258  0.00  0.00    -0.019 A 
HETATM   13  C   UNK N   1      28.259  27.414  -3.914  0.00  0.00     0.012 A 
HETATM   14  C   UNK N   1      28.129  28.759  -3.563  0.00  0.00     0.024 A 
HETATM   15  C   UNK N   1      26.867  29.357  -3.541  0.00  0.00     0.034 A 
HETATM   16  C   UNK N   1      25.735  28.613  -3.881  0.00  0.00     0.024 A 
HETATM   17 Cl   UNK N   1      26.702  31.035  -3.074  0.00  0.00    -0.084 Cl
HETATM   18  C   UNK N   1      25.863  27.268  -4.236  0.00  0.00     0.012 A 
ENDBRANCH   1  12
BRANCH   1  19
HETATM   19  O   UNK N   1      26.055  24.707  -5.187  0.00  0.00    -0.331 OA
BRANCH  19  20
HETATM   20  C   UNK N   1      25.942  24.253  -6.471  0.00  0.00     0.071 A 
HETATM   21  C   UNK N   1      25.861  25.128  -7.569  0.00  0.00     0.037 A 
HETATM   22  C   UNK N   1      25.798  24.639  -8.872  0.00  0.00     0.004 A 
HETATM   23  C   UNK N   1      25.794  23.264  -9.097  0.00  0.00     0.016 A 
HETATM   24  C   UNK N   1      25.846  22.374  -8.018  0.00  0.00     0.050 A 
HETATM   25  C   UNK N   1      25.930  22.873  -6.707  0.00  0.00     0.052 A 
BRANCH  24  26
HETATM   26  C   UNK N   1      25.799  20.899  -8.282  0.00  0.00     0.417 C 
HETATM   27  F   UNK N   1      24.902  20.309  -7.411  0.00  0.00    -0.166 F 
HETATM   28  F   UNK N   1      27.043  20.320  -8.101  0.00  0.00    -0.166 F 
HETATM   29  F   UNK N   1      25.384  20.675  -9.582  0.00  0.00    -0.166 F 
ENDBRANCH  24  26
ENDBRANCH  19  20
ENDBRANCH   1  19
TORSDOF 9
ENDMDL
MODEL 6
REMARK VINA RESULT:      -7.0      4.477      7.801
REMARK  9 active torsions:
REMARK  status: ('A' for Active; 'I' for Inactive)
REMARK       I    between atoms: C_2  and  N_4 
REMARK    1  A    between atoms: N_4  and  C_5 
REMARK    2  A    between atoms: C_5  and  C_6 
REMARK    3  A    between atoms: C_6  and  O_7 
REMARK    4  A    between atoms: O_7  and  C_8 
REMARK    5  A    between atoms: C_8  and  C_10 
REMARK    6  A    between atoms: C_10  and  C_11 
REMARK    7  A    between atoms: C_10  and  O_18 
REMARK    8  A    between atoms: O_18  and  C_19 
REMARK    9  A    between atoms: C_23  and  C_25 
ROOT
HETATM    1  C   UNK N   1      22.214  16.272   5.323  0.00  0.00     0.261 C 
ENDROOT
BRANCH   1   2
HETATM    2  C   UNK N   1      21.330  15.836   4.157  0.00  0.00     0.293 C 
HETATM    3  O   UNK N   1      20.402  15.073   4.366  0.00  0.00    -0.262 OA
BRANCH   2   4
HETATM    4  O   UNK N   1      21.487  16.343   2.904  0.00  0.00    -0.318 OA
BRANCH   4   5
HETATM    5  C   UNK N   1      20.437  16.745   2.115  0.00  0.00     0.198 C 
BRANCH   5   6
HETATM    6  C   UNK N   1      20.079  18.191   2.358  0.00  0.00     0.149 C 
BRANCH   6   7
HETATM    7  N   UNK N   1      20.345  18.931   1.149  0.00  0.00    -0.359 N 
HETATM    8  C   UNK N   1      20.894  20.168   1.160  0.00  0.00     0.213 C 
HETATM    9  C   UNK N   1      21.280  20.835   2.444  0.00  0.00     0.117 C 
HETATM   10  O   UNK N   1      21.071  20.757   0.107  0.00  0.00    -0.274 OA
HETATM   11  H   UNK N   1      20.119  18.520   0.283  0.00  0.00     0.162 HD
ENDBRANCH   6   7
ENDBRANCH   5   6
ENDBRANCH   4   5
ENDBRANCH   2   4
ENDBRANCH   1   2
BRANCH   1  12
HETATM   12  C   UNK N   1      23.417  17.141   5.019  0.00  0.00    -0.019 A 
HETATM   13  C   UNK N   1      23.280  18.463   4.556  0.00  0.00     0.012 A 
HETATM   14  C   UNK N   1      24.408  19.209   4.209  0.00  0.00     0.024 A 
HETATM   15  C   UNK N   1      25.680  18.641   4.312  0.00  0.00     0.034 A 
HETATM   16  C   UNK N   1      25.825  17.329   4.770  0.00  0.00     0.024 A 
HETATM   17 Cl   UNK N   1      27.091  19.567   3.851  0.00  0.00    -0.084 Cl
HETATM   18  C   UNK N   1      24.697  16.582   5.119  0.00  0.00     0.012 A 
ENDBRANCH   1  12
BRANCH   1  19
HETATM   19  O   UNK N   1      22.556  15.179   6.122  0.00  0.00    -0.331 OA
BRANCH  19  20
HETATM   20  C   UNK N   1      22.022  14.853   7.338  0.00  0.00     0.071 A 
HETATM   21  C   UNK N   1      20.893  15.508   7.859  0.00  0.00     0.037 A 
HETATM   22  C   UNK N   1      20.338  15.122   9.077  0.00  0.00     0.004 A 
HETATM   23  C   UNK N   1      20.918  14.085   9.805  0.00  0.00     0.016 A 
HETATM   24  C   UNK N   1      22.060  13.436   9.319  0.00  0.00     0.050 A 
HETATM   25  C   UNK N   1      22.603  13.817   8.079  0.00  0.00     0.052 A 
BRANCH  24  26
HETATM   26  C   UNK N   1      22.690  12.350  10.138  0.00  0.00     0.417 C 
HETATM   27  F   UNK N   1      21.846  12.018  11.181  0.00  0.00    -0.166 F 
HETATM   28  F   UNK N   1      23.904  12.760  10.660  0.00  0.00    -0.166 F 
HETATM   29  F   UNK N   1      22.895  11.234   9.347  0.00  0.00    -0.166 F 
ENDBRANCH  24  26
ENDBRANCH  19  20
ENDBRANCH   1  19
TORSDOF 9
ENDMDL
MODEL 7
REMARK VINA RESULT:      -7.0      3.551      6.257
REMARK  9 active torsions:
REMARK  status: ('A' for Active; 'I' for Inactive)
REMARK       I    between atoms: C_2  and  N_4 
REMARK    1  A    between atoms: N_4  and  C_5 
REMARK    2  A    between atoms: C_5  and  C_6 
REMARK    3  A    between atoms: C_6  and  O_7 
REMARK    4  A    between atoms: O_7  and  C_8 
REMARK    5  A    between atoms: C_8  and  C_10 
REMARK    6  A    between atoms: C_10  and  C_11 
REMARK    7  A    between atoms: C_10  and  O_18 
REMARK    8  A    between atoms: O_18  and  C_19 
REMARK    9  A    between atoms: C_23  and  C_25 
ROOT
HETATM    1  C   UNK N   1      21.657  15.766   5.825  0.00  0.00     0.261 C 
ENDROOT
BRANCH   1   2
HETATM    2  C   UNK N   1      20.420  16.344   5.139  0.00  0.00     0.293 C 
HETATM    3  O   UNK N   1      19.331  15.842   5.355  0.00  0.00    -0.262 OA
BRANCH   2   4
HETATM    4  O   UNK N   1      20.481  17.461   4.364  0.00  0.00    -0.318 OA
BRANCH   4   5
HETATM    5  C   UNK N   1      20.558  17.426   2.994  0.00  0.00     0.198 C 
BRANCH   5   6
HETATM    6  C   UNK N   1      19.591  18.394   2.356  0.00  0.00     0.149 C 
BRANCH   6   7
HETATM    7  N   UNK N   1      20.243  19.001   1.222  0.00  0.00    -0.359 N 
HETATM    8  C   UNK N   1      20.874  20.196   1.302  0.00  0.00     0.213 C 
HETATM    9  C   UNK N   1      20.950  20.951   2.592  0.00  0.00     0.117 C 
HETATM   10  O   UNK N   1      21.385  20.674   0.303  0.00  0.00    -0.274 OA
HETATM   11  H   UNK N   1      20.229  18.528   0.358  0.00  0.00     0.162 HD
ENDBRANCH   6   7
ENDBRANCH   5   6
ENDBRANCH   4   5
ENDBRANCH   2   4
ENDBRANCH   1   2
BRANCH   1  12
HETATM   12  C   UNK N   1      21.454  14.931   7.073  0.00  0.00    -0.019 A 
HETATM   13  C   UNK N   1      21.003  15.496   8.279  0.00  0.00     0.012 A 
HETATM   14  C   UNK N   1      20.902  14.712   9.431  0.00  0.00     0.024 A 
HETATM   15  C   UNK N   1      21.261  13.363   9.391  0.00  0.00     0.034 A 
HETATM   16  C   UNK N   1      21.711  12.794   8.197  0.00  0.00     0.024 A 
HETATM   17 Cl   UNK N   1      21.162  12.389  10.840  0.00  0.00    -0.084 Cl
HETATM   18  C   UNK N   1      21.809  13.576   7.043  0.00  0.00     0.012 A 
ENDBRANCH   1  12
BRANCH   1  19
HETATM   19  O   UNK N   1      22.624  16.755   6.017  0.00  0.00    -0.331 OA
BRANCH  19  20
HETATM   20  C   UNK N   1      23.658  17.065   5.179  0.00  0.00     0.071 A 
HETATM   21  C   UNK N   1      24.477  16.077   4.604  0.00  0.00     0.037 A 
HETATM   22  C   UNK N   1      25.491  16.417   3.712  0.00  0.00     0.004 A 
HETATM   23  C   UNK N   1      25.717  17.755   3.395  0.00  0.00     0.016 A 
HETATM   24  C   UNK N   1      24.932  18.758   3.977  0.00  0.00     0.050 A 
HETATM   25  C   UNK N   1      23.897  18.408   4.861  0.00  0.00     0.052 A 
BRANCH  24  26
HETATM   26  C   UNK N   1      25.220  20.193   3.654  0.00  0.00     0.417 C 
HETATM   27  F   UNK N   1      25.931  20.260   2.469  0.00  0.00    -0.166 F 
HETATM   28  F   UNK N   1      25.964  20.792   4.655  0.00  0.00    -0.166 F 
HETATM   29  F   UNK N   1      24.029  20.882   3.507  0.00  0.00    -0.166 F 
ENDBRANCH  24  26
ENDBRANCH  19  20
ENDBRANCH   1  19
TORSDOF 9
ENDMDL
MODEL 8
REMARK VINA RESULT:      -7.0      6.449      8.947
REMARK  9 active torsions:
REMARK  status: ('A' for Active; 'I' for Inactive)
REMARK       I    between atoms: C_2  and  N_4 
REMARK    1  A    between atoms: N_4  and  C_5 
REMARK    2  A    between atoms: C_5  and  C_6 
REMARK    3  A    between atoms: C_6  and  O_7 
REMARK    4  A    between atoms: O_7  and  C_8 
REMARK    5  A    between atoms: C_8  and  C_10 
REMARK    6  A    between atoms: C_10  and  C_11 
REMARK    7  A    between atoms: C_10  and  O_18 
REMARK    8  A    between atoms: O_18  and  C_19 
REMARK    9  A    between atoms: C_23  and  C_25 
ROOT
HETATM    1  C   UNK N   1      29.708  17.048   5.377  0.00  0.00     0.261 C 
ENDROOT
BRANCH   1   2
HETATM    2  C   UNK N   1      29.491  15.692   4.709  0.00  0.00     0.293 C 
HETATM    3  O   UNK N   1      28.902  14.815   5.319  0.00  0.00    -0.262 OA
BRANCH   2   4
HETATM    4  O   UNK N   1      29.852  15.457   3.418  0.00  0.00    -0.318 OA
BRANCH   4   5
HETATM    5  C   UNK N   1      29.876  14.205   2.856  0.00  0.00     0.198 C 
BRANCH   5   6
HETATM    6  C   UNK N   1      28.758  14.019   1.859  0.00  0.00     0.149 C 
BRANCH   6   7
HETATM    7  N   UNK N   1      27.595  13.548   2.569  0.00  0.00    -0.359 N 
HETATM    8  C   UNK N   1      26.506  14.326   2.777  0.00  0.00     0.213 C 
HETATM    9  C   UNK N   1      26.442  15.727   2.254  0.00  0.00     0.117 C 
HETATM   10  O   UNK N   1      25.561  13.883   3.407  0.00  0.00    -0.274 OA
HETATM   11  H   UNK N   1      27.592  12.626   2.916  0.00  0.00     0.162 HD
ENDBRANCH   6   7
ENDBRANCH   5   6
ENDBRANCH   4   5
ENDBRANCH   2   4
ENDBRANCH   1   2
BRANCH   1  12
HETATM   12  C   UNK N   1      30.979  17.252   6.177  0.00  0.00    -0.019 A 
HETATM   13  C   UNK N   1      30.955  17.462   7.567  0.00  0.00     0.012 A 
HETATM   14  C   UNK N   1      32.138  17.726   8.261  0.00  0.00     0.024 A 
HETATM   15  C   UNK N   1      33.351  17.793   7.572  0.00  0.00     0.034 A 
HETATM   16  C   UNK N   1      33.384  17.586   6.190  0.00  0.00     0.024 A 
HETATM   17 Cl   UNK N   1      34.829  18.150   8.437  0.00  0.00    -0.084 Cl
HETATM   18  C   UNK N   1      32.201  17.320   5.496  0.00  0.00     0.012 A 
ENDBRANCH   1  12
BRANCH   1  19
HETATM   19  O   UNK N   1      28.576  17.432   6.099  0.00  0.00    -0.331 OA
BRANCH  19  20
HETATM   20  C   UNK N   1      27.866  18.590   5.956  0.00  0.00     0.071 A 
HETATM   21  C   UNK N   1      27.840  19.581   6.953  0.00  0.00     0.037 A 
HETATM   22  C   UNK N   1      27.150  20.775   6.759  0.00  0.00     0.004 A 
HETATM   23  C   UNK N   1      26.455  20.990   5.572  0.00  0.00     0.016 A 
HETATM   24  C   UNK N   1      26.442  20.006   4.576  0.00  0.00     0.050 A 
HETATM   25  C   UNK N   1      27.158  18.811   4.768  0.00  0.00     0.052 A 
BRANCH  24  26
HETATM   26  C   UNK N   1      25.654  20.241   3.322  0.00  0.00     0.417 C 
HETATM   27  F   UNK N   1      25.458  19.035   2.675  0.00  0.00    -0.166 F 
HETATM   28  F   UNK N   1      26.319  21.102   2.468  0.00  0.00    -0.166 F 
HETATM   29  F   UNK N   1      24.425  20.788   3.645  0.00  0.00    -0.166 F 
ENDBRANCH  24  26
ENDBRANCH  19  20
ENDBRANCH   1  19
TORSDOF 9
ENDMDL
MODEL 9
REMARK VINA RESULT:      -7.0     13.289     15.041
REMARK  9 active torsions:
REMARK  status: ('A' for Active; 'I' for Inactive)
REMARK       I    between atoms: C_2  and  N_4 
REMARK    1  A    between atoms: N_4  and  C_5 
REMARK    2  A    between atoms: C_5  and  C_6 
REMARK    3  A    between atoms: C_6  and  O_7 
REMARK    4  A    between atoms: O_7  and  C_8 
REMARK    5  A    between atoms: C_8  and  C_10 
REMARK    6  A    between atoms: C_10  and  C_11 
REMARK    7  A    between atoms: C_10  and  O_18 
REMARK    8  A    between atoms: O_18  and  C_19 
REMARK    9  A    between atoms: C_23  and  C_25 
ROOT
HETATM    1  C   UNK N   1      29.960  23.918  -3.699  0.00  0.00     0.261 C 
ENDROOT
BRANCH   1   2
HETATM    2  C   UNK N   1      30.425  22.808  -2.759  0.00  0.00     0.293 C 
HETATM    3  O   UNK N   1      30.563  23.050  -1.573  0.00  0.00    -0.262 OA
BRANCH   2   4
HETATM    4  O   UNK N   1      30.603  21.528  -3.187  0.00  0.00    -0.318 OA
BRANCH   4   5
HETATM    5  C   UNK N   1      31.823  21.018  -3.557  0.00  0.00     0.198 C 
BRANCH   5   6
HETATM    6  C   UNK N   1      32.096  21.236  -5.026  0.00  0.00     0.149 C 
BRANCH   6   7
HETATM    7  N   UNK N   1      31.497  20.151  -5.762  0.00  0.00    -0.359 N 
HETATM    8  C   UNK N   1      30.397  20.318  -6.534  0.00  0.00     0.213 C 
HETATM    9  C   UNK N   1      29.749  21.659  -6.684  0.00  0.00     0.117 C 
HETATM   10  O   UNK N   1      29.917  19.358  -7.113  0.00  0.00    -0.274 OA
HETATM   11  H   UNK N   1      31.902  19.255  -5.701  0.00  0.00     0.162 HD
ENDBRANCH   6   7
ENDBRANCH   5   6
ENDBRANCH   4   5
ENDBRANCH   2   4
ENDBRANCH   1   2
BRANCH   1  12
HETATM   12  C   UNK N   1      30.906  25.072  -3.961  0.00  0.00    -0.019 A 
HETATM   13  C   UNK N   1      30.663  26.361  -3.454  0.00  0.00     0.012 A 
HETATM   14  C   UNK N   1      31.513  27.419  -3.781  0.00  0.00     0.024 A 
HETATM   15  C   UNK N   1      32.606  27.203  -4.623  0.00  0.00     0.034 A 
HETATM   16  C   UNK N   1      32.855  25.925  -5.131  0.00  0.00     0.024 A 
HETATM   17 Cl   UNK N   1      33.656  28.534  -5.054  0.00  0.00    -0.084 Cl
HETATM   18  C   UNK N   1      32.006  24.865  -4.803  0.00  0.00     0.012 A 
ENDBRANCH   1  12
BRANCH   1  19
HETATM   19  O   UNK N   1      28.686  24.365  -3.345  0.00  0.00    -0.331 OA
BRANCH  19  20
HETATM   20  C   UNK N   1      27.648  24.637  -4.191  0.00  0.00     0.071 A 
HETATM   21  C   UNK N   1      27.134  23.675  -5.079  0.00  0.00     0.037 A 
HETATM   22  C   UNK N   1      26.041  23.963  -5.894  0.00  0.00     0.004 A 
HETATM   23  C   UNK N   1      25.457  25.227  -5.849  0.00  0.00     0.016 A 
HETATM   24  C   UNK N   1      25.969  26.209  -4.994  0.00  0.00     0.050 A 
HETATM   25  C   UNK N   1      27.058  25.907  -4.159  0.00  0.00     0.052 A 
BRANCH  24  26
HETATM   26  C   UNK N   1      25.350  27.575  -4.992  0.00  0.00     0.417 C 
HETATM   27  F   UNK N   1      26.189  28.456  -5.650  0.00  0.00    -0.166 F 
HETATM   28  F   UNK N   1      25.148  28.030  -3.701  0.00  0.00    -0.166 F 
HETATM   29  F   UNK N   1      24.133  27.532  -5.649  0.00  0.00    -0.166 F 
ENDBRANCH  24  26
ENDBRANCH  19  20
ENDBRANCH   1  19
TORSDOF 9
ENDMDL
