MODEL 1
REMARK VINA RESULT:      -8.8      0.000      0.000
REMARK  10 active torsions:
REMARK  status: ('A' for Active; 'I' for Inactive)
REMARK    1  A    between atoms: C_2  and  C_3 
REMARK    2  A    between atoms: C_2  and  O_24 
REMARK    3  A    between atoms: C_12  and  C_13 
REMARK    4  A    between atoms: C_16  and  O_22 
REMARK    5  A    between atoms: C_18  and  O_21 
REMARK    6  A    between atoms: O_24  and  C_25 
REMARK    7  A    between atoms: C_25  and  C_26 
REMARK       I    between atoms: C_26  and  N_28 
REMARK    8  A    between atoms: N_28  and  C_29 
REMARK    9  A    between atoms: C_29  and  C_30 
REMARK   10  A    between atoms: C_30  and  C_31 
ROOT
HETATM    1  C   UNK N   1      25.436  18.880   4.296  0.00  0.00    -0.046 C 
HETATM    2  C   UNK N   1      25.816  17.664   3.943  0.00  0.00    -0.020 C 
HETATM    3  C   UNK N   1      27.288  17.568   3.788  0.00  0.00     0.037 C 
HETATM    4  C   UNK N   1      27.787  18.863   4.441  0.00  0.00     0.030 C 
HETATM    5  C   UNK N   1      26.595  19.834   4.360  0.00  0.00    -0.011 C 
HETATM    6  C   UNK N   1      26.572  20.885   5.492  0.00  0.00     0.015 C 
HETATM    7  C   UNK N   1      27.261  20.541   6.823  0.00  0.00     0.005 C 
HETATM    8  C   UNK N   1      27.446  19.052   7.023  0.00  0.00     0.034 C 
HETATM    9  C   UNK N   1      28.198  18.510   5.849  0.00  0.00    -0.074 C 
HETATM   10  C   UNK N   1      29.246  17.704   5.967  0.00  0.00     0.004 C 
HETATM   11  C   UNK N   1      26.654  20.590   3.042  0.00  0.00     0.021 C 
ENDROOT
BRANCH   1  12
HETATM   12  C   UNK N   1      23.975  19.248   4.263  0.00  0.00     0.147 C 
HETATM   13  C   UNK N   1      23.161  18.243   5.063  0.00  0.00     0.044 C 
BRANCH  12  14
HETATM   14  O   UNK N   1      23.476  19.313   2.965  0.00  0.00    -0.373 OA
BRANCH  14  15
HETATM   15  C   UNK N   1      22.350  20.139   3.038  0.00  0.00     0.271 C 
BRANCH  15  16
HETATM   16  C   UNK N   1      21.413  19.973   1.864  0.00  0.00     0.241 C 
HETATM   17  O   UNK N   1      21.632  20.644   0.864  0.00  0.00    -0.271 OA
HETATM   18  N   UNK N   1      20.341  19.132   1.858  0.00  0.00    -0.353 N 
HETATM   19  H   UNK N   1      19.787  19.104   1.044  0.00  0.00     0.162 HD
BRANCH  18  20
HETATM   20  C   UNK N   1      19.961  18.278   2.962  0.00  0.00     0.211 C 
BRANCH  20  21
HETATM   21  C   UNK N   1      20.270  16.809   2.701  0.00  0.00     0.354 C 
HETATM   22  F   UNK N   1      19.678  16.425   1.511  0.00  0.00    -0.194 F 
HETATM   23  F   UNK N   1      21.642  16.688   2.569  0.00  0.00    -0.194 F 
BRANCH  21  24
HETATM   24  C   UNK N   1      19.804  15.893   3.837  0.00  0.00     0.456 C 
HETATM   25  F   UNK N   1      20.863  15.655   4.694  0.00  0.00    -0.165 F 
HETATM   26  F   UNK N   1      19.358  14.681   3.340  0.00  0.00    -0.165 F 
HETATM   27  F   UNK N   1      18.781  16.497   4.549  0.00  0.00    -0.165 F 
ENDBRANCH  21  24
ENDBRANCH  20  21
ENDBRANCH  18  20
ENDBRANCH  15  16
ENDBRANCH  14  15
ENDBRANCH  12  14
ENDBRANCH   1  12
BRANCH  10  28
HETATM   28  C   UNK N   1      29.937  17.207   7.161  0.00  0.00     0.008 C 
HETATM   29  C   UNK N   1      31.285  17.117   7.167  0.00  0.00    -0.048 C 
HETATM   30  C   UNK N   1      31.958  16.929   8.504  0.00  0.00     0.071 C 
HETATM   31  C   UNK N   1      32.132  17.298   5.925  0.00  0.00    -0.033 C 
HETATM   32  C   UNK N   1      33.489  16.926   8.436  0.00  0.00     0.125 C 
HETATM   33  C   UNK N   1      33.997  17.976   7.462  0.00  0.00     0.068 C 
HETATM   34  C   UNK N   1      33.595  17.616   6.039  0.00  0.00     0.153 C 
HETATM   35  C   UNK N   1      31.641  17.107   4.695  0.00  0.00     0.022 C 
BRANCH  32  36
HETATM   36  O   UNK N   1      34.003  17.198   9.702  0.00  0.00    -0.395 OA
HETATM   37  H   UNK N   1      33.426  17.200  10.482  0.00  0.00     0.210 HD
ENDBRANCH  32  36
BRANCH  34  38
HETATM   38  O   UNK N   1      34.362  16.548   5.569  0.00  0.00    -0.391 OA
HETATM   39  H   UNK N   1      34.712  15.670   5.784  0.00  0.00     0.210 HD
ENDBRANCH  34  38
ENDBRANCH  10  28
TORSDOF 10
ENDMDL
MODEL 2
REMARK VINA RESULT:      -8.8      4.802      9.679
REMARK  10 active torsions:
REMARK  status: ('A' for Active; 'I' for Inactive)
REMARK    1  A    between atoms: C_2  and  C_3 
REMARK    2  A    between atoms: C_2  and  O_24 
REMARK    3  A    between atoms: C_12  and  C_13 
REMARK    4  A    between atoms: C_16  and  O_22 
REMARK    5  A    between atoms: C_18  and  O_21 
REMARK    6  A    between atoms: O_24  and  C_25 
REMARK    7  A    between atoms: C_25  and  C_26 
REMARK       I    between atoms: C_26  and  N_28 
REMARK    8  A    between atoms: N_28  and  C_29 
REMARK    9  A    between atoms: C_29  and  C_30 
REMARK   10  A    between atoms: C_30  and  C_31 
ROOT
HETATM    1  C   UNK N   1      33.013  16.144   4.911  0.00  0.00    -0.046 C 
HETATM    2  C   UNK N   1      32.605  17.401   4.938  0.00  0.00    -0.020 C 
HETATM    3  C   UNK N   1      31.687  17.709   3.814  0.00  0.00     0.037 C 
HETATM    4  C   UNK N   1      31.330  16.319   3.272  0.00  0.00     0.030 C 
HETATM    5  C   UNK N   1      32.496  15.411   3.705  0.00  0.00    -0.011 C 
HETATM    6  C   UNK N   1      32.092  13.934   3.907  0.00  0.00     0.015 C 
HETATM    7  C   UNK N   1      30.631  13.618   4.265  0.00  0.00     0.005 C 
HETATM    8  C   UNK N   1      29.897  14.808   4.848  0.00  0.00     0.034 C 
HETATM    9  C   UNK N   1      30.001  15.943   3.881  0.00  0.00    -0.074 C 
HETATM   10  C   UNK N   1      28.960  16.676   3.505  0.00  0.00     0.004 C 
HETATM   11  C   UNK N   1      33.578  15.443   2.637  0.00  0.00     0.021 C 
ENDROOT
BRANCH   1  12
HETATM   12  C   UNK N   1      34.135  15.701   5.814  0.00  0.00     0.147 C 
HETATM   13  C   UNK N   1      33.599  14.808   6.922  0.00  0.00     0.044 C 
BRANCH  12  14
HETATM   14  O   UNK N   1      34.814  16.777   6.380  0.00  0.00    -0.373 OA
BRANCH  14  15
HETATM   15  C   UNK N   1      34.485  16.754   7.739  0.00  0.00     0.271 C 
BRANCH  15  16
HETATM   16  C   UNK N   1      33.950  18.074   8.245  0.00  0.00     0.241 C 
HETATM   17  O   UNK N   1      34.734  19.011   8.322  0.00  0.00    -0.271 OA
HETATM   18  N   UNK N   1      32.658  18.277   8.625  0.00  0.00    -0.353 N 
HETATM   19  H   UNK N   1      32.413  19.174   8.949  0.00  0.00     0.162 HD
BRANCH  18  20
HETATM   20  C   UNK N   1      31.623  17.267   8.586  0.00  0.00     0.211 C 
BRANCH  20  21
HETATM   21  C   UNK N   1      30.263  17.804   9.019  0.00  0.00     0.354 C 
HETATM   22  F   UNK N   1      29.757  17.002  10.026  0.00  0.00    -0.194 F 
HETATM   23  F   UNK N   1      30.460  19.076   9.527  0.00  0.00    -0.194 F 
BRANCH  21  24
HETATM   24  C   UNK N   1      29.262  17.886   7.862  0.00  0.00     0.456 C 
HETATM   25  F   UNK N   1      28.210  17.023   8.108  0.00  0.00    -0.165 F 
HETATM   26  F   UNK N   1      29.859  17.525   6.668  0.00  0.00    -0.165 F 
HETATM   27  F   UNK N   1      28.765  19.174   7.751  0.00  0.00    -0.165 F 
ENDBRANCH  21  24
ENDBRANCH  20  21
ENDBRANCH  18  20
ENDBRANCH  15  16
ENDBRANCH  14  15
ENDBRANCH  12  14
ENDBRANCH   1  12
BRANCH  10  28
HETATM   28  C   UNK N   1      27.539  16.561   3.851  0.00  0.00     0.008 C 
HETATM   29  C   UNK N   1      26.798  17.678   4.020  0.00  0.00    -0.048 C 
HETATM   30  C   UNK N   1      25.299  17.515   4.038  0.00  0.00     0.071 C 
HETATM   31  C   UNK N   1      27.398  19.067   4.087  0.00  0.00    -0.033 C 
HETATM   32  C   UNK N   1      24.530  18.837   4.145  0.00  0.00     0.125 C 
HETATM   33  C   UNK N   1      25.175  19.917   3.292  0.00  0.00     0.068 C 
HETATM   34  C   UNK N   1      26.546  20.279   3.844  0.00  0.00     0.153 C 
HETATM   35  C   UNK N   1      28.673  19.276   4.438  0.00  0.00     0.022 C 
BRANCH  32  36
HETATM   36  O   UNK N   1      23.221  18.640   3.709  0.00  0.00    -0.395 OA
HETATM   37  H   UNK N   1      22.546  19.326   3.839  0.00  0.00     0.210 HD
ENDBRANCH  32  36
BRANCH  34  38
HETATM   38  O   UNK N   1      26.419  21.026   5.017  0.00  0.00    -0.391 OA
HETATM   39  H   UNK N   1      26.904  21.507   5.706  0.00  0.00     0.210 HD
ENDBRANCH  34  38
ENDBRANCH  10  28
TORSDOF 10
ENDMDL
MODEL 3
REMARK VINA RESULT:      -8.8      8.119     13.088
REMARK  10 active torsions:
REMARK  status: ('A' for Active; 'I' for Inactive)
REMARK    1  A    between atoms: C_2  and  C_3 
REMARK    2  A    between atoms: C_2  and  O_24 
REMARK    3  A    between atoms: C_12  and  C_13 
REMARK    4  A    between atoms: C_16  and  O_22 
REMARK    5  A    between atoms: C_18  and  O_21 
REMARK    6  A    between atoms: O_24  and  C_25 
REMARK    7  A    between atoms: C_25  and  C_26 
REMARK       I    between atoms: C_26  and  N_28 
REMARK    8  A    between atoms: N_28  and  C_29 
REMARK    9  A    between atoms: C_29  and  C_30 
REMARK   10  A    between atoms: C_30  and  C_31 
ROOT
HETATM    1  C   UNK N   1      33.587  15.254   8.212  0.00  0.00    -0.046 C 
HETATM    2  C   UNK N   1      32.457  14.880   8.786  0.00  0.00    -0.020 C 
HETATM    3  C   UNK N   1      31.508  16.012   8.932  0.00  0.00     0.037 C 
HETATM    4  C   UNK N   1      32.124  17.092   8.034  0.00  0.00     0.030 C 
HETATM    5  C   UNK N   1      33.619  16.734   7.946  0.00  0.00    -0.011 C 
HETATM    6  C   UNK N   1      34.292  17.193   6.634  0.00  0.00     0.015 C 
HETATM    7  C   UNK N   1      33.415  17.363   5.383  0.00  0.00     0.005 C 
HETATM    8  C   UNK N   1      32.110  16.598   5.470  0.00  0.00     0.034 C 
HETATM    9  C   UNK N   1      31.398  17.026   6.713  0.00  0.00    -0.074 C 
HETATM   10  C   UNK N   1      30.114  17.364   6.735  0.00  0.00     0.004 C 
HETATM   11  C   UNK N   1      34.362  17.400   9.093  0.00  0.00     0.021 C 
ENDROOT
BRANCH   1  12
HETATM   12  C   UNK N   1      34.767  14.318   8.198  0.00  0.00     0.147 C 
HETATM   13  C   UNK N   1      34.398  13.017   7.501  0.00  0.00     0.044 C 
BRANCH  12  14
HETATM   14  O   UNK N   1      35.233  14.036   9.479  0.00  0.00    -0.373 OA
BRANCH  14  15
HETATM   15  C   UNK N   1      36.323  13.179   9.301  0.00  0.00     0.271 C 
BRANCH  15  16
HETATM   16  C   UNK N   1      37.586  13.676   9.969  0.00  0.00     0.241 C 
HETATM   17  O   UNK N   1      38.403  14.262   9.272  0.00  0.00    -0.271 OA
HETATM   18  N   UNK N   1      37.867  13.501  11.290  0.00  0.00    -0.353 N 
HETATM   19  H   UNK N   1      38.722  13.855  11.626  0.00  0.00     0.162 HD
BRANCH  18  20
HETATM   20  C   UNK N   1      36.997  12.832  12.234  0.00  0.00     0.211 C 
BRANCH  20  21
HETATM   21  C   UNK N   1      36.134  13.805  13.028  0.00  0.00     0.354 C 
HETATM   22  F   UNK N   1      36.295  15.079  12.514  0.00  0.00    -0.194 F 
HETATM   23  F   UNK N   1      34.814  13.425  12.859  0.00  0.00    -0.194 F 
BRANCH  21  24
HETATM   24  C   UNK N   1      36.458  13.800  14.526  0.00  0.00     0.456 C 
HETATM   25  F   UNK N   1      37.007  15.019  14.877  0.00  0.00    -0.165 F 
HETATM   26  F   UNK N   1      37.369  12.803  14.828  0.00  0.00    -0.165 F 
HETATM   27  F   UNK N   1      35.304  13.601  15.264  0.00  0.00    -0.165 F 
ENDBRANCH  21  24
ENDBRANCH  20  21
ENDBRANCH  18  20
ENDBRANCH  15  16
ENDBRANCH  14  15
ENDBRANCH  12  14
ENDBRANCH   1  12
BRANCH  10  28
HETATM   28  C   UNK N   1      29.136  17.462   5.647  0.00  0.00     0.008 C 
HETATM   29  C   UNK N   1      28.203  18.439   5.671  0.00  0.00    -0.048 C 
HETATM   30  C   UNK N   1      27.450  18.705   4.391  0.00  0.00     0.071 C 
HETATM   31  C   UNK N   1      27.963  19.325   6.875  0.00  0.00    -0.033 C 
HETATM   32  C   UNK N   1      26.475  19.885   4.476  0.00  0.00     0.125 C 
HETATM   33  C   UNK N   1      27.073  21.035   5.268  0.00  0.00     0.068 C 
HETATM   34  C   UNK N   1      27.250  20.638   6.726  0.00  0.00     0.153 C 
HETATM   35  C   UNK N   1      28.298  18.949   8.114  0.00  0.00     0.022 C 
BRANCH  32  36
HETATM   36  O   UNK N   1      26.181  20.328   3.188  0.00  0.00    -0.395 OA
HETATM   37  H   UNK N   1      26.042  19.695   2.465  0.00  0.00     0.210 HD
ENDBRANCH  32  36
BRANCH  34  38
HETATM   38  O   UNK N   1      26.014  20.596   7.375  0.00  0.00    -0.391 OA
HETATM   39  H   UNK N   1      25.079  20.355   7.283  0.00  0.00     0.210 HD
ENDBRANCH  34  38
ENDBRANCH  10  28
TORSDOF 10
ENDMDL
MODEL 4
REMARK VINA RESULT:      -8.4      1.773      2.399
REMARK  10 active torsions:
REMARK  status: ('A' for Active; 'I' for Inactive)
REMARK    1  A    between atoms: C_2  and  C_3 
REMARK    2  A    between atoms: C_2  and  O_24 
REMARK    3  A    between atoms: C_12  and  C_13 
REMARK    4  A    between atoms: C_16  and  O_22 
REMARK    5  A    between atoms: C_18  and  O_21 
REMARK    6  A    between atoms: O_24  and  C_25 
REMARK    7  A    between atoms: C_25  and  C_26 
REMARK       I    between atoms: C_26  and  N_28 
REMARK    8  A    between atoms: N_28  and  C_29 
REMARK    9  A    between atoms: C_29  and  C_30 
REMARK   10  A    between atoms: C_30  and  C_31 
ROOT
HETATM    1  C   UNK N   1      25.916  18.193   4.308  0.00  0.00    -0.046 C 
HETATM    2  C   UNK N   1      26.514  17.085   3.906  0.00  0.00    -0.020 C 
HETATM    3  C   UNK N   1      27.990  17.235   3.872  0.00  0.00     0.037 C 
HETATM    4  C   UNK N   1      28.221  18.536   4.651  0.00  0.00     0.030 C 
HETATM    5  C   UNK N   1      26.895  19.311   4.535  0.00  0.00    -0.011 C 
HETATM    6  C   UNK N   1      26.617  20.250   5.729  0.00  0.00     0.015 C 
HETATM    7  C   UNK N   1      27.254  19.914   7.087  0.00  0.00     0.005 C 
HETATM    8  C   UNK N   1      27.665  18.461   7.201  0.00  0.00     0.034 C 
HETATM    9  C   UNK N   1      28.579  18.141   6.062  0.00  0.00    -0.074 C 
HETATM   10  C   UNK N   1      29.734  17.504   6.214  0.00  0.00     0.004 C 
HETATM   11  C   UNK N   1      26.925  20.170   3.280  0.00  0.00     0.021 C 
ENDROOT
BRANCH   1  12
HETATM   12  C   UNK N   1      24.421  18.327   4.175  0.00  0.00     0.147 C 
HETATM   13  C   UNK N   1      23.751  18.109   5.523  0.00  0.00     0.044 C 
BRANCH  12  14
HETATM   14  O   UNK N   1      23.890  17.433   3.249  0.00  0.00    -0.373 OA
BRANCH  14  15
HETATM   15  C   UNK N   1      22.800  16.835   3.889  0.00  0.00     0.271 C 
BRANCH  15  16
HETATM   16  C   UNK N   1      21.878  16.107   2.937  0.00  0.00     0.241 C 
HETATM   17  O   UNK N   1      22.352  15.193   2.276  0.00  0.00    -0.271 OA
HETATM   18  N   UNK N   1      20.562  16.414   2.769  0.00  0.00    -0.353 N 
HETATM   19  H   UNK N   1      20.049  15.884   2.117  0.00  0.00     0.162 HD
BRANCH  18  20
HETATM   20  C   UNK N   1      19.866  17.464   3.481  0.00  0.00     0.211 C 
BRANCH  20  21
HETATM   21  C   UNK N   1      19.889  18.794   2.735  0.00  0.00     0.354 C 
HETATM   22  F   UNK N   1      20.340  18.583   1.445  0.00  0.00    -0.194 F 
HETATM   23  F   UNK N   1      18.589  19.262   2.677  0.00  0.00    -0.194 F 
BRANCH  21  24
HETATM   24  C   UNK N   1      20.760  19.847   3.428  0.00  0.00     0.456 C 
HETATM   25  F   UNK N   1      20.958  19.479   4.746  0.00  0.00    -0.165 F 
HETATM   26  F   UNK N   1      20.145  21.086   3.404  0.00  0.00    -0.165 F 
HETATM   27  F   UNK N   1      21.991  19.938   2.800  0.00  0.00    -0.165 F 
ENDBRANCH  21  24
ENDBRANCH  20  21
ENDBRANCH  18  20
ENDBRANCH  15  16
ENDBRANCH  14  15
ENDBRANCH  12  14
ENDBRANCH   1  12
BRANCH  10  28
HETATM   28  C   UNK N   1      30.408  17.028   7.427  0.00  0.00     0.008 C 
HETATM   29  C   UNK N   1      31.757  16.989   7.472  0.00  0.00    -0.048 C 
HETATM   30  C   UNK N   1      32.397  16.820   8.828  0.00  0.00     0.071 C 
HETATM   31  C   UNK N   1      32.633  17.208   6.256  0.00  0.00    -0.033 C 
HETATM   32  C   UNK N   1      33.929  16.876   8.805  0.00  0.00     0.125 C 
HETATM   33  C   UNK N   1      34.425  17.949   7.850  0.00  0.00     0.068 C 
HETATM   34  C   UNK N   1      34.079  17.581   6.415  0.00  0.00     0.153 C 
HETATM   35  C   UNK N   1      32.187  17.005   5.012  0.00  0.00     0.022 C 
BRANCH  32  36
HETATM   36  O   UNK N   1      34.395  17.162  10.087  0.00  0.00    -0.395 OA
HETATM   37  H   UNK N   1      34.473  18.079  10.393  0.00  0.00     0.210 HD
ENDBRANCH  32  36
BRANCH  34  38
HETATM   38  O   UNK N   1      34.900  16.545   5.964  0.00  0.00    -0.391 OA
HETATM   39  H   UNK N   1      34.947  15.765   5.389  0.00  0.00     0.210 HD
ENDBRANCH  34  38
ENDBRANCH  10  28
TORSDOF 10
ENDMDL
MODEL 5
REMARK VINA RESULT:      -8.1      6.233     11.295
REMARK  10 active torsions:
REMARK  status: ('A' for Active; 'I' for Inactive)
REMARK    1  A    between atoms: C_2  and  C_3 
REMARK    2  A    between atoms: C_2  and  O_24 
REMARK    3  A    between atoms: C_12  and  C_13 
REMARK    4  A    between atoms: C_16  and  O_22 
REMARK    5  A    between atoms: C_18  and  O_21 
REMARK    6  A    between atoms: O_24  and  C_25 
REMARK    7  A    between atoms: C_25  and  C_26 
REMARK       I    between atoms: C_26  and  N_28 
REMARK    8  A    between atoms: N_28  and  C_29 
REMARK    9  A    between atoms: C_29  and  C_30 
REMARK   10  A    between atoms: C_30  and  C_31 
ROOT
HETATM    1  C   UNK N   1      28.763  17.423   5.495  0.00  0.00    -0.046 C 
HETATM    2  C   UNK N   1      28.308  18.660   5.392  0.00  0.00    -0.020 C 
HETATM    3  C   UNK N   1      27.419  18.826   4.215  0.00  0.00     0.037 C 
HETATM    4  C   UNK N   1      27.134  17.379   3.794  0.00  0.00     0.030 C 
HETATM    5  C   UNK N   1      28.317  16.562   4.346  0.00  0.00    -0.011 C 
HETATM    6  C   UNK N   1      27.961  15.094   4.670  0.00  0.00     0.015 C 
HETATM    7  C   UNK N   1      26.501  14.754   5.009  0.00  0.00     0.005 C 
HETATM    8  C   UNK N   1      25.703  15.961   5.455  0.00  0.00     0.034 C 
HETATM    9  C   UNK N   1      25.799  17.007   4.391  0.00  0.00    -0.074 C 
HETATM   10  C   UNK N   1      24.745  17.660   3.917  0.00  0.00     0.004 C 
HETATM   11  C   UNK N   1      29.434  16.540   3.315  0.00  0.00     0.021 C 
ENDROOT
BRANCH   1  12
HETATM   12  C   UNK N   1      29.868  17.110   6.469  0.00  0.00     0.147 C 
HETATM   13  C   UNK N   1      29.599  17.785   7.805  0.00  0.00     0.044 C 
BRANCH  12  14
HETATM   14  O   UNK N   1      31.117  17.506   5.998  0.00  0.00    -0.373 OA
BRANCH  14  15
HETATM   15  C   UNK N   1      32.037  17.049   6.946  0.00  0.00     0.271 C 
BRANCH  15  16
HETATM   16  C   UNK N   1      33.450  17.517   6.678  0.00  0.00     0.241 C 
HETATM   17  O   UNK N   1      33.738  17.819   5.528  0.00  0.00    -0.271 OA
HETATM   18  N   UNK N   1      34.415  17.612   7.635  0.00  0.00    -0.353 N 
HETATM   19  H   UNK N   1      35.307  17.920   7.355  0.00  0.00     0.162 HD
BRANCH  18  20
HETATM   20  C   UNK N   1      34.219  17.292   9.033  0.00  0.00     0.211 C 
BRANCH  20  21
HETATM   21  C   UNK N   1      34.889  15.983   9.434  0.00  0.00     0.354 C 
HETATM   22  F   UNK N   1      35.474  15.411   8.318  0.00  0.00    -0.194 F 
HETATM   23  F   UNK N   1      35.884  16.286  10.346  0.00  0.00    -0.194 F 
BRANCH  21  24
HETATM   24  C   UNK N   1      33.916  14.991  10.080  0.00  0.00     0.456 C 
HETATM   25  F   UNK N   1      32.621  15.339   9.743  0.00  0.00    -0.165 F 
HETATM   26  F   UNK N   1      34.033  15.014  11.458  0.00  0.00    -0.165 F 
HETATM   27  F   UNK N   1      34.166  13.708   9.623  0.00  0.00    -0.165 F 
ENDBRANCH  21  24
ENDBRANCH  20  21
ENDBRANCH  18  20
ENDBRANCH  15  16
ENDBRANCH  14  15
ENDBRANCH  12  14
ENDBRANCH   1  12
BRANCH  10  28
HETATM   28  C   UNK N   1      23.319  17.520   4.226  0.00  0.00     0.008 C 
HETATM   29  C   UNK N   1      22.437  18.422   3.744  0.00  0.00    -0.048 C 
HETATM   30  C   UNK N   1      20.974  18.057   3.800  0.00  0.00     0.071 C 
HETATM   31  C   UNK N   1      22.857  19.712   3.070  0.00  0.00    -0.033 C 
HETATM   32  C   UNK N   1      20.048  19.092   3.154  0.00  0.00     0.125 C 
HETATM   33  C   UNK N   1      20.651  19.646   1.874  0.00  0.00     0.068 C 
HETATM   34  C   UNK N   1      21.899  20.458   2.186  0.00  0.00     0.153 C 
HETATM   35  C   UNK N   1      24.050  20.275   3.292  0.00  0.00     0.022 C 
BRANCH  32  36
HETATM   36  O   UNK N   1      18.828  18.489   2.854  0.00  0.00    -0.395 OA
HETATM   37  H   UNK N   1      18.147  18.968   2.354  0.00  0.00     0.210 HD
ENDBRANCH  32  36
BRANCH  34  38
HETATM   38  O   UNK N   1      21.555  21.681   2.767  0.00  0.00    -0.391 OA
HETATM   39  H   UNK N   1      21.863  22.399   3.341  0.00  0.00     0.210 HD
ENDBRANCH  34  38
ENDBRANCH  10  28
TORSDOF 10
ENDMDL
MODEL 6
REMARK VINA RESULT:      -7.8      9.927     14.737
REMARK  10 active torsions:
REMARK  status: ('A' for Active; 'I' for Inactive)
REMARK    1  A    between atoms: C_2  and  C_3 
REMARK    2  A    between atoms: C_2  and  O_24 
REMARK    3  A    between atoms: C_12  and  C_13 
REMARK    4  A    between atoms: C_16  and  O_22 
REMARK    5  A    between atoms: C_18  and  O_21 
REMARK    6  A    between atoms: O_24  and  C_25 
REMARK    7  A    between atoms: C_25  and  C_26 
REMARK       I    between atoms: C_26  and  N_28 
REMARK    8  A    between atoms: N_28  and  C_29 
REMARK    9  A    between atoms: C_29  and  C_30 
REMARK   10  A    between atoms: C_30  and  C_31 
ROOT
HETATM    1  C   UNK N   1      35.272  12.159  12.714  0.00  0.00    -0.046 C 
HETATM    2  C   UNK N   1      34.591  12.527  13.785  0.00  0.00    -0.020 C 
HETATM    3  C   UNK N   1      34.114  11.358  14.565  0.00  0.00     0.037 C 
HETATM    4  C   UNK N   1      34.913  10.195  13.965  0.00  0.00     0.030 C 
HETATM    5  C   UNK N   1      35.298  10.665  12.549  0.00  0.00    -0.011 C 
HETATM    6  C   UNK N   1      36.610  10.043  12.023  0.00  0.00     0.015 C 
HETATM    7  C   UNK N   1      37.659   9.577  13.045  0.00  0.00     0.005 C 
HETATM    8  C   UNK N   1      37.487  10.225  14.403  0.00  0.00     0.034 C 
HETATM    9  C   UNK N   1      36.093   9.962  14.875  0.00  0.00    -0.074 C 
HETATM   10  C   UNK N   1      35.810   9.519  16.095  0.00  0.00     0.004 C 
HETATM   11  C   UNK N   1      34.193  10.281  11.577  0.00  0.00     0.021 C 
ENDROOT
BRANCH   1  12
HETATM   12  C   UNK N   1      35.627  13.180  11.664  0.00  0.00     0.147 C 
HETATM   13  C   UNK N   1      37.137  13.319  11.554  0.00  0.00     0.044 C 
BRANCH  12  14
HETATM   14  O   UNK N   1      35.070  14.428  11.931  0.00  0.00    -0.373 OA
BRANCH  14  15
HETATM   15  C   UNK N   1      34.446  14.821  10.744  0.00  0.00     0.271 C 
BRANCH  15  16
HETATM   16  C   UNK N   1      34.894  16.181  10.258  0.00  0.00     0.241 C 
HETATM   17  O   UNK N   1      35.933  16.634  10.719  0.00  0.00    -0.271 OA
HETATM   18  N   UNK N   1      34.208  16.929   9.349  0.00  0.00    -0.353 N 
HETATM   19  H   UNK N   1      34.581  17.806   9.105  0.00  0.00     0.162 HD
BRANCH  18  20
HETATM   20  C   UNK N   1      32.970  16.523   8.718  0.00  0.00     0.211 C 
BRANCH  20  21
HETATM   21  C   UNK N   1      32.250  17.682   8.039  0.00  0.00     0.354 C 
HETATM   22  F   UNK N   1      32.952  18.851   8.270  0.00  0.00    -0.194 F 
HETATM   23  F   UNK N   1      32.248  17.431   6.678  0.00  0.00    -0.194 F 
BRANCH  21  24
HETATM   24  C   UNK N   1      30.801  17.839   8.511  0.00  0.00     0.456 C 
HETATM   25  F   UNK N   1      30.650  19.076   9.111  0.00  0.00    -0.165 F 
HETATM   26  F   UNK N   1      30.474  16.860   9.432  0.00  0.00    -0.165 F 
HETATM   27  F   UNK N   1      29.935  17.758   7.433  0.00  0.00    -0.165 F 
ENDBRANCH  21  24
ENDBRANCH  20  21
ENDBRANCH  18  20
ENDBRANCH  15  16
ENDBRANCH  14  15
ENDBRANCH  12  14
ENDBRANCH   1  12
BRANCH  10  28
HETATM   28  C   UNK N   1      36.696   9.143  17.201  0.00  0.00     0.008 C 
HETATM   29  C   UNK N   1      36.561   9.747  18.402  0.00  0.00    -0.048 C 
HETATM   30  C   UNK N   1      37.249   9.103  19.580  0.00  0.00     0.071 C 
HETATM   31  C   UNK N   1      35.680  10.959  18.625  0.00  0.00    -0.033 C 
HETATM   32  C   UNK N   1      36.974   9.797  20.918  0.00  0.00     0.125 C 
HETATM   33  C   UNK N   1      35.522  10.233  21.023  0.00  0.00     0.068 C 
HETATM   34  C   UNK N   1      35.225  11.327  20.008  0.00  0.00     0.153 C 
HETATM   35  C   UNK N   1      35.342  11.786  17.629  0.00  0.00     0.022 C 
BRANCH  32  36
HETATM   36  O   UNK N   1      37.255   8.912  21.958  0.00  0.00    -0.395 OA
HETATM   37  H   UNK N   1      36.546   8.401  22.380  0.00  0.00     0.210 HD
ENDBRANCH  32  36
BRANCH  34  38
HETATM   38  O   UNK N   1      35.804  12.534  20.405  0.00  0.00    -0.391 OA
HETATM   39  H   UNK N   1      36.038  13.431  20.121  0.00  0.00     0.210 HD
ENDBRANCH  34  38
ENDBRANCH  10  28
TORSDOF 10
ENDMDL
MODEL 7
REMARK VINA RESULT:      -7.7      2.280      3.234
REMARK  10 active torsions:
REMARK  status: ('A' for Active; 'I' for Inactive)
REMARK    1  A    between atoms: C_2  and  C_3 
REMARK    2  A    between atoms: C_2  and  O_24 
REMARK    3  A    between atoms: C_12  and  C_13 
REMARK    4  A    between atoms: C_16  and  O_22 
REMARK    5  A    between atoms: C_18  and  O_21 
REMARK    6  A    between atoms: O_24  and  C_25 
REMARK    7  A    between atoms: C_25  and  C_26 
REMARK       I    between atoms: C_26  and  N_28 
REMARK    8  A    between atoms: N_28  and  C_29 
REMARK    9  A    between atoms: C_29  and  C_30 
REMARK   10  A    between atoms: C_30  and  C_31 
ROOT
HETATM    1  C   UNK N   1      25.135  16.516   4.774  0.00  0.00    -0.046 C 
HETATM    2  C   UNK N   1      25.315  15.609   5.719  0.00  0.00    -0.020 C 
HETATM    3  C   UNK N   1      26.702  15.083   5.725  0.00  0.00     0.037 C 
HETATM    4  C   UNK N   1      27.449  16.076   4.825  0.00  0.00     0.030 C 
HETATM    5  C   UNK N   1      26.363  16.693   3.925  0.00  0.00    -0.011 C 
HETATM    6  C   UNK N   1      26.687  18.129   3.456  0.00  0.00     0.015 C 
HETATM    7  C   UNK N   1      27.616  18.989   4.327  0.00  0.00     0.005 C 
HETATM    8  C   UNK N   1      27.703  18.501   5.758  0.00  0.00     0.034 C 
HETATM    9  C   UNK N   1      28.125  17.067   5.740  0.00  0.00    -0.074 C 
HETATM   10  C   UNK N   1      29.095  16.586   6.508  0.00  0.00     0.004 C 
HETATM   11  C   UNK N   1      26.200  15.836   2.679  0.00  0.00     0.021 C 
ENDROOT
BRANCH   1  12
HETATM   12  C   UNK N   1      23.744  16.987   4.442  0.00  0.00     0.147 C 
HETATM   13  C   UNK N   1      23.379  18.192   5.296  0.00  0.00     0.044 C 
BRANCH  12  14
HETATM   14  O   UNK N   1      22.790  15.990   4.625  0.00  0.00    -0.373 OA
BRANCH  14  15
HETATM   15  C   UNK N   1      22.228  15.773   3.364  0.00  0.00     0.271 C 
BRANCH  15  16
HETATM   16  C   UNK N   1      20.726  15.600   3.402  0.00  0.00     0.241 C 
HETATM   17  O   UNK N   1      20.280  14.658   4.042  0.00  0.00    -0.271 OA
HETATM   18  N   UNK N   1      19.849  16.423   2.763  0.00  0.00    -0.353 N 
HETATM   19  H   UNK N   1      18.889  16.218   2.844  0.00  0.00     0.162 HD
BRANCH  18  20
HETATM   20  C   UNK N   1      20.229  17.575   1.973  0.00  0.00     0.211 C 
BRANCH  20  21
HETATM   21  C   UNK N   1      20.056  18.887   2.729  0.00  0.00     0.354 C 
HETATM   22  F   UNK N   1      18.732  19.281   2.657  0.00  0.00    -0.194 F 
HETATM   23  F   UNK N   1      20.373  18.649   4.055  0.00  0.00    -0.194 F 
BRANCH  21  24
HETATM   24  C   UNK N   1      20.964  20.001   2.199  0.00  0.00     0.456 C 
HETATM   25  F   UNK N   1      20.536  21.216   2.703  0.00  0.00    -0.165 F 
HETATM   26  F   UNK N   1      20.919  20.057   0.818  0.00  0.00    -0.165 F 
HETATM   27  F   UNK N   1      22.270  19.786   2.603  0.00  0.00    -0.165 F 
ENDBRANCH  21  24
ENDBRANCH  20  21
ENDBRANCH  18  20
ENDBRANCH  15  16
ENDBRANCH  14  15
ENDBRANCH  12  14
ENDBRANCH   1  12
BRANCH  10  28
HETATM   28  C   UNK N   1      29.982  17.263   7.459  0.00  0.00     0.008 C 
HETATM   29  C   UNK N   1      31.316  17.054   7.397  0.00  0.00    -0.048 C 
HETATM   30  C   UNK N   1      32.200  18.012   8.155  0.00  0.00     0.071 C 
HETATM   31  C   UNK N   1      31.946  15.984   6.531  0.00  0.00    -0.033 C 
HETATM   32  C   UNK N   1      33.700  17.761   7.962  0.00  0.00     0.125 C 
HETATM   33  C   UNK N   1      34.015  17.405   6.519  0.00  0.00     0.068 C 
HETATM   34  C   UNK N   1      33.399  16.061   6.159  0.00  0.00     0.153 C 
HETATM   35  C   UNK N   1      31.270  14.900   6.132  0.00  0.00     0.022 C 
BRANCH  32  36
HETATM   36  O   UNK N   1      34.404  18.914   8.306  0.00  0.00    -0.395 OA
HETATM   37  H   UNK N   1      34.074  19.509   8.998  0.00  0.00     0.210 HD
ENDBRANCH  32  36
BRANCH  34  38
HETATM   38  O   UNK N   1      34.110  15.020   6.762  0.00  0.00    -0.391 OA
HETATM   39  H   UNK N   1      34.751  14.797   7.455  0.00  0.00     0.210 HD
ENDBRANCH  34  38
ENDBRANCH  10  28
TORSDOF 10
ENDMDL
MODEL 8
REMARK VINA RESULT:      -7.7      5.985      8.715
REMARK  10 active torsions:
REMARK  status: ('A' for Active; 'I' for Inactive)
REMARK    1  A    between atoms: C_2  and  C_3 
REMARK    2  A    between atoms: C_2  and  O_24 
REMARK    3  A    between atoms: C_12  and  C_13 
REMARK    4  A    between atoms: C_16  and  O_22 
REMARK    5  A    between atoms: C_18  and  O_21 
REMARK    6  A    between atoms: O_24  and  C_25 
REMARK    7  A    between atoms: C_25  and  C_26 
REMARK       I    between atoms: C_26  and  N_28 
REMARK    8  A    between atoms: N_28  and  C_29 
REMARK    9  A    between atoms: C_29  and  C_30 
REMARK   10  A    between atoms: C_30  and  C_31 
ROOT
HETATM    1  C   UNK N   1      32.253  15.293   6.084  0.00  0.00    -0.046 C 
HETATM    2  C   UNK N   1      32.386  14.107   6.652  0.00  0.00    -0.020 C 
HETATM    3  C   UNK N   1      33.779  13.863   7.102  0.00  0.00     0.037 C 
HETATM    4  C   UNK N   1      34.418  15.254   7.014  0.00  0.00     0.030 C 
HETATM    5  C   UNK N   1      33.566  16.019   5.983  0.00  0.00    -0.011 C 
HETATM    6  C   UNK N   1      33.539  17.546   6.210  0.00  0.00     0.015 C 
HETATM    7  C   UNK N   1      33.778  18.078   7.633  0.00  0.00     0.005 C 
HETATM    8  C   UNK N   1      33.525  17.035   8.701  0.00  0.00     0.034 C 
HETATM    9  C   UNK N   1      34.374  15.841   8.403  0.00  0.00    -0.074 C 
HETATM   10  C   UNK N   1      35.124  15.237   9.316  0.00  0.00     0.004 C 
HETATM   11  C   UNK N   1      34.129  15.778   4.592  0.00  0.00     0.021 C 
ENDROOT
BRANCH   1  12
HETATM   12  C   UNK N   1      30.986  15.632   5.343  0.00  0.00     0.147 C 
HETATM   13  C   UNK N   1      30.925  14.869   4.029  0.00  0.00     0.044 C 
BRANCH  12  14
HETATM   14  O   UNK N   1      30.871  16.996   5.088  0.00  0.00    -0.373 OA
BRANCH  14  15
HETATM   15  C   UNK N   1      29.589  17.171   4.560  0.00  0.00     0.271 C 
BRANCH  15  16
HETATM   16  C   UNK N   1      28.814  18.282   5.233  0.00  0.00     0.241 C 
HETATM   17  O   UNK N   1      28.568  19.282   4.573  0.00  0.00    -0.271 OA
HETATM   18  N   UNK N   1      28.387  18.237   6.526  0.00  0.00    -0.353 N 
HETATM   19  H   UNK N   1      27.897  19.017   6.872  0.00  0.00     0.162 HD
BRANCH  18  20
HETATM   20  C   UNK N   1      28.602  17.123   7.424  0.00  0.00     0.211 C 
BRANCH  20  21
HETATM   21  C   UNK N   1      29.702  17.395   8.443  0.00  0.00     0.354 C 
HETATM   22  F   UNK N   1      30.472  16.256   8.595  0.00  0.00    -0.194 F 
HETATM   23  F   UNK N   1      30.502  18.402   7.934  0.00  0.00    -0.194 F 
BRANCH  21  24
HETATM   24  C   UNK N   1      29.154  17.842   9.802  0.00  0.00     0.456 C 
HETATM   25  F   UNK N   1      27.807  18.128   9.679  0.00  0.00    -0.165 F 
HETATM   26  F   UNK N   1      29.808  18.978  10.246  0.00  0.00    -0.165 F 
HETATM   27  F   UNK N   1      29.312  16.833  10.737  0.00  0.00    -0.165 F 
ENDBRANCH  21  24
ENDBRANCH  20  21
ENDBRANCH  18  20
ENDBRANCH  15  16
ENDBRANCH  14  15
ENDBRANCH  12  14
ENDBRANCH   1  12
BRANCH  10  28
HETATM   28  C   UNK N   1      35.358  15.563  10.726  0.00  0.00     0.008 C 
HETATM   29  C   UNK N   1      35.522  14.569  11.626  0.00  0.00    -0.048 C 
HETATM   30  C   UNK N   1      36.087  14.944  12.973  0.00  0.00     0.071 C 
HETATM   31  C   UNK N   1      35.264  13.112  11.306  0.00  0.00    -0.033 C 
HETATM   32  C   UNK N   1      36.326  13.750  13.903  0.00  0.00     0.125 C 
HETATM   33  C   UNK N   1      36.887  12.562  13.140  0.00  0.00     0.068 C 
HETATM   34  C   UNK N   1      35.853  12.027  12.160  0.00  0.00     0.153 C 
HETATM   35  C   UNK N   1      34.449  12.735  10.314  0.00  0.00     0.022 C 
BRANCH  32  36
HETATM   36  O   UNK N   1      37.232  14.117  14.896  0.00  0.00    -0.395 OA
HETATM   37  H   UNK N   1      37.154  14.973  15.348  0.00  0.00     0.210 HD
ENDBRANCH  32  36
BRANCH  34  38
HETATM   38  O   UNK N   1      34.843  11.342  12.841  0.00  0.00    -0.391 OA
HETATM   39  H   UNK N   1      34.656  10.623  13.464  0.00  0.00     0.210 HD
ENDBRANCH  34  38
ENDBRANCH  10  28
TORSDOF 10
ENDMDL
MODEL 9
REMARK VINA RESULT:      -7.6      2.382      3.810
REMARK  10 active torsions:
REMARK  status: ('A' for Active; 'I' for Inactive)
REMARK    1  A    between atoms: C_2  and  C_3 
REMARK    2  A    between atoms: C_2  and  O_24 
REMARK    3  A    between atoms: C_12  and  C_13 
REMARK    4  A    between atoms: C_16  and  O_22 
REMARK    5  A    between atoms: C_18  and  O_21 
REMARK    6  A    between atoms: O_24  and  C_25 
REMARK    7  A    between atoms: C_25  and  C_26 
REMARK       I    between atoms: C_26  and  N_28 
REMARK    8  A    between atoms: N_28  and  C_29 
REMARK    9  A    between atoms: C_29  and  C_30 
REMARK   10  A    between atoms: C_30  and  C_31 
ROOT
HETATM    1  C   UNK N   1      25.603  16.009   3.998  0.00  0.00    -0.046 C 
HETATM    2  C   UNK N   1      25.796  17.304   3.818  0.00  0.00    -0.020 C 
HETATM    3  C   UNK N   1      26.637  17.891   4.890  0.00  0.00     0.037 C 
HETATM    4  C   UNK N   1      27.214  16.655   5.590  0.00  0.00     0.030 C 
HETATM    5  C   UNK N   1      26.221  15.520   5.278  0.00  0.00    -0.011 C 
HETATM    6  C   UNK N   1      26.868  14.118   5.250  0.00  0.00     0.015 C 
HETATM    7  C   UNK N   1      28.365  14.010   4.919  0.00  0.00     0.005 C 
HETATM    8  C   UNK N   1      28.897  15.228   4.193  0.00  0.00     0.034 C 
HETATM    9  C   UNK N   1      28.594  16.437   5.019  0.00  0.00    -0.074 C 
HETATM   10  C   UNK N   1      29.494  17.372   5.295  0.00  0.00     0.004 C 
HETATM   11  C   UNK N   1      25.137  15.497   6.344  0.00  0.00     0.021 C 
ENDROOT
BRANCH   1  12
HETATM   12  C   UNK N   1      24.581  15.281   3.164  0.00  0.00     0.147 C 
HETATM   13  C   UNK N   1      25.171  14.910   1.812  0.00  0.00     0.044 C 
BRANCH  12  14
HETATM   14  O   UNK N   1      23.425  16.032   2.970  0.00  0.00    -0.373 OA
BRANCH  14  15
HETATM   15  C   UNK N   1      22.383  15.104   2.893  0.00  0.00     0.271 C 
BRANCH  15  16
HETATM   16  C   UNK N   1      21.498  15.300   1.683  0.00  0.00     0.241 C 
HETATM   17  O   UNK N   1      21.809  14.717   0.653  0.00  0.00    -0.271 OA
HETATM   18  N   UNK N   1      20.388  16.089   1.671  0.00  0.00    -0.353 N 
HETATM   19  H   UNK N   1      19.884  16.156   0.828  0.00  0.00     0.162 HD
BRANCH  18  20
HETATM   20  C   UNK N   1      19.897  16.834   2.811  0.00  0.00     0.211 C 
BRANCH  20  21
HETATM   21  C   UNK N   1      20.090  18.338   2.656  0.00  0.00     0.354 C 
HETATM   22  F   UNK N   1      20.579  18.605   1.390  0.00  0.00    -0.194 F 
HETATM   23  F   UNK N   1      18.846  18.932   2.781  0.00  0.00    -0.194 F 
BRANCH  21  24
HETATM   24  C   UNK N   1      21.026  18.929   3.714  0.00  0.00     0.456 C 
HETATM   25  F   UNK N   1      21.025  18.113   4.830  0.00  0.00    -0.165 F 
HETATM   26  F   UNK N   1      20.606  20.192   4.091  0.00  0.00    -0.165 F 
HETATM   27  F   UNK N   1      22.317  19.008   3.220  0.00  0.00    -0.165 F 
ENDBRANCH  21  24
ENDBRANCH  20  21
ENDBRANCH  18  20
ENDBRANCH  15  16
ENDBRANCH  14  15
ENDBRANCH  12  14
ENDBRANCH   1  12
BRANCH  10  28
HETATM   28  C   UNK N   1      30.918  17.456   4.954  0.00  0.00     0.008 C 
HETATM   29  C   UNK N   1      31.850  17.183   5.893  0.00  0.00    -0.048 C 
HETATM   30  C   UNK N   1      33.263  16.954   5.418  0.00  0.00     0.071 C 
HETATM   31  C   UNK N   1      31.518  17.001   7.360  0.00  0.00    -0.033 C 
HETATM   32  C   UNK N   1      34.240  16.563   6.532  0.00  0.00     0.125 C 
HETATM   33  C   UNK N   1      33.595  15.600   7.515  0.00  0.00     0.068 C 
HETATM   34  C   UNK N   1      32.474  16.292   8.276  0.00  0.00     0.153 C 
HETATM   35  C   UNK N   1      30.416  17.524   7.910  0.00  0.00     0.022 C 
BRANCH  32  36
HETATM   36  O   UNK N   1      35.357  15.951   5.967  0.00  0.00    -0.395 OA
HETATM   37  H   UNK N   1      35.626  15.059   6.240  0.00  0.00     0.210 HD
ENDBRANCH  32  36
BRANCH  34  38
HETATM   38  O   UNK N   1      32.998  17.184   9.214  0.00  0.00    -0.391 OA
HETATM   39  H   UNK N   1      32.993  18.104   9.521  0.00  0.00     0.210 HD
ENDBRANCH  34  38
ENDBRANCH  10  28
TORSDOF 10
ENDMDL
