MODEL 1
REMARK VINA RESULT:      -8.7      0.000      0.000
REMARK  7 active torsions:
REMARK  status: ('A' for Active; 'I' for Inactive)
REMARK    1  A    between atoms: C_2  and  C_4 
REMARK    2  A    between atoms: C_2  and  O_40 
REMARK    3  A    between atoms: C_8  and  N_11 
REMARK       I    between atoms: C_17  and  N_20 
REMARK    4  A    between atoms: N_20  and  C_21 
REMARK    5  A    between atoms: C_24  and  N_27 
REMARK    6  A    between atoms: N_36  and  C_37 
REMARK    7  A    between atoms: C_37  and  C_38 
ROOT
HETATM    1  N   UNK N   1      21.944  17.392   4.485  0.00  0.00    -0.217 N 
HETATM    2  C   UNK N   1      22.645  18.464   4.015  0.00  0.00     0.162 A 
HETATM    3  C   UNK N   1      21.846  19.225   3.210  0.00  0.00     0.096 A 
HETATM    4  C   UNK N   1      22.318  20.380   2.621  0.00  0.00     0.127 A 
HETATM    5  N   UNK N   1      23.602  20.744   2.890  0.00  0.00    -0.201 N 
ATOM      6  HN  UNK N   1      23.973  21.597   2.474  1.00  0.00     0.183 HD
HETATM    7  C   UNK N   1      24.410  19.992   3.707  0.00  0.00     0.684 A 
HETATM    8  N   UNK N   1      23.929  18.828   4.277  0.00  0.00    -0.173 N 
ATOM      9  HN  UNK N   1      24.522  18.258   4.880  1.00  0.00     0.186 HD
HETATM   10  N   UNK N   1      25.723  20.473   3.984  0.00  0.00    -0.192 N 
HETATM   11  C   UNK N   1      20.633  18.602   3.196  0.00  0.00     0.278 A 
HETATM   12  O   UNK N   1      19.637  18.974   2.599  0.00  0.00    -0.265 OA
HETATM   13  N   UNK N   1      20.700  17.489   3.977  0.00  0.00    -0.243 N 
HETATM   14  H   UNK N   1      25.950  21.374   3.656  0.00  0.00     0.184 HD
ENDROOT
BRANCH  10  15
HETATM   15  C   UNK N   1      26.731  19.768   4.689  0.00  0.00     0.049 A 
HETATM   16  C   UNK N   1      27.498  18.798   4.025  0.00  0.00     0.032 A 
HETATM   17  C   UNK N   1      28.474  18.069   4.724  0.00  0.00     0.031 A 
HETATM   18  C   UNK N   1      28.673  18.300   6.098  0.00  0.00     0.030 A 
HETATM   19  C   UNK N   1      27.896  19.265   6.735  0.00  0.00     0.031 A 
HETATM   20  C   UNK N   1      26.943  19.995   6.045  0.00  0.00     0.032 A 
BRANCH  18  21
HETATM   21  N   UNK N   1      29.612  17.545   6.860  0.00  0.00    -0.378 N 
HETATM   22  C   UNK N   1      30.504  16.587   6.244  0.00  0.00     0.153 C 
HETATM   23  C   UNK N   1      31.929  16.849   6.744  0.00  0.00     0.291 C 
HETATM   24  N   UNK N   1      31.948  16.851   8.210  0.00  0.00     0.087 N 
HETATM   25  C   UNK N   1      31.131  17.960   8.696  0.00  0.00     0.291 C 
HETATM   26  C   UNK N   1      33.312  17.098   8.639  0.00  0.00     0.310 C 
HETATM   27  C   UNK N   1      29.684  17.713   8.299  0.00  0.00     0.153 C 
ENDBRANCH  18  21
ENDBRANCH  10  15
BRANCH   1  28
HETATM   28  C   UNK N   1      22.400  16.333   5.383  0.00  0.00     0.129 A 
HETATM   29  C   UNK N   1      23.659  15.751   5.188  0.00  0.00     0.050 A 
HETATM   30  C   UNK N   1      24.134  14.765   6.038  0.00  0.00     0.006 A 
HETATM   31  C   UNK N   1      23.346  14.346   7.093  0.00  0.00     0.028 A 
HETATM   32  C   UNK N   1      22.083  14.916   7.290  0.00  0.00     0.044 A 
HETATM   33  N   UNK N   1      21.634  15.897   6.434  0.00  0.00    -0.342 N 
ATOM     34  HN  UNK N   1      20.713  16.308   6.585  1.00  0.00     0.167 HD
BRANCH  32  35
HETATM   35  C   UNK N   1      21.244  14.440   8.449  0.00  0.00     0.092 C 
HETATM   36  C   UNK N   1      22.142  13.835   9.507  0.00  0.00     0.052 C 
HETATM   37  C   UNK N   1      20.451  15.601   9.015  0.00  0.00     0.052 C 
BRANCH  35  38
HETATM   38  O   UNK N   1      20.338  13.454   8.044  0.00  0.00    -0.384 OA
HETATM   39  H   UNK N   1      20.403  13.069   7.156  0.00  0.00     0.211 HD
ENDBRANCH  35  38
ENDBRANCH  32  35
ENDBRANCH   1  28
BRANCH  13  40
HETATM   40  C   UNK N   1      19.558  16.606   4.216  0.00  0.00     0.179 C 
BRANCH  40  41
HETATM   41  C   UNK N   1      19.669  15.353   3.415  0.00  0.00    -0.015 C 
HETATM   42  C   UNK N   1      19.526  14.176   4.018  0.00  0.00     0.008 C 
ENDBRANCH  40  41
ENDBRANCH  13  40
TORSDOF 7
ENDMDL
MODEL 2
REMARK VINA RESULT:      -8.3      1.229      2.005
REMARK  7 active torsions:
REMARK  status: ('A' for Active; 'I' for Inactive)
REMARK    1  A    between atoms: C_2  and  C_4 
REMARK    2  A    between atoms: C_2  and  O_40 
REMARK    3  A    between atoms: C_8  and  N_11 
REMARK       I    between atoms: C_17  and  N_20 
REMARK    4  A    between atoms: N_20  and  C_21 
REMARK    5  A    between atoms: C_24  and  N_27 
REMARK    6  A    between atoms: N_36  and  C_37 
REMARK    7  A    between atoms: C_37  and  C_38 
ROOT
HETATM    1  N   UNK N   1      21.751  17.265   4.549  0.00  0.00    -0.217 N 
HETATM    2  C   UNK N   1      22.417  18.345   4.046  0.00  0.00     0.162 A 
HETATM    3  C   UNK N   1      21.577  19.085   3.263  0.00  0.00     0.096 A 
HETATM    4  C   UNK N   1      22.008  20.242   2.648  0.00  0.00     0.127 A 
HETATM    5  N   UNK N   1      23.294  20.631   2.869  0.00  0.00    -0.201 N 
ATOM      6  HN  UNK N   1      23.635  21.486   2.433  1.00  0.00     0.183 HD
HETATM    7  C   UNK N   1      24.142  19.901   3.664  0.00  0.00     0.684 A 
HETATM    8  N   UNK N   1      23.702  18.734   4.261  0.00  0.00    -0.173 N 
ATOM      9  HN  UNK N   1      24.325  18.179   4.848  1.00  0.00     0.186 HD
HETATM   10  N   UNK N   1      25.456  20.407   3.891  0.00  0.00    -0.192 N 
HETATM   11  C   UNK N   1      20.375  18.441   3.296  0.00  0.00     0.278 A 
HETATM   12  O   UNK N   1      19.353  18.790   2.731  0.00  0.00    -0.265 OA
HETATM   13  N   UNK N   1      20.488  17.336   4.083  0.00  0.00    -0.243 N 
HETATM   14  H   UNK N   1      25.655  21.308   3.548  0.00  0.00     0.184 HD
ENDROOT
BRANCH  10  15
HETATM   15  C   UNK N   1      26.499  19.725   4.567  0.00  0.00     0.049 A 
HETATM   16  C   UNK N   1      27.196  18.695   3.916  0.00  0.00     0.032 A 
HETATM   17  C   UNK N   1      28.207  17.990   4.590  0.00  0.00     0.031 A 
HETATM   18  C   UNK N   1      28.512  18.307   5.926  0.00  0.00     0.030 A 
HETATM   19  C   UNK N   1      27.804  19.331   6.552  0.00  0.00     0.031 A 
HETATM   20  C   UNK N   1      26.816  20.036   5.886  0.00  0.00     0.032 A 
BRANCH  18  21
HETATM   21  N   UNK N   1      29.491  17.581   6.668  0.00  0.00    -0.378 N 
HETATM   22  C   UNK N   1      30.506  16.783   6.017  0.00  0.00     0.153 C 
HETATM   23  C   UNK N   1      31.871  17.138   6.616  0.00  0.00     0.291 C 
HETATM   24  N   UNK N   1      31.824  17.001   8.075  0.00  0.00     0.087 N 
HETATM   25  C   UNK N   1      30.873  17.970   8.615  0.00  0.00     0.291 C 
HETATM   26  C   UNK N   1      33.133  17.343   8.600  0.00  0.00     0.310 C 
HETATM   27  C   UNK N   1      29.479  17.617   8.118  0.00  0.00     0.153 C 
ENDBRANCH  18  21
ENDBRANCH  10  15
BRANCH   1  28
HETATM   28  C   UNK N   1      22.256  16.223   5.440  0.00  0.00     0.129 A 
HETATM   29  C   UNK N   1      21.755  16.119   6.744  0.00  0.00     0.050 A 
HETATM   30  C   UNK N   1      22.192  15.126   7.604  0.00  0.00     0.006 A 
HETATM   31  C   UNK N   1      23.145  14.226   7.168  0.00  0.00     0.028 A 
HETATM   32  C   UNK N   1      23.659  14.328   5.871  0.00  0.00     0.044 A 
HETATM   33  N   UNK N   1      23.207  15.322   5.032  0.00  0.00    -0.342 N 
ATOM     34  HN  UNK N   1      23.585  15.390   4.087  1.00  0.00     0.167 HD
BRANCH  32  35
HETATM   35  C   UNK N   1      24.699  13.334   5.420  0.00  0.00     0.092 C 
HETATM   36  C   UNK N   1      26.035  14.032   5.272  0.00  0.00     0.052 C 
HETATM   37  C   UNK N   1      24.793  12.202   6.424  0.00  0.00     0.052 C 
BRANCH  35  38
HETATM   38  O   UNK N   1      24.366  12.783   4.178  0.00  0.00    -0.384 OA
HETATM   39  H   UNK N   1      23.576  12.227   4.090  0.00  0.00     0.211 HD
ENDBRANCH  35  38
ENDBRANCH  32  35
ENDBRANCH   1  28
BRANCH  13  40
HETATM   40  C   UNK N   1      19.371  16.437   4.370  0.00  0.00     0.179 C 
BRANCH  40  41
HETATM   41  C   UNK N   1      19.538  15.130   3.669  0.00  0.00    -0.015 C 
HETATM   42  C   UNK N   1      19.446  13.999   4.363  0.00  0.00     0.008 C 
ENDBRANCH  40  41
ENDBRANCH  13  40
TORSDOF 7
ENDMDL
MODEL 3
REMARK VINA RESULT:      -8.1     13.270     16.255
REMARK  7 active torsions:
REMARK  status: ('A' for Active; 'I' for Inactive)
REMARK    1  A    between atoms: C_2  and  C_4 
REMARK    2  A    between atoms: C_2  and  O_40 
REMARK    3  A    between atoms: C_8  and  N_11 
REMARK       I    between atoms: C_17  and  N_20 
REMARK    4  A    between atoms: N_20  and  C_21 
REMARK    5  A    between atoms: C_24  and  N_27 
REMARK    6  A    between atoms: N_36  and  C_37 
REMARK    7  A    between atoms: C_37  and  C_38 
ROOT
HETATM    1  N   UNK N   1      29.732  28.024  -3.188  0.00  0.00    -0.217 N 
HETATM    2  C   UNK N   1      28.437  28.327  -3.498  0.00  0.00     0.162 A 
HETATM    3  C   UNK N   1      28.037  29.428  -2.796  0.00  0.00     0.096 A 
HETATM    4  C   UNK N   1      26.767  29.947  -2.945  0.00  0.00     0.127 A 
HETATM    5  N   UNK N   1      25.938  29.335  -3.834  0.00  0.00    -0.201 N 
ATOM      6  HN  UNK N   1      24.997  29.703  -3.969  1.00  0.00     0.183 HD
HETATM    7  C   UNK N   1      26.335  28.235  -4.553  0.00  0.00     0.684 A 
HETATM    8  N   UNK N   1      27.604  27.715  -4.381  0.00  0.00    -0.173 N 
ATOM      9  HN  UNK N   1      27.908  26.894  -4.905  1.00  0.00     0.186 HD
HETATM   10  N   UNK N   1      25.426  27.688  -5.505  0.00  0.00    -0.192 N 
HETATM   11  C   UNK N   1      29.113  29.802  -2.048  0.00  0.00     0.278 A 
HETATM   12  O   UNK N   1      29.169  30.754  -1.287  0.00  0.00    -0.265 OA
HETATM   13  N   UNK N   1      30.142  28.945  -2.294  0.00  0.00    -0.243 N 
HETATM   14  H   UNK N   1      24.595  28.190  -5.673  0.00  0.00     0.184 HD
ENDROOT
BRANCH  10  15
HETATM   15  C   UNK N   1      25.613  26.485  -6.232  0.00  0.00     0.049 A 
HETATM   16  C   UNK N   1      25.563  25.252  -5.564  0.00  0.00     0.032 A 
HETATM   17  C   UNK N   1      25.783  24.057  -6.269  0.00  0.00     0.031 A 
HETATM   18  C   UNK N   1      26.070  24.097  -7.646  0.00  0.00     0.030 A 
HETATM   19  C   UNK N   1      26.118  25.334  -8.285  0.00  0.00     0.031 A 
HETATM   20  C   UNK N   1      25.888  26.512  -7.596  0.00  0.00     0.032 A 
BRANCH  18  21
HETATM   21  N   UNK N   1      26.357  22.914  -8.390  0.00  0.00    -0.378 N 
HETATM   22  C   UNK N   1      26.316  22.893  -9.836  0.00  0.00     0.153 C 
HETATM   23  C   UNK N   1      27.604  22.244 -10.354  0.00  0.00     0.291 C 
HETATM   24  N   UNK N   1      27.788  20.932  -9.725  0.00  0.00     0.087 N 
HETATM   25  C   UNK N   1      27.969  21.115  -8.287  0.00  0.00     0.291 C 
HETATM   26  C   UNK N   1      29.013  20.354 -10.245  0.00  0.00     0.310 C 
HETATM   27  C   UNK N   1      26.686  21.682  -7.700  0.00  0.00     0.153 C 
ENDBRANCH  18  21
ENDBRANCH  10  15
BRANCH   1  28
HETATM   28  C   UNK N   1      30.560  26.941  -3.712  0.00  0.00     0.129 A 
HETATM   29  C   UNK N   1      31.573  27.225  -4.637  0.00  0.00     0.050 A 
HETATM   30  C   UNK N   1      32.394  26.226  -5.132  0.00  0.00     0.006 A 
HETATM   31  C   UNK N   1      32.204  24.924  -4.710  0.00  0.00     0.028 A 
HETATM   32  C   UNK N   1      31.188  24.629  -3.795  0.00  0.00     0.044 A 
HETATM   33  N   UNK N   1      30.386  25.640  -3.313  0.00  0.00    -0.342 N 
ATOM     34  HN  UNK N   1      29.648  25.418  -2.645  1.00  0.00     0.167 HD
BRANCH  32  35
HETATM   35  C   UNK N   1      31.001  23.200  -3.350  0.00  0.00     0.092 C 
HETATM   36  C   UNK N   1      29.772  22.621  -4.017  0.00  0.00     0.052 C 
HETATM   37  C   UNK N   1      32.235  22.391  -3.700  0.00  0.00     0.052 C 
BRANCH  35  38
HETATM   38  O   UNK N   1      30.813  23.123  -1.967  0.00  0.00    -0.384 OA
HETATM   39  H   UNK N   1      29.977  22.784  -1.608  0.00  0.00     0.211 HD
ENDBRANCH  35  38
ENDBRANCH  32  35
ENDBRANCH   1  28
BRANCH  13  40
HETATM   40  C   UNK N   1      31.465  29.082  -1.685  0.00  0.00     0.179 C 
BRANCH  40  41
HETATM   41  C   UNK N   1      32.269  30.133  -2.374  0.00  0.00    -0.015 C 
HETATM   42  C   UNK N   1      33.478  29.831  -2.840  0.00  0.00     0.008 C 
ENDBRANCH  40  41
ENDBRANCH  13  40
TORSDOF 7
ENDMDL
MODEL 4
REMARK VINA RESULT:      -8.0      6.458     12.273
REMARK  7 active torsions:
REMARK  status: ('A' for Active; 'I' for Inactive)
REMARK    1  A    between atoms: C_2  and  C_4 
REMARK    2  A    between atoms: C_2  and  O_40 
REMARK    3  A    between atoms: C_8  and  N_11 
REMARK       I    between atoms: C_17  and  N_20 
REMARK    4  A    between atoms: N_20  and  C_21 
REMARK    5  A    between atoms: C_24  and  N_27 
REMARK    6  A    between atoms: N_36  and  C_37 
REMARK    7  A    between atoms: C_37  and  C_38 
ROOT
HETATM    1  N   UNK N   1      34.962  12.790  10.191  0.00  0.00    -0.217 N 
HETATM    2  C   UNK N   1      34.939  14.141  10.383  0.00  0.00     0.162 A 
HETATM    3  C   UNK N   1      35.625  14.460  11.521  0.00  0.00     0.096 A 
HETATM    4  C   UNK N   1      35.762  15.770  11.929  0.00  0.00     0.127 A 
HETATM    5  N   UNK N   1      35.207  16.734  11.144  0.00  0.00    -0.201 N 
ATOM      6  HN  UNK N   1      35.301  17.712  11.419  1.00  0.00     0.183 HD
HETATM    7  C   UNK N   1      34.526  16.426   9.993  0.00  0.00     0.684 A 
HETATM    8  N   UNK N   1      34.382  15.107   9.605  0.00  0.00    -0.173 N 
ATOM      9  HN  UNK N   1      33.872  14.864   8.755  1.00  0.00     0.186 HD
HETATM   10  N   UNK N   1      34.025  17.498   9.198  0.00  0.00    -0.192 N 
HETATM   11  C   UNK N   1      36.076  13.276  12.025  0.00  0.00     0.278 A 
HETATM   12  O   UNK N   1      36.746  13.129  13.034  0.00  0.00    -0.265 OA
HETATM   13  N   UNK N   1      35.671  12.265  11.209  0.00  0.00    -0.243 N 
HETATM   14  H   UNK N   1      34.283  18.411   9.462  0.00  0.00     0.184 HD
ENDROOT
BRANCH  10  15
HETATM   15  C   UNK N   1      33.190  17.364   8.060  0.00  0.00     0.049 A 
HETATM   16  C   UNK N   1      33.750  17.409   6.775  0.00  0.00     0.032 A 
HETATM   17  C   UNK N   1      32.926  17.313   5.641  0.00  0.00     0.031 A 
HETATM   18  C   UNK N   1      31.534  17.187   5.794  0.00  0.00     0.030 A 
HETATM   19  C   UNK N   1      31.001  17.149   7.081  0.00  0.00     0.031 A 
HETATM   20  C   UNK N   1      31.812  17.230   8.200  0.00  0.00     0.032 A 
BRANCH  18  21
HETATM   21  N   UNK N   1      30.653  17.144   4.673  0.00  0.00    -0.378 N 
HETATM   22  C   UNK N   1      31.041  16.534   3.420  0.00  0.00     0.153 C 
HETATM   23  C   UNK N   1      29.929  15.579   2.972  0.00  0.00     0.291 C 
HETATM   24  N   UNK N   1      28.647  16.290   2.939  0.00  0.00     0.087 N 
HETATM   25  C   UNK N   1      28.303  16.716   4.293  0.00  0.00     0.291 C 
HETATM   26  C   UNK N   1      27.627  15.352   2.509  0.00  0.00     0.310 C 
HETATM   27  C   UNK N   1      29.331  17.734   4.762  0.00  0.00     0.153 C 
ENDBRANCH  18  21
ENDBRANCH  10  15
BRANCH   1  28
HETATM   28  C   UNK N   1      34.369  12.020   9.099  0.00  0.00     0.129 A 
HETATM   29  C   UNK N   1      34.647  12.370   7.771  0.00  0.00     0.050 A 
HETATM   30  C   UNK N   1      34.124  11.644   6.714  0.00  0.00     0.006 A 
HETATM   31  C   UNK N   1      33.309  10.559   6.976  0.00  0.00     0.028 A 
HETATM   32  C   UNK N   1      33.019  10.209   8.299  0.00  0.00     0.044 A 
HETATM   33  N   UNK N   1      33.553  10.943   9.334  0.00  0.00    -0.342 N 
ATOM     34  HN  UNK N   1      33.337  10.681  10.296  1.00  0.00     0.167 HD
BRANCH  32  35
HETATM   35  C   UNK N   1      32.126   9.021   8.557  0.00  0.00     0.092 C 
HETATM   36  C   UNK N   1      32.569   7.860   7.693  0.00  0.00     0.052 C 
HETATM   37  C   UNK N   1      32.182   8.650  10.026  0.00  0.00     0.052 C 
BRANCH  35  38
HETATM   38  O   UNK N   1      30.796   9.310   8.235  0.00  0.00    -0.384 OA
HETATM   39  H   UNK N   1      30.191   8.596   7.982  0.00  0.00     0.211 HD
ENDBRANCH  35  38
ENDBRANCH  32  35
ENDBRANCH   1  28
BRANCH  13  40
HETATM   40  C   UNK N   1      36.019  10.862  11.434  0.00  0.00     0.179 C 
BRANCH  40  41
HETATM   41  C   UNK N   1      35.352  10.332  12.659  0.00  0.00    -0.015 C 
HETATM   42  C   UNK N   1      34.027  10.387  12.759  0.00  0.00     0.008 C 
ENDBRANCH  40  41
ENDBRANCH  13  40
TORSDOF 7
ENDMDL
MODEL 5
REMARK VINA RESULT:      -7.9      2.945      5.449
REMARK  7 active torsions:
REMARK  status: ('A' for Active; 'I' for Inactive)
REMARK    1  A    between atoms: C_2  and  C_4 
REMARK    2  A    between atoms: C_2  and  O_40 
REMARK    3  A    between atoms: C_8  and  N_11 
REMARK       I    between atoms: C_17  and  N_20 
REMARK    4  A    between atoms: N_20  and  C_21 
REMARK    5  A    between atoms: C_24  and  N_27 
REMARK    6  A    between atoms: N_36  and  C_37 
REMARK    7  A    between atoms: C_37  and  C_38 
ROOT
HETATM    1  N   UNK N   1      23.719  17.806   3.920  0.00  0.00    -0.217 N 
HETATM    2  C   UNK N   1      23.862  16.456   3.771  0.00  0.00     0.162 A 
HETATM    3  C   UNK N   1      22.633  15.868   3.672  0.00  0.00     0.096 A 
HETATM    4  C   UNK N   1      22.506  14.505   3.499  0.00  0.00     0.127 A 
HETATM    5  N   UNK N   1      23.651  13.773   3.408  0.00  0.00    -0.201 N 
ATOM      6  HN  UNK N   1      23.585  12.765   3.272  1.00  0.00     0.183 HD
HETATM    7  C   UNK N   1      24.890  14.357   3.494  0.00  0.00     0.684 A 
HETATM    8  N   UNK N   1      25.003  15.722   3.684  0.00  0.00    -0.173 N 
ATOM      9  HN  UNK N   1      25.918  16.166   3.757  1.00  0.00     0.186 HD
HETATM   10  N   UNK N   1      26.039  13.528   3.331  0.00  0.00    -0.192 N 
HETATM   11  C   UNK N   1      21.727  16.883   3.759  0.00  0.00     0.278 A 
HETATM   12  O   UNK N   1      20.513  16.775   3.703  0.00  0.00    -0.265 OA
HETATM   13  N   UNK N   1      22.395  18.059   3.907  0.00  0.00    -0.243 N 
HETATM   14  H   UNK N   1      25.883  12.593   3.062  0.00  0.00     0.184 HD
ENDROOT
BRANCH  10  15
HETATM   15  C   UNK N   1      27.384  13.932   3.521  0.00  0.00     0.049 A 
HETATM   16  C   UNK N   1      28.053  13.592   4.707  0.00  0.00     0.032 A 
HETATM   17  C   UNK N   1      29.374  14.019   4.921  0.00  0.00     0.031 A 
HETATM   18  C   UNK N   1      30.025  14.802   3.949  0.00  0.00     0.030 A 
HETATM   19  C   UNK N   1      29.338  15.129   2.782  0.00  0.00     0.031 A 
HETATM   20  C   UNK N   1      28.040  14.699   2.563  0.00  0.00     0.032 A 
BRANCH  18  21
HETATM   21  N   UNK N   1      31.345  15.305   4.147  0.00  0.00    -0.378 N 
HETATM   22  C   UNK N   1      31.772  16.570   3.592  0.00  0.00     0.153 C 
HETATM   23  C   UNK N   1      32.447  17.390   4.696  0.00  0.00     0.291 C 
HETATM   24  N   UNK N   1      33.514  16.601   5.319  0.00  0.00     0.087 N 
HETATM   25  C   UNK N   1      32.925  15.435   5.973  0.00  0.00     0.291 C 
HETATM   26  C   UNK N   1      34.126  17.413   6.354  0.00  0.00     0.310 C 
HETATM   27  C   UNK N   1      32.309  14.537   4.912  0.00  0.00     0.153 C 
ENDBRANCH  18  21
ENDBRANCH  10  15
BRANCH   1  28
HETATM   28  C   UNK N   1      24.764  18.819   4.049  0.00  0.00     0.129 A 
HETATM   29  C   UNK N   1      25.202  19.514   2.914  0.00  0.00     0.050 A 
HETATM   30  C   UNK N   1      26.170  20.500   3.005  0.00  0.00     0.006 A 
HETATM   31  C   UNK N   1      26.717  20.797   4.238  0.00  0.00     0.028 A 
HETATM   32  C   UNK N   1      26.293  20.101   5.376  0.00  0.00     0.044 A 
HETATM   33  N   UNK N   1      25.326  19.128   5.261  0.00  0.00    -0.342 N 
ATOM     34  HN  UNK N   1      25.021  18.625   6.095  1.00  0.00     0.167 HD
BRANCH  32  35
HETATM   35  C   UNK N   1      26.907  20.445   6.710  0.00  0.00     0.092 C 
HETATM   36  C   UNK N   1      27.720  19.270   7.209  0.00  0.00     0.052 C 
HETATM   37  C   UNK N   1      27.775  21.680   6.570  0.00  0.00     0.052 C 
BRANCH  35  38
HETATM   38  O   UNK N   1      25.920  20.717   7.663  0.00  0.00    -0.384 OA
HETATM   39  H   UNK N   1      25.707  20.060   8.344  0.00  0.00     0.211 HD
ENDBRANCH  35  38
ENDBRANCH  32  35
ENDBRANCH   1  28
BRANCH  13  40
HETATM   40  C   UNK N   1      21.727  19.358   3.990  0.00  0.00     0.179 C 
BRANCH  40  41
HETATM   41  C   UNK N   1      21.629  20.001   2.648  0.00  0.00    -0.015 C 
HETATM   42  C   UNK N   1      20.573  20.756   2.359  0.00  0.00     0.008 C 
ENDBRANCH  40  41
ENDBRANCH  13  40
TORSDOF 7
ENDMDL
MODEL 6
REMARK VINA RESULT:      -7.9      1.691      2.241
REMARK  7 active torsions:
REMARK  status: ('A' for Active; 'I' for Inactive)
REMARK    1  A    between atoms: C_2  and  C_4 
REMARK    2  A    between atoms: C_2  and  O_40 
REMARK    3  A    between atoms: C_8  and  N_11 
REMARK       I    between atoms: C_17  and  N_20 
REMARK    4  A    between atoms: N_20  and  C_21 
REMARK    5  A    between atoms: C_24  and  N_27 
REMARK    6  A    between atoms: N_36  and  C_37 
REMARK    7  A    between atoms: C_37  and  C_38 
ROOT
HETATM    1  N   UNK N   1      23.191  16.089   5.218  0.00  0.00    -0.217 N 
HETATM    2  C   UNK N   1      23.806  17.264   4.894  0.00  0.00     0.162 A 
HETATM    3  C   UNK N   1      22.931  18.080   4.236  0.00  0.00     0.096 A 
HETATM    4  C   UNK N   1      23.307  19.338   3.814  0.00  0.00     0.127 A 
HETATM    5  N   UNK N   1      24.575  19.744   4.098  0.00  0.00    -0.201 N 
ATOM      6  HN  UNK N   1      24.876  20.672   3.804  1.00  0.00     0.183 HD
HETATM    7  C   UNK N   1      25.459  18.936   4.770  0.00  0.00     0.684 A 
HETATM    8  N   UNK N   1      25.074  17.671   5.172  0.00  0.00    -0.173 N 
ATOM      9  HN  UNK N   1      25.723  17.058   5.666  1.00  0.00     0.186 HD
HETATM   10  N   UNK N   1      26.749  19.458   5.078  0.00  0.00    -0.192 N 
HETATM   11  C   UNK N   1      21.760  17.385   4.162  0.00  0.00     0.278 A 
HETATM   12  O   UNK N   1      20.720  17.773   3.656  0.00  0.00    -0.265 OA
HETATM   13  N   UNK N   1      21.925  16.176   4.765  0.00  0.00    -0.243 N 
HETATM   14  H   UNK N   1      26.906  20.411   4.884  0.00  0.00     0.184 HD
ENDROOT
BRANCH  10  15
HETATM   15  C   UNK N   1      27.825  18.726   5.641  0.00  0.00     0.049 A 
HETATM   16  C   UNK N   1      28.678  17.987   4.807  0.00  0.00     0.032 A 
HETATM   17  C   UNK N   1      29.725  17.230   5.358  0.00  0.00     0.031 A 
HETATM   18  C   UNK N   1      29.909  17.199   6.753  0.00  0.00     0.030 A 
HETATM   19  C   UNK N   1      29.046  17.937   7.560  0.00  0.00     0.031 A 
HETATM   20  C   UNK N   1      28.022  18.695   7.018  0.00  0.00     0.032 A 
BRANCH  18  21
HETATM   21  N   UNK N   1      30.922  16.399   7.361  0.00  0.00    -0.378 N 
HETATM   22  C   UNK N   1      31.481  15.242   6.699  0.00  0.00     0.153 C 
HETATM   23  C   UNK N   1      33.010  15.326   6.769  0.00  0.00     0.291 C 
HETATM   24  N   UNK N   1      33.436  15.505   8.160  0.00  0.00     0.087 N 
HETATM   25  C   UNK N   1      32.930  16.783   8.654  0.00  0.00     0.291 C 
HETATM   26  C   UNK N   1      34.885  15.577   8.180  0.00  0.00     0.310 C 
HETATM   27  C   UNK N   1      31.410  16.728   8.686  0.00  0.00     0.153 C 
ENDBRANCH  18  21
ENDBRANCH  10  15
BRANCH   1  28
HETATM   28  C   UNK N   1      23.747  14.942   5.934  0.00  0.00     0.129 A 
HETATM   29  C   UNK N   1      24.793  14.206   5.363  0.00  0.00     0.050 A 
HETATM   30  C   UNK N   1      25.361  13.132   6.027  0.00  0.00     0.006 A 
HETATM   31  C   UNK N   1      24.881  12.777   7.273  0.00  0.00     0.028 A 
HETATM   32  C   UNK N   1      23.829  13.500   7.846  0.00  0.00     0.044 A 
HETATM   33  N   UNK N   1      23.282  14.567   7.169  0.00  0.00    -0.342 N 
ATOM     34  HN  UNK N   1      22.517  15.091   7.594  1.00  0.00     0.167 HD
BRANCH  32  35
HETATM   35  C   UNK N   1      23.323  13.092   9.207  0.00  0.00     0.092 C 
HETATM   36  C   UNK N   1      22.024  13.812   9.500  0.00  0.00     0.052 C 
HETATM   37  C   UNK N   1      23.127  11.590   9.250  0.00  0.00     0.052 C 
BRANCH  35  38
HETATM   38  O   UNK N   1      24.237  13.437  10.209  0.00  0.00    -0.384 OA
HETATM   39  H   UNK N   1      25.178  13.232  10.100  0.00  0.00     0.211 HD
ENDBRANCH  35  38
ENDBRANCH  32  35
ENDBRANCH   1  28
BRANCH  13  40
HETATM   40  C   UNK N   1      20.851  15.192   4.901  0.00  0.00     0.179 C 
BRANCH  40  41
HETATM   41  C   UNK N   1      19.781  15.687   5.815  0.00  0.00    -0.015 C 
HETATM   42  C   UNK N   1      20.079  15.967   7.081  0.00  0.00     0.008 C 
ENDBRANCH  40  41
ENDBRANCH  13  40
TORSDOF 7
ENDMDL
MODEL 7
REMARK VINA RESULT:      -7.8      3.765      9.781
REMARK  7 active torsions:
REMARK  status: ('A' for Active; 'I' for Inactive)
REMARK    1  A    between atoms: C_2  and  C_4 
REMARK    2  A    between atoms: C_2  and  O_40 
REMARK    3  A    between atoms: C_8  and  N_11 
REMARK       I    between atoms: C_17  and  N_20 
REMARK    4  A    between atoms: N_20  and  C_21 
REMARK    5  A    between atoms: C_24  and  N_27 
REMARK    6  A    between atoms: N_36  and  C_37 
REMARK    7  A    between atoms: C_37  and  C_38 
ROOT
HETATM    1  N   UNK N   1      31.293  16.940   6.185  0.00  0.00    -0.217 N 
HETATM    2  C   UNK N   1      31.292  16.051   5.150  0.00  0.00     0.162 A 
HETATM    3  C   UNK N   1      32.576  15.744   4.800  0.00  0.00     0.096 A 
HETATM    4  C   UNK N   1      32.846  14.850   3.785  0.00  0.00     0.127 A 
HETATM    5  N   UNK N   1      31.785  14.268   3.161  0.00  0.00    -0.201 N 
ATOM      6  HN  UNK N   1      31.957  13.597   2.413  1.00  0.00     0.183 HD
HETATM    7  C   UNK N   1      30.491  14.560   3.513  0.00  0.00     0.684 A 
HETATM    8  N   UNK N   1      30.235  15.471   4.521  0.00  0.00    -0.173 N 
ATOM      9  HN  UNK N   1      29.277  15.701   4.787  1.00  0.00     0.186 HD
HETATM   10  N   UNK N   1      29.439  13.864   2.849  0.00  0.00    -0.192 N 
HETATM   11  C   UNK N   1      33.371  16.461   5.645  0.00  0.00     0.278 A 
HETATM   12  O   UNK N   1      34.591  16.457   5.666  0.00  0.00    -0.265 OA
HETATM   13  N   UNK N   1      32.583  17.184   6.487  0.00  0.00    -0.243 N 
HETATM   14  H   UNK N   1      29.696  13.133   2.242  0.00  0.00     0.184 HD
ENDROOT
BRANCH  10  15
HETATM   15  C   UNK N   1      28.053  14.133   2.988  0.00  0.00     0.049 A 
HETATM   16  C   UNK N   1      27.429  15.043   2.121  0.00  0.00     0.032 A 
HETATM   17  C   UNK N   1      26.065  15.343   2.272  0.00  0.00     0.031 A 
HETATM   18  C   UNK N   1      25.325  14.740   3.306  0.00  0.00     0.030 A 
HETATM   19  C   UNK N   1      25.968  13.843   4.157  0.00  0.00     0.031 A 
HETATM   20  C   UNK N   1      27.309  13.535   4.001  0.00  0.00     0.032 A 
BRANCH  18  21
HETATM   21  N   UNK N   1      23.953  15.057   3.534  0.00  0.00    -0.378 N 
HETATM   22  C   UNK N   1      23.554  16.154   4.388  0.00  0.00     0.153 C 
HETATM   23  C   UNK N   1      22.517  17.004   3.645  0.00  0.00     0.291 C 
HETATM   24  N   UNK N   1      21.417  16.153   3.182  0.00  0.00     0.087 N 
HETATM   25  C   UNK N   1      21.933  15.192   2.211  0.00  0.00     0.291 C 
HETATM   26  C   UNK N   1      20.460  16.996   2.490  0.00  0.00     0.310 C 
HETATM   27  C   UNK N   1      22.910  14.262   2.914  0.00  0.00     0.153 C 
ENDBRANCH  18  21
ENDBRANCH  10  15
BRANCH   1  28
HETATM   28  C   UNK N   1      30.147  17.524   6.879  0.00  0.00     0.129 A 
HETATM   29  C   UNK N   1      30.005  17.343   8.261  0.00  0.00     0.050 A 
HETATM   30  C   UNK N   1      28.946  17.906   8.954  0.00  0.00     0.006 A 
HETATM   31  C   UNK N   1      28.010  18.655   8.266  0.00  0.00     0.028 A 
HETATM   32  C   UNK N   1      28.138  18.832   6.884  0.00  0.00     0.044 A 
HETATM   33  N   UNK N   1      29.202  18.266   6.217  0.00  0.00    -0.342 N 
ATOM     34  HN  UNK N   1      29.289  18.400   5.209  1.00  0.00     0.167 HD
BRANCH  32  35
HETATM   35  C   UNK N   1      27.103  19.653   6.157  0.00  0.00     0.092 C 
HETATM   36  C   UNK N   1      27.790  20.741   5.359  0.00  0.00     0.052 C 
HETATM   37  C   UNK N   1      26.285  18.756   5.249  0.00  0.00     0.052 C 
BRANCH  35  38
HETATM   38  O   UNK N   1      26.228  20.271   7.056  0.00  0.00    -0.384 OA
HETATM   39  H   UNK N   1      25.920  21.176   6.891  0.00  0.00     0.211 HD
ENDBRANCH  35  38
ENDBRANCH  32  35
ENDBRANCH   1  28
BRANCH  13  40
HETATM   40  C   UNK N   1      33.114  18.036   7.551  0.00  0.00     0.179 C 
BRANCH  40  41
HETATM   41  C   UNK N   1      33.378  17.248   8.790  0.00  0.00    -0.015 C 
HETATM   42  C   UNK N   1      34.633  17.017   9.164  0.00  0.00     0.008 C 
ENDBRANCH  40  41
ENDBRANCH  13  40
TORSDOF 7
ENDMDL
MODEL 8
REMARK VINA RESULT:      -7.5      5.370      9.574
REMARK  7 active torsions:
REMARK  status: ('A' for Active; 'I' for Inactive)
REMARK    1  A    between atoms: C_2  and  C_4 
REMARK    2  A    between atoms: C_2  and  O_40 
REMARK    3  A    between atoms: C_8  and  N_11 
REMARK       I    between atoms: C_17  and  N_20 
REMARK    4  A    between atoms: N_20  and  C_21 
REMARK    5  A    between atoms: C_24  and  N_27 
REMARK    6  A    between atoms: N_36  and  C_37 
REMARK    7  A    between atoms: C_37  and  C_38 
ROOT
HETATM    1  N   UNK N   1      30.312  17.167   6.000  0.00  0.00    -0.217 N 
HETATM    2  C   UNK N   1      30.401  16.944   7.344  0.00  0.00     0.162 A 
HETATM    3  C   UNK N   1      29.345  17.532   7.982  0.00  0.00     0.096 A 
HETATM    4  C   UNK N   1      29.196  17.437   9.350  0.00  0.00     0.127 A 
HETATM    5  N   UNK N   1      30.126  16.719  10.036  0.00  0.00    -0.201 N 
ATOM      6  HN  UNK N   1      30.035  16.627  11.048  1.00  0.00     0.183 HD
HETATM    7  C   UNK N   1      31.184  16.115   9.403  0.00  0.00     0.684 A 
HETATM    8  N   UNK N   1      31.331  16.231   8.034  0.00  0.00    -0.173 N 
ATOM      9  HN  UNK N   1      32.116  15.793   7.552  1.00  0.00     0.186 HD
HETATM   10  N   UNK N   1      32.082  15.333  10.187  0.00  0.00    -0.192 N 
HETATM   11  C   UNK N   1      28.600  18.119   7.002  0.00  0.00     0.278 A 
HETATM   12  O   UNK N   1      27.562  18.740   7.159  0.00  0.00    -0.265 OA
HETATM   13  N   UNK N   1      29.193  17.890   5.799  0.00  0.00    -0.243 N 
HETATM   14  H   UNK N   1      31.840  15.181  11.130  0.00  0.00     0.184 HD
ENDROOT
BRANCH  10  15
HETATM   15  C   UNK N   1      33.293  14.755   9.729  0.00  0.00     0.049 A 
HETATM   16  C   UNK N   1      34.506  15.434   9.919  0.00  0.00     0.032 A 
HETATM   17  C   UNK N   1      35.706  14.886   9.437  0.00  0.00     0.031 A 
HETATM   18  C   UNK N   1      35.690  13.661   8.746  0.00  0.00     0.030 A 
HETATM   19  C   UNK N   1      34.472  13.008   8.566  0.00  0.00     0.031 A 
HETATM   20  C   UNK N   1      33.290  13.539   9.053  0.00  0.00     0.032 A 
BRANCH  18  21
HETATM   21  N   UNK N   1      36.875  13.094   8.189  0.00  0.00    -0.378 N 
HETATM   22  C   UNK N   1      36.843  12.276   6.997  0.00  0.00     0.153 C 
HETATM   23  C   UNK N   1      37.913  12.783   6.024  0.00  0.00     0.291 C 
HETATM   24  N   UNK N   1      39.214  12.837   6.698  0.00  0.00     0.087 N 
HETATM   25  C   UNK N   1      39.149  13.813   7.783  0.00  0.00     0.291 C 
HETATM   26  C   UNK N   1      40.194  13.318   5.742  0.00  0.00     0.310 C 
HETATM   27  C   UNK N   1      38.158  13.319   8.826  0.00  0.00     0.153 C 
ENDBRANCH  18  21
ENDBRANCH  10  15
BRANCH   1  28
HETATM   28  C   UNK N   1      31.215  16.711   4.945  0.00  0.00     0.129 A 
HETATM   29  C   UNK N   1      32.174  17.590   4.422  0.00  0.00     0.050 A 
HETATM   30  C   UNK N   1      33.063  17.182   3.442  0.00  0.00     0.006 A 
HETATM   31  C   UNK N   1      32.997  15.886   2.967  0.00  0.00     0.028 A 
HETATM   32  C   UNK N   1      32.036  15.005   3.476  0.00  0.00     0.044 A 
HETATM   33  N   UNK N   1      31.165  15.431   4.453  0.00  0.00    -0.342 N 
ATOM     34  HN  UNK N   1      30.468  14.783   4.820  1.00  0.00     0.167 HD
BRANCH  32  35
HETATM   35  C   UNK N   1      31.986  13.596   2.940  0.00  0.00     0.092 C 
HETATM   36  C   UNK N   1      32.468  12.633   4.005  0.00  0.00     0.052 C 
HETATM   37  C   UNK N   1      30.570  13.262   2.514  0.00  0.00     0.052 C 
BRANCH  35  38
HETATM   38  O   UNK N   1      32.819  13.451   1.825  0.00  0.00    -0.384 OA
HETATM   39  H   UNK N   1      33.204  12.585   1.616  0.00  0.00     0.211 HD
ENDBRANCH  35  38
ENDBRANCH  32  35
ENDBRANCH   1  28
BRANCH  13  40
HETATM   40  C   UNK N   1      28.633  18.347   4.527  0.00  0.00     0.179 C 
BRANCH  40  41
HETATM   41  C   UNK N   1      27.738  17.314   3.930  0.00  0.00    -0.015 C 
HETATM   42  C   UNK N   1      26.436  17.561   3.821  0.00  0.00     0.008 C 
ENDBRANCH  40  41
ENDBRANCH  13  40
TORSDOF 7
ENDMDL
MODEL 9
REMARK VINA RESULT:      -7.4      3.318      7.805
REMARK  7 active torsions:
REMARK  status: ('A' for Active; 'I' for Inactive)
REMARK    1  A    between atoms: C_2  and  C_4 
REMARK    2  A    between atoms: C_2  and  O_40 
REMARK    3  A    between atoms: C_8  and  N_11 
REMARK       I    between atoms: C_17  and  N_20 
REMARK    4  A    between atoms: N_20  and  C_21 
REMARK    5  A    between atoms: C_24  and  N_27 
REMARK    6  A    between atoms: N_36  and  C_37 
REMARK    7  A    between atoms: C_37  and  C_38 
ROOT
HETATM    1  N   UNK N   1      23.778  18.443   3.676  0.00  0.00    -0.217 N 
HETATM    2  C   UNK N   1      22.415  18.447   3.594  0.00  0.00     0.162 A 
HETATM    3  C   UNK N   1      21.974  19.695   3.255  0.00  0.00     0.096 A 
HETATM    4  C   UNK N   1      20.630  19.957   3.093  0.00  0.00     0.127 A 
HETATM    5  N   UNK N   1      19.762  18.922   3.260  0.00  0.00    -0.201 N 
ATOM      6  HN  UNK N   1      18.763  19.087   3.138  1.00  0.00     0.183 HD
HETATM    7  C   UNK N   1      20.196  17.661   3.588  0.00  0.00     0.684 A 
HETATM    8  N   UNK N   1      21.545  17.416   3.764  0.00  0.00    -0.173 N 
ATOM      9  HN  UNK N   1      21.879  16.486   4.015  1.00  0.00     0.186 HD
HETATM   10  N   UNK N   1      19.227  16.620   3.688  0.00  0.00    -0.192 N 
HETATM   11  C   UNK N   1      23.094  20.461   3.127  0.00  0.00     0.278 A 
HETATM   12  O   UNK N   1      23.131  21.642   2.821  0.00  0.00    -0.265 OA
HETATM   13  N   UNK N   1      24.188  19.692   3.381  0.00  0.00    -0.243 N 
HETATM   14  H   UNK N   1      18.306  16.836   3.416  0.00  0.00     0.184 HD
ENDROOT
BRANCH  10  15
HETATM   15  C   UNK N   1      19.476  15.301   4.145  0.00  0.00     0.049 A 
HETATM   16  C   UNK N   1      19.840  15.083   5.483  0.00  0.00     0.032 A 
HETATM   17  C   UNK N   1      20.123  13.784   5.936  0.00  0.00     0.031 A 
HETATM   18  C   UNK N   1      20.056  12.699   5.043  0.00  0.00     0.030 A 
HETATM   19  C   UNK N   1      19.695  12.941   3.719  0.00  0.00     0.031 A 
HETATM   20  C   UNK N   1      19.403  14.219   3.273  0.00  0.00     0.032 A 
BRANCH  18  21
HETATM   21  N   UNK N   1      20.389  11.371   5.444  0.00  0.00    -0.378 N 
HETATM   22  C   UNK N   1      19.581  10.233   5.065  0.00  0.00     0.153 C 
HETATM   23  C   UNK N   1      20.500   9.146   4.497  0.00  0.00     0.291 C 
HETATM   24  N   UNK N   1      21.570   8.848   5.454  0.00  0.00     0.087 N 
HETATM   25  C   UNK N   1      22.399  10.038   5.627  0.00  0.00     0.291 C 
HETATM   26  C   UNK N   1      22.411   7.815   4.879  0.00  0.00     0.310 C 
HETATM   27  C   UNK N   1      21.558  11.132   6.268  0.00  0.00     0.153 C 
ENDBRANCH  18  21
ENDBRANCH  10  15
BRANCH   1  28
HETATM   28  C   UNK N   1      24.663  17.325   3.995  0.00  0.00     0.129 A 
HETATM   29  C   UNK N   1      25.710  16.997   3.124  0.00  0.00     0.050 A 
HETATM   30  C   UNK N   1      26.584  15.962   3.410  0.00  0.00     0.006 A 
HETATM   31  C   UNK N   1      26.414  15.236   4.573  0.00  0.00     0.028 A 
HETATM   32  C   UNK N   1      25.365  15.549   5.444  0.00  0.00     0.044 A 
HETATM   33  N   UNK N   1      24.510  16.586   5.141  0.00  0.00    -0.342 N 
ATOM     34  HN  UNK N   1      23.748  16.809   5.781  1.00  0.00     0.167 HD
BRANCH  32  35
HETATM   35  C   UNK N   1      25.201  14.741   6.706  0.00  0.00     0.092 C 
HETATM   36  C   UNK N   1      23.735  14.680   7.080  0.00  0.00     0.052 C 
HETATM   37  C   UNK N   1      25.762  13.348   6.498  0.00  0.00     0.052 C 
BRANCH  35  38
HETATM   38  O   UNK N   1      25.889  15.328   7.774  0.00  0.00    -0.384 OA
HETATM   39  H   UNK N   1      25.642  15.116   8.687  0.00  0.00     0.211 HD
ENDBRANCH  35  38
ENDBRANCH  32  35
ENDBRANCH   1  28
BRANCH  13  40
HETATM   40  C   UNK N   1      25.560  20.191   3.292  0.00  0.00     0.179 C 
BRANCH  40  41
HETATM   41  C   UNK N   1      26.131  20.445   4.646  0.00  0.00    -0.015 C 
HETATM   42  C   UNK N   1      27.397  20.122   4.894  0.00  0.00     0.008 C 
ENDBRANCH  40  41
ENDBRANCH  13  40
TORSDOF 7
ENDMDL
