MODEL 1
REMARK VINA RESULT:      -8.3      0.000      0.000
REMARK  29 active torsions:
REMARK  status: ('A' for Active; 'I' for Inactive)
REMARK    1  A    between atoms: C_12  and  C_14 
REMARK    2  A    between atoms: C_18  and  S_20 
REMARK    3  A    between atoms: S_20  and  N_23 
REMARK    4  A    between atoms: N_23  and  C_24 
REMARK    5  A    between atoms: C_24  and  C_25 
REMARK    6  A    between atoms: C_25  and  O_26 
REMARK    7  A    between atoms: O_26  and  C_27 
REMARK    8  A    between atoms: C_27  and  C_28 
REMARK    9  A    between atoms: C_28  and  O_29 
REMARK   10  A    between atoms: O_29  and  C_30 
REMARK   11  A    between atoms: C_30  and  C_31 
REMARK   12  A    between atoms: C_31  and  N_32 
REMARK       I    between atoms: N_32  and  C_33 
REMARK       I    between atoms: C_33  and  N_35 
REMARK   13  A    between atoms: N_35  and  C_36 
REMARK   14  A    between atoms: C_36  and  C_37 
REMARK   15  A    between atoms: C_37  and  C_38 
REMARK   16  A    between atoms: C_38  and  C_39 
REMARK   17  A    between atoms: C_39  and  N_40 
REMARK       I    between atoms: N_40  and  C_41 
REMARK       I    between atoms: C_41  and  N_43 
REMARK   18  A    between atoms: N_43  and  C_44 
REMARK   19  A    between atoms: C_44  and  C_45 
REMARK   20  A    between atoms: C_45  and  O_46 
REMARK   21  A    between atoms: O_46  and  C_47 
REMARK   22  A    between atoms: C_47  and  C_48 
REMARK   23  A    between atoms: C_48  and  O_49 
REMARK   24  A    between atoms: O_49  and  C_50 
REMARK   25  A    between atoms: C_50  and  C_51 
REMARK   26  A    between atoms: C_51  and  N_52 
REMARK   27  A    between atoms: N_52  and  S_53 
REMARK   28  A    between atoms: S_53  and  C_56 
REMARK   29  A    between atoms: C_62  and  C_60 
ROOT
HETATM    1  C   UNK N   1      28.201  17.830   8.504  0.00  0.00     0.021 C 
ENDROOT
BRANCH   1   2
HETATM    2  C   UNK N   1      29.592  17.211   8.740  0.00  0.00     0.124 C 
BRANCH   2   3
HETATM    3  N   UNK N   1      30.364  17.033   7.525  0.00  0.00    -0.343 N 
HETATM    4  C   UNK N   1      31.699  16.803   7.535  0.00  0.00     0.316 C 
HETATM    5  N   UNK N   1      32.370  16.718   8.713  0.00  0.00    -0.341 N 
HETATM    6  O   UNK N   1      32.293  16.680   6.473  0.00  0.00    -0.247 OA
HETATM    7  H   UNK N   1      31.872  16.853   9.552  0.00  0.00     0.164 HD
HETATM    8  H   UNK N   1      29.900  17.081   6.659  0.00  0.00     0.164 HD
BRANCH   5   9
HETATM    9  C   UNK N   1      33.780  16.438   8.782  0.00  0.00     0.150 C 
BRANCH   9  10
HETATM   10  C   UNK N   1      34.527  17.735   9.037  0.00  0.00     0.187 C 
BRANCH  10  11
HETATM   11  O   UNK N   1      35.591  17.490   9.906  0.00  0.00    -0.387 OA
BRANCH  11  12
HETATM   12  C   UNK N   1      35.214  16.370  10.651  0.00  0.00     0.193 C 
BRANCH  12  13
HETATM   13  C   UNK N   1      36.419  15.465  10.844  0.00  0.00     0.193 C 
BRANCH  13  14
HETATM   14  O   UNK N   1      36.021  14.125  10.886  0.00  0.00    -0.387 OA
BRANCH  14  15
HETATM   15  C   UNK N   1      36.787  13.543  11.901  0.00  0.00     0.188 C 
BRANCH  15  16
HETATM   16  C   UNK N   1      36.404  14.146  13.240  0.00  0.00     0.158 C 
BRANCH  16  17
HETATM   17  N   UNK N   1      36.967  13.348  14.320  0.00  0.00    -0.313 N 
HETATM   18  H   UNK N   1      37.939  13.387  14.625  0.00  0.00     0.172 HD
BRANCH  17  19
HETATM   19  S   UNK N   1      35.723  12.297  15.036  0.00  0.00     0.258 S 
HETATM   20  O   UNK N   1      35.977  10.880  14.490  0.00  0.00    -0.201 OA
HETATM   21  O   UNK N   1      34.421  12.669  14.313  0.00  0.00    -0.201 OA
BRANCH  19  22
HETATM   22  C   UNK N   1      35.519  12.286  16.813  0.00  0.00     0.080 A 
HETATM   23  C   UNK N   1      35.195  13.448  17.520  0.00  0.00     0.025 A 
HETATM   24  C   UNK N   1      35.076  13.402  18.915  0.00  0.00     0.002 A 
HETATM   25  C   UNK N   1      35.300  12.200  19.602  0.00  0.00     0.008 A 
HETATM   26  C   UNK N   1      35.607  11.026  18.895  0.00  0.00    -0.046 A 
HETATM   27  C   UNK N   1      35.711  11.092  17.500  0.00  0.00     0.033 A 
BRANCH  26  28
HETATM   28  C   UNK N   1      35.941   9.740  19.639  0.00  0.00     0.080 C 
HETATM   29  C   UNK N   1      34.799   9.165  20.482  0.00  0.00    -0.037 A 
HETATM   30  C   UNK N   1      34.999   8.841  21.841  0.00  0.00    -0.001 A 
HETATM   31  C   UNK N   1      33.526   8.981  19.919  0.00  0.00     0.032 A 
HETATM   32  C   UNK N   1      36.357   9.027  22.448  0.00  0.00     0.312 C 
HETATM   33  C   UNK N   1      33.932   8.346  22.612  0.00  0.00     0.044 A 
HETATM   34  N   UNK N   1      37.018  10.177  21.843  0.00  0.00     0.089 N 
HETATM   35  C   UNK N   1      38.316  10.288  22.483  0.00  0.00     0.310 C 
HETATM   36  C   UNK N   1      37.257   9.855  20.438  0.00  0.00     0.286 C 
HETATM   37  C   UNK N   1      32.669   8.197  22.037  0.00  0.00     0.048 A 
HETATM   38 Cl   UNK N   1      34.147   7.908  24.300  0.00  0.00    -0.084 Cl
HETATM   39  C   UNK N   1      32.466   8.516  20.696  0.00  0.00     0.036 A 
HETATM   40 Cl   UNK N   1      30.869   8.374  20.001  0.00  0.00    -0.084 Cl
ENDBRANCH  26  28
ENDBRANCH  19  22
ENDBRANCH  17  19
ENDBRANCH  16  17
ENDBRANCH  15  16
ENDBRANCH  14  15
ENDBRANCH  13  14
ENDBRANCH  12  13
ENDBRANCH  11  12
ENDBRANCH  10  11
ENDBRANCH   9  10
ENDBRANCH   5   9
ENDBRANCH   2   3
ENDBRANCH   1   2
BRANCH   1  41
HETATM   41  C   UNK N   1      28.205  19.301   8.090  0.00  0.00     0.021 C 
BRANCH  41  42
HETATM   42  C   UNK N   1      27.315  19.501   6.876  0.00  0.00     0.124 C 
BRANCH  42  43
HETATM   43  N   UNK N   1      27.660  18.547   5.863  0.00  0.00    -0.343 N 
HETATM   44  C   UNK N   1      27.950  18.914   4.589  0.00  0.00     0.316 C 
HETATM   45  O   UNK N   1      27.899  20.085   4.248  0.00  0.00    -0.247 OA
HETATM   46  N   UNK N   1      28.294  17.972   3.686  0.00  0.00    -0.341 N 
HETATM   47  H   UNK N   1      28.609  18.250   2.796  0.00  0.00     0.164 HD
HETATM   48  H   UNK N   1      27.688  17.592   6.100  0.00  0.00     0.164 HD
BRANCH  46  49
HETATM   49  C   UNK N   1      28.207  16.568   3.998  0.00  0.00     0.150 C 
BRANCH  49  50
HETATM   50  C   UNK N   1      27.198  15.885   3.070  0.00  0.00     0.187 C 
BRANCH  50  51
HETATM   51  O   UNK N   1      27.111  14.509   3.342  0.00  0.00    -0.387 OA
BRANCH  51  52
HETATM   52  C   UNK N   1      26.109  14.014   2.494  0.00  0.00     0.193 C 
BRANCH  52  53
HETATM   53  C   UNK N   1      24.972  15.023   2.266  0.00  0.00     0.193 C 
BRANCH  53  54
HETATM   54  O   UNK N   1      23.858  14.701   3.053  0.00  0.00    -0.387 OA
BRANCH  54  55
HETATM   55  C   UNK N   1      23.541  13.357   2.855  0.00  0.00     0.188 C 
BRANCH  55  56
HETATM   56  C   UNK N   1      22.427  13.307   1.814  0.00  0.00     0.158 C 
BRANCH  56  57
HETATM   57  N   UNK N   1      21.118  13.104   2.421  0.00  0.00    -0.313 N 
HETATM   58  H   UNK N   1      20.790  12.214   2.796  0.00  0.00     0.172 HD
BRANCH  57  59
HETATM   59  S   UNK N   1      20.162  14.605   2.426  0.00  0.00     0.258 S 
HETATM   60  O   UNK N   1      18.977  14.169   3.298  0.00  0.00    -0.201 OA
HETATM   61  O   UNK N   1      19.403  14.765   1.111  0.00  0.00    -0.201 OA
BRANCH  59  62
HETATM   62  C   UNK N   1      20.639  16.174   3.094  0.00  0.00     0.080 A 
HETATM   63  C   UNK N   1      20.333  17.396   2.482  0.00  0.00     0.025 A 
HETATM   64  C   UNK N   1      20.544  18.591   3.191  0.00  0.00     0.002 A 
HETATM   65  C   UNK N   1      21.004  18.549   4.521  0.00  0.00     0.008 A 
HETATM   66  C   UNK N   1      21.286  17.310   5.122  0.00  0.00    -0.046 A 
HETATM   67  C   UNK N   1      21.094  16.153   4.390  0.00  0.00     0.033 A 
BRANCH  66  68
HETATM   68  C   UNK N   1      21.640  17.179   6.586  0.00  0.00     0.080 C 
HETATM   69  C   UNK N   1      20.464  17.573   7.508  0.00  0.00     0.286 C 
HETATM   70  N   UNK N   1      19.545  16.448   7.621  0.00  0.00     0.089 N 
HETATM   71  C   UNK N   1      20.179  15.465   8.494  0.00  0.00     0.312 C 
HETATM   72  C   UNK N   1      18.333  16.912   8.272  0.00  0.00     0.310 C 
HETATM   73  C   UNK N   1      21.505  15.019   7.925  0.00  0.00    -0.001 A 
HETATM   74  C   UNK N   1      22.181  15.825   6.974  0.00  0.00    -0.037 A 
HETATM   75  C   UNK N   1      22.082  13.811   8.347  0.00  0.00     0.044 A 
HETATM   76  C   UNK N   1      23.397  15.389   6.438  0.00  0.00     0.032 A 
HETATM   77  C   UNK N   1      23.947  14.175   6.842  0.00  0.00     0.036 A 
HETATM   78  C   UNK N   1      23.300  13.395   7.803  0.00  0.00     0.048 A 
HETATM   79 Cl   UNK N   1      25.465  13.640   6.160  0.00  0.00    -0.084 Cl
HETATM   80 Cl   UNK N   1      21.306  12.810   9.566  0.00  0.00    -0.084 Cl
ENDBRANCH  66  68
ENDBRANCH  59  62
ENDBRANCH  57  59
ENDBRANCH  56  57
ENDBRANCH  55  56
ENDBRANCH  54  55
ENDBRANCH  53  54
ENDBRANCH  52  53
ENDBRANCH  51  52
ENDBRANCH  50  51
ENDBRANCH  49  50
ENDBRANCH  46  49
ENDBRANCH  42  43
ENDBRANCH  41  42
ENDBRANCH   1  41
TORSDOF 29
ENDMDL
MODEL 2
REMARK VINA RESULT:      -7.9      3.109      6.635
REMARK  29 active torsions:
REMARK  status: ('A' for Active; 'I' for Inactive)
REMARK    1  A    between atoms: C_12  and  C_14 
REMARK    2  A    between atoms: C_18  and  S_20 
REMARK    3  A    between atoms: S_20  and  N_23 
REMARK    4  A    between atoms: N_23  and  C_24 
REMARK    5  A    between atoms: C_24  and  C_25 
REMARK    6  A    between atoms: C_25  and  O_26 
REMARK    7  A    between atoms: O_26  and  C_27 
REMARK    8  A    between atoms: C_27  and  C_28 
REMARK    9  A    between atoms: C_28  and  O_29 
REMARK   10  A    between atoms: O_29  and  C_30 
REMARK   11  A    between atoms: C_30  and  C_31 
REMARK   12  A    between atoms: C_31  and  N_32 
REMARK       I    between atoms: N_32  and  C_33 
REMARK       I    between atoms: C_33  and  N_35 
REMARK   13  A    between atoms: N_35  and  C_36 
REMARK   14  A    between atoms: C_36  and  C_37 
REMARK   15  A    between atoms: C_37  and  C_38 
REMARK   16  A    between atoms: C_38  and  C_39 
REMARK   17  A    between atoms: C_39  and  N_40 
REMARK       I    between atoms: N_40  and  C_41 
REMARK       I    between atoms: C_41  and  N_43 
REMARK   18  A    between atoms: N_43  and  C_44 
REMARK   19  A    between atoms: C_44  and  C_45 
REMARK   20  A    between atoms: C_45  and  O_46 
REMARK   21  A    between atoms: O_46  and  C_47 
REMARK   22  A    between atoms: C_47  and  C_48 
REMARK   23  A    between atoms: C_48  and  O_49 
REMARK   24  A    between atoms: O_49  and  C_50 
REMARK   25  A    between atoms: C_50  and  C_51 
REMARK   26  A    between atoms: C_51  and  N_52 
REMARK   27  A    between atoms: N_52  and  S_53 
REMARK   28  A    between atoms: S_53  and  C_56 
REMARK   29  A    between atoms: C_62  and  C_60 
ROOT
HETATM    1  C   UNK N   1      23.771  15.370   3.070  0.00  0.00     0.021 C 
ENDROOT
BRANCH   1   2
HETATM    2  C   UNK N   1      24.537  16.393   3.930  0.00  0.00     0.124 C 
BRANCH   2   3
HETATM    3  N   UNK N   1      25.823  16.772   3.379  0.00  0.00    -0.343 N 
HETATM    4  C   UNK N   1      26.804  17.329   4.127  0.00  0.00     0.316 C 
HETATM    5  N   UNK N   1      26.612  17.546   5.455  0.00  0.00    -0.341 N 
HETATM    6  O   UNK N   1      27.859  17.642   3.595  0.00  0.00    -0.247 OA
HETATM    7  H   UNK N   1      25.741  17.315   5.851  0.00  0.00     0.164 HD
HETATM    8  H   UNK N   1      25.990  16.617   2.421  0.00  0.00     0.164 HD
BRANCH   5   9
HETATM    9  C   UNK N   1      27.633  18.101   6.304  0.00  0.00     0.150 C 
BRANCH   9  10
HETATM   10  C   UNK N   1      28.323  16.971   7.048  0.00  0.00     0.187 C 
BRANCH  10  11
HETATM   11  O   UNK N   1      29.635  17.346   7.338  0.00  0.00    -0.387 OA
BRANCH  11  12
HETATM   12  C   UNK N   1      30.358  17.112   6.166  0.00  0.00     0.193 C 
BRANCH  12  13
HETATM   13  C   UNK N   1      31.652  16.392   6.508  0.00  0.00     0.193 C 
BRANCH  13  14
HETATM   14  O   UNK N   1      31.546  15.764   7.754  0.00  0.00    -0.387 OA
BRANCH  14  15
HETATM   15  C   UNK N   1      32.685  16.155   8.462  0.00  0.00     0.188 C 
BRANCH  15  16
HETATM   16  C   UNK N   1      33.130  15.029   9.377  0.00  0.00     0.158 C 
BRANCH  16  17
HETATM   17  N   UNK N   1      33.732  15.580  10.584  0.00  0.00    -0.313 N 
HETATM   18  H   UNK N   1      33.331  16.335  11.139  0.00  0.00     0.172 HD
BRANCH  17  19
HETATM   19  S   UNK N   1      35.262  14.753  10.953  0.00  0.00     0.258 S 
HETATM   20  O   UNK N   1      36.391  15.660  10.428  0.00  0.00    -0.201 OA
HETATM   21  O   UNK N   1      35.333  13.582   9.964  0.00  0.00    -0.201 OA
BRANCH  19  22
HETATM   22  C   UNK N   1      35.576  14.226  12.634  0.00  0.00     0.080 A 
HETATM   23  C   UNK N   1      36.438  14.937  13.475  0.00  0.00     0.025 A 
HETATM   24  C   UNK N   1      36.681  14.472  14.774  0.00  0.00     0.002 A 
HETATM   25  C   UNK N   1      36.079  13.287  15.223  0.00  0.00     0.008 A 
HETATM   26  C   UNK N   1      35.197  12.580  14.389  0.00  0.00    -0.046 A 
HETATM   27  C   UNK N   1      34.960  13.069  13.098  0.00  0.00     0.033 A 
BRANCH  26  28
HETATM   28  C   UNK N   1      34.612  11.248  14.835  0.00  0.00     0.080 C 
HETATM   29  C   UNK N   1      35.042  10.788  16.230  0.00  0.00    -0.037 A 
HETATM   30  C   UNK N   1      35.578   9.496  16.430  0.00  0.00    -0.001 A 
HETATM   31  C   UNK N   1      34.937  11.656  17.328  0.00  0.00     0.032 A 
HETATM   32  C   UNK N   1      35.687   8.559  15.265  0.00  0.00     0.312 C 
HETATM   33  C   UNK N   1      36.001   9.099  17.710  0.00  0.00     0.044 A 
HETATM   34  N   UNK N   1      35.965   9.310  14.047  0.00  0.00     0.089 N 
HETATM   35  C   UNK N   1      36.056   8.336  12.975  0.00  0.00     0.310 C 
HETATM   36  C   UNK N   1      34.798  10.145  13.771  0.00  0.00     0.286 C 
HETATM   37  C   UNK N   1      35.912   9.991  18.781  0.00  0.00     0.048 A 
HETATM   38 Cl   UNK N   1      36.650   7.493  18.003  0.00  0.00    -0.084 Cl
HETATM   39  C   UNK N   1      35.384  11.266  18.589  0.00  0.00     0.036 A 
HETATM   40 Cl   UNK N   1      35.324  12.391  19.925  0.00  0.00    -0.084 Cl
ENDBRANCH  26  28
ENDBRANCH  19  22
ENDBRANCH  17  19
ENDBRANCH  16  17
ENDBRANCH  15  16
ENDBRANCH  14  15
ENDBRANCH  13  14
ENDBRANCH  12  13
ENDBRANCH  11  12
ENDBRANCH  10  11
ENDBRANCH   9  10
ENDBRANCH   5   9
ENDBRANCH   2   3
ENDBRANCH   1   2
BRANCH   1  41
HETATM   41  C   UNK N   1      22.388  14.985   3.591  0.00  0.00     0.021 C 
BRANCH  41  42
HETATM   42  C   UNK N   1      21.364  15.093   2.474  0.00  0.00     0.124 C 
BRANCH  42  43
HETATM   43  N   UNK N   1      21.063  16.472   2.227  0.00  0.00    -0.343 N 
HETATM   44  C   UNK N   1      20.254  16.869   1.212  0.00  0.00     0.316 C 
HETATM   45  O   UNK N   1      19.768  16.053   0.444  0.00  0.00    -0.247 OA
HETATM   46  N   UNK N   1      19.987  18.181   1.046  0.00  0.00    -0.341 N 
HETATM   47  H   UNK N   1      19.316  18.455   0.381  0.00  0.00     0.164 HD
HETATM   48  H   UNK N   1      21.457  17.157   2.815  0.00  0.00     0.164 HD
BRANCH  46  49
HETATM   49  C   UNK N   1      20.665  19.187   1.822  0.00  0.00     0.150 C 
BRANCH  49  50
HETATM   50  C   UNK N   1      19.875  19.488   3.099  0.00  0.00     0.187 C 
BRANCH  50  51
HETATM   51  O   UNK N   1      20.701  20.055   4.084  0.00  0.00    -0.387 OA
BRANCH  51  52
HETATM   52  C   UNK N   1      21.611  19.050   4.445  0.00  0.00     0.193 C 
BRANCH  52  53
HETATM   53  C   UNK N   1      21.066  18.123   5.545  0.00  0.00     0.193 C 
BRANCH  53  54
HETATM   54  O   UNK N   1      21.264  18.687   6.811  0.00  0.00    -0.387 OA
BRANCH  54  55
HETATM   55  C   UNK N   1      20.266  18.227   7.670  0.00  0.00     0.188 C 
BRANCH  55  56
HETATM   56  C   UNK N   1      20.294  16.703   7.617  0.00  0.00     0.158 C 
BRANCH  56  57
HETATM   57  N   UNK N   1      20.844  16.121   8.835  0.00  0.00    -0.313 N 
HETATM   58  H   UNK N   1      21.262  16.663   9.592  0.00  0.00     0.172 HD
BRANCH  57  59
HETATM   59  S   UNK N   1      20.694  14.348   8.836  0.00  0.00     0.258 S 
HETATM   60  O   UNK N   1      19.966  14.137   7.501  0.00  0.00    -0.201 OA
HETATM   61  O   UNK N   1      19.563  13.904   9.760  0.00  0.00    -0.201 OA
BRANCH  59  62
HETATM   62  C   UNK N   1      22.010  13.163   8.805  0.00  0.00     0.080 A 
HETATM   63  C   UNK N   1      22.730  12.784   9.945  0.00  0.00     0.025 A 
HETATM   64  C   UNK N   1      23.594  11.677   9.875  0.00  0.00     0.002 A 
HETATM   65  C   UNK N   1      23.685  10.930   8.686  0.00  0.00     0.008 A 
HETATM   66  C   UNK N   1      22.938  11.316   7.560  0.00  0.00    -0.046 A 
HETATM   67  C   UNK N   1      22.117  12.426   7.652  0.00  0.00     0.033 A 
BRANCH  66  68
HETATM   68  C   UNK N   1      22.871  10.481   6.302  0.00  0.00     0.080 C 
HETATM   69  C   UNK N   1      21.418  10.276   5.815  0.00  0.00     0.286 C 
HETATM   70  N   UNK N   1      20.993  11.451   5.066  0.00  0.00     0.089 N 
HETATM   71  C   UNK N   1      21.661  11.397   3.770  0.00  0.00     0.312 C 
HETATM   72  C   UNK N   1      19.562  11.355   4.838  0.00  0.00     0.310 C 
HETATM   73  C   UNK N   1      23.162  11.383   3.941  0.00  0.00    -0.001 A 
HETATM   74  C   UNK N   1      23.736  10.987   5.175  0.00  0.00    -0.037 A 
HETATM   75  C   UNK N   1      23.995  11.751   2.873  0.00  0.00     0.044 A 
HETATM   76  C   UNK N   1      25.126  11.001   5.327  0.00  0.00     0.032 A 
HETATM   77  C   UNK N   1      25.944  11.395   4.270  0.00  0.00     0.036 A 
HETATM   78  C   UNK N   1      25.382  11.755   3.043  0.00  0.00     0.048 A 
HETATM   79 Cl   UNK N   1      27.680  11.414   4.476  0.00  0.00    -0.084 Cl
HETATM   80 Cl   UNK N   1      23.327  12.195   1.309  0.00  0.00    -0.084 Cl
ENDBRANCH  66  68
ENDBRANCH  59  62
ENDBRANCH  57  59
ENDBRANCH  56  57
ENDBRANCH  55  56
ENDBRANCH  54  55
ENDBRANCH  53  54
ENDBRANCH  52  53
ENDBRANCH  51  52
ENDBRANCH  50  51
ENDBRANCH  49  50
ENDBRANCH  46  49
ENDBRANCH  42  43
ENDBRANCH  41  42
ENDBRANCH   1  41
TORSDOF 29
ENDMDL
MODEL 3
REMARK VINA RESULT:      -7.9      1.764      2.345
REMARK  29 active torsions:
REMARK  status: ('A' for Active; 'I' for Inactive)
REMARK    1  A    between atoms: C_12  and  C_14 
REMARK    2  A    between atoms: C_18  and  S_20 
REMARK    3  A    between atoms: S_20  and  N_23 
REMARK    4  A    between atoms: N_23  and  C_24 
REMARK    5  A    between atoms: C_24  and  C_25 
REMARK    6  A    between atoms: C_25  and  O_26 
REMARK    7  A    between atoms: O_26  and  C_27 
REMARK    8  A    between atoms: C_27  and  C_28 
REMARK    9  A    between atoms: C_28  and  O_29 
REMARK   10  A    between atoms: O_29  and  C_30 
REMARK   11  A    between atoms: C_30  and  C_31 
REMARK   12  A    between atoms: C_31  and  N_32 
REMARK       I    between atoms: N_32  and  C_33 
REMARK       I    between atoms: C_33  and  N_35 
REMARK   13  A    between atoms: N_35  and  C_36 
REMARK   14  A    between atoms: C_36  and  C_37 
REMARK   15  A    between atoms: C_37  and  C_38 
REMARK   16  A    between atoms: C_38  and  C_39 
REMARK   17  A    between atoms: C_39  and  N_40 
REMARK       I    between atoms: N_40  and  C_41 
REMARK       I    between atoms: C_41  and  N_43 
REMARK   18  A    between atoms: N_43  and  C_44 
REMARK   19  A    between atoms: C_44  and  C_45 
REMARK   20  A    between atoms: C_45  and  O_46 
REMARK   21  A    between atoms: O_46  and  C_47 
REMARK   22  A    between atoms: C_47  and  C_48 
REMARK   23  A    between atoms: C_48  and  O_49 
REMARK   24  A    between atoms: O_49  and  C_50 
REMARK   25  A    between atoms: C_50  and  C_51 
REMARK   26  A    between atoms: C_51  and  N_52 
REMARK   27  A    between atoms: N_52  and  S_53 
REMARK   28  A    between atoms: S_53  and  C_56 
REMARK   29  A    between atoms: C_62  and  C_60 
ROOT
HETATM    1  C   UNK N   1      30.531  15.825   6.068  0.00  0.00     0.021 C 
ENDROOT
BRANCH   1   2
HETATM    2  C   UNK N   1      31.647  15.984   7.118  0.00  0.00     0.124 C 
BRANCH   2   3
HETATM    3  N   UNK N   1      32.693  16.906   6.720  0.00  0.00    -0.343 N 
HETATM    4  C   UNK N   1      33.724  17.237   7.533  0.00  0.00     0.316 C 
HETATM    5  N   UNK N   1      33.818  16.693   8.775  0.00  0.00    -0.341 N 
HETATM    6  O   UNK N   1      34.563  18.035   7.142  0.00  0.00    -0.247 OA
HETATM    7  H   UNK N   1      33.110  16.078   9.077  0.00  0.00     0.164 HD
HETATM    8  H   UNK N   1      32.653  17.307   5.822  0.00  0.00     0.164 HD
BRANCH   5   9
HETATM    9  C   UNK N   1      34.911  16.982   9.666  0.00  0.00     0.150 C 
BRANCH   9  10
HETATM   10  C   UNK N   1      34.976  15.902  10.731  0.00  0.00     0.187 C 
BRANCH  10  11
HETATM   11  O   UNK N   1      34.532  14.695  10.190  0.00  0.00    -0.387 OA
BRANCH  11  12
HETATM   12  C   UNK N   1      35.072  13.699  11.007  0.00  0.00     0.193 C 
BRANCH  12  13
HETATM   13  C   UNK N   1      36.375  13.205  10.403  0.00  0.00     0.193 C 
BRANCH  13  14
HETATM   14  O   UNK N   1      36.692  11.935  10.898  0.00  0.00    -0.387 OA
BRANCH  14  15
HETATM   15  C   UNK N   1      37.739  12.141  11.800  0.00  0.00     0.188 C 
BRANCH  15  16
HETATM   16  C   UNK N   1      37.409  11.477  13.125  0.00  0.00     0.158 C 
BRANCH  16  17
HETATM   17  N   UNK N   1      37.287  12.488  14.167  0.00  0.00    -0.313 N 
HETATM   18  H   UNK N   1      38.034  13.120  14.452  0.00  0.00     0.172 HD
BRANCH  17  19
HETATM   19  S   UNK N   1      35.654  12.465  14.872  0.00  0.00     0.258 S 
HETATM   20  O   UNK N   1      34.901  11.301  14.202  0.00  0.00    -0.201 OA
HETATM   21  O   UNK N   1      34.938  13.677  14.260  0.00  0.00    -0.201 OA
BRANCH  19  22
HETATM   22  C   UNK N   1      35.482  12.418  16.652  0.00  0.00     0.080 A 
HETATM   23  C   UNK N   1      35.187  13.568  17.390  0.00  0.00     0.025 A 
HETATM   24  C   UNK N   1      35.092  13.493  18.786  0.00  0.00     0.002 A 
HETATM   25  C   UNK N   1      35.312  12.273  19.442  0.00  0.00     0.008 A 
HETATM   26  C   UNK N   1      35.590  11.111  18.704  0.00  0.00    -0.046 A 
HETATM   27  C   UNK N   1      35.669  11.207  17.309  0.00  0.00     0.033 A 
BRANCH  26  28
HETATM   28  C   UNK N   1      35.919   9.805  19.414  0.00  0.00     0.080 C 
HETATM   29  C   UNK N   1      34.794   9.242  20.287  0.00  0.00    -0.037 A 
HETATM   30  C   UNK N   1      35.034   8.888  21.633  0.00  0.00    -0.001 A 
HETATM   31  C   UNK N   1      33.498   9.097  19.767  0.00  0.00     0.032 A 
HETATM   32  C   UNK N   1      36.417   9.032  22.194  0.00  0.00     0.312 C 
HETATM   33  C   UNK N   1      33.984   8.405  22.432  0.00  0.00     0.044 A 
HETATM   34  N   UNK N   1      37.083  10.177  21.585  0.00  0.00     0.089 N 
HETATM   35  C   UNK N   1      38.405  10.247  22.180  0.00  0.00     0.310 C 
HETATM   36  C   UNK N   1      37.265   9.875  20.167  0.00  0.00     0.286 C 
HETATM   37  C   UNK N   1      32.698   8.295  21.900  0.00  0.00     0.048 A 
HETATM   38 Cl   UNK N   1      34.248   7.932  24.104  0.00  0.00    -0.084 Cl
HETATM   39  C   UNK N   1      32.455   8.643  20.573  0.00  0.00     0.036 A 
HETATM   40 Cl   UNK N   1      30.832   8.550  19.934  0.00  0.00    -0.084 Cl
ENDBRANCH  26  28
ENDBRANCH  19  22
ENDBRANCH  17  19
ENDBRANCH  16  17
ENDBRANCH  15  16
ENDBRANCH  14  15
ENDBRANCH  13  14
ENDBRANCH  12  13
ENDBRANCH  11  12
ENDBRANCH  10  11
ENDBRANCH   9  10
ENDBRANCH   5   9
ENDBRANCH   2   3
ENDBRANCH   1   2
BRANCH   1  41
HETATM   41  C   UNK N   1      29.954  17.132   5.526  0.00  0.00     0.021 C 
BRANCH  41  42
HETATM   42  C   UNK N   1      29.145  17.829   6.606  0.00  0.00     0.124 C 
BRANCH  42  43
HETATM   43  N   UNK N   1      27.864  18.202   6.084  0.00  0.00    -0.343 N 
HETATM   44  C   UNK N   1      27.359  19.454   6.224  0.00  0.00     0.316 C 
HETATM   45  O   UNK N   1      27.976  20.313   6.834  0.00  0.00    -0.247 OA
HETATM   46  N   UNK N   1      26.157  19.751   5.688  0.00  0.00    -0.341 N 
HETATM   47  H   UNK N   1      25.844  20.684   5.695  0.00  0.00     0.164 HD
HETATM   48  H   UNK N   1      27.330  17.526   5.607  0.00  0.00     0.164 HD
BRANCH  46  49
HETATM   49  C   UNK N   1      25.323  18.731   5.106  0.00  0.00     0.150 C 
BRANCH  49  50
HETATM   50  C   UNK N   1      25.707  18.511   3.640  0.00  0.00     0.187 C 
BRANCH  50  51
HETATM   51  O   UNK N   1      25.150  17.320   3.144  0.00  0.00    -0.387 OA
BRANCH  51  52
HETATM   52  C   UNK N   1      26.222  16.428   2.997  0.00  0.00     0.193 C 
BRANCH  52  53
HETATM   53  C   UNK N   1      26.062  15.162   3.855  0.00  0.00     0.193 C 
BRANCH  53  54
HETATM   54  O   UNK N   1      24.908  14.458   3.490  0.00  0.00    -0.387 OA
BRANCH  54  55
HETATM   55  C   UNK N   1      25.156  13.771   2.301  0.00  0.00     0.188 C 
BRANCH  55  56
HETATM   56  C   UNK N   1      23.854  13.089   1.894  0.00  0.00     0.158 C 
BRANCH  56  57
HETATM   57  N   UNK N   1      23.166  13.809   0.830  0.00  0.00    -0.313 N 
HETATM   58  H   UNK N   1      23.569  14.001  -0.087  0.00  0.00     0.172 HD
BRANCH  57  59
HETATM   59  S   UNK N   1      21.534  14.312   1.332  0.00  0.00     0.258 S 
HETATM   60  O   UNK N   1      20.685  13.499   0.345  0.00  0.00    -0.201 OA
HETATM   61  O   UNK N   1      21.208  15.701   0.790  0.00  0.00    -0.201 OA
BRANCH  59  62
HETATM   62  C   UNK N   1      20.764  14.030   2.902  0.00  0.00     0.080 A 
HETATM   63  C   UNK N   1      19.622  13.236   3.067  0.00  0.00     0.025 A 
HETATM   64  C   UNK N   1      19.216  12.879   4.364  0.00  0.00     0.002 A 
HETATM   65  C   UNK N   1      19.986  13.271   5.476  0.00  0.00     0.008 A 
HETATM   66  C   UNK N   1      21.140  14.050   5.286  0.00  0.00    -0.046 A 
HETATM   67  C   UNK N   1      21.499  14.409   3.999  0.00  0.00     0.033 A 
BRANCH  66  68
HETATM   68  C   UNK N   1      22.092  14.382   6.411  0.00  0.00     0.080 C 
HETATM   69  C   UNK N   1      21.659  15.646   7.189  0.00  0.00     0.286 C 
HETATM   70  N   UNK N   1      20.630  15.285   8.156  0.00  0.00     0.089 N 
HETATM   71  C   UNK N   1      21.297  14.582   9.247  0.00  0.00     0.312 C 
HETATM   72  C   UNK N   1      20.058  16.507   8.691  0.00  0.00     0.310 C 
HETATM   73  C   UNK N   1      22.009  13.352   8.736  0.00  0.00    -0.001 A 
HETATM   74  C   UNK N   1      22.347  13.241   7.364  0.00  0.00    -0.037 A 
HETATM   75  C   UNK N   1      22.351  12.318   9.622  0.00  0.00     0.044 A 
HETATM   76  C   UNK N   1      22.986  12.086   6.901  0.00  0.00     0.032 A 
HETATM   77  C   UNK N   1      23.296  11.054   7.783  0.00  0.00     0.036 A 
HETATM   78  C   UNK N   1      22.993  11.174   9.141  0.00  0.00     0.048 A 
HETATM   79 Cl   UNK N   1      24.089   9.613   7.189  0.00  0.00    -0.084 Cl
HETATM   80 Cl   UNK N   1      22.001  12.440  11.341  0.00  0.00    -0.084 Cl
ENDBRANCH  66  68
ENDBRANCH  59  62
ENDBRANCH  57  59
ENDBRANCH  56  57
ENDBRANCH  55  56
ENDBRANCH  54  55
ENDBRANCH  53  54
ENDBRANCH  52  53
ENDBRANCH  51  52
ENDBRANCH  50  51
ENDBRANCH  49  50
ENDBRANCH  46  49
ENDBRANCH  42  43
ENDBRANCH  41  42
ENDBRANCH   1  41
TORSDOF 29
ENDMDL
MODEL 4
REMARK VINA RESULT:      -7.6      1.904      2.942
REMARK  29 active torsions:
REMARK  status: ('A' for Active; 'I' for Inactive)
REMARK    1  A    between atoms: C_12  and  C_14 
REMARK    2  A    between atoms: C_18  and  S_20 
REMARK    3  A    between atoms: S_20  and  N_23 
REMARK    4  A    between atoms: N_23  and  C_24 
REMARK    5  A    between atoms: C_24  and  C_25 
REMARK    6  A    between atoms: C_25  and  O_26 
REMARK    7  A    between atoms: O_26  and  C_27 
REMARK    8  A    between atoms: C_27  and  C_28 
REMARK    9  A    between atoms: C_28  and  O_29 
REMARK   10  A    between atoms: O_29  and  C_30 
REMARK   11  A    between atoms: C_30  and  C_31 
REMARK   12  A    between atoms: C_31  and  N_32 
REMARK       I    between atoms: N_32  and  C_33 
REMARK       I    between atoms: C_33  and  N_35 
REMARK   13  A    between atoms: N_35  and  C_36 
REMARK   14  A    between atoms: C_36  and  C_37 
REMARK   15  A    between atoms: C_37  and  C_38 
REMARK   16  A    between atoms: C_38  and  C_39 
REMARK   17  A    between atoms: C_39  and  N_40 
REMARK       I    between atoms: N_40  and  C_41 
REMARK       I    between atoms: C_41  and  N_43 
REMARK   18  A    between atoms: N_43  and  C_44 
REMARK   19  A    between atoms: C_44  and  C_45 
REMARK   20  A    between atoms: C_45  and  O_46 
REMARK   21  A    between atoms: O_46  and  C_47 
REMARK   22  A    between atoms: C_47  and  C_48 
REMARK   23  A    between atoms: C_48  and  O_49 
REMARK   24  A    between atoms: O_49  and  C_50 
REMARK   25  A    between atoms: C_50  and  C_51 
REMARK   26  A    between atoms: C_51  and  N_52 
REMARK   27  A    between atoms: N_52  and  S_53 
REMARK   28  A    between atoms: S_53  and  C_56 
REMARK   29  A    between atoms: C_62  and  C_60 
ROOT
HETATM    1  C   UNK N   1      30.565  15.742   6.035  0.00  0.00     0.021 C 
ENDROOT
BRANCH   1   2
HETATM    2  C   UNK N   1      31.678  15.903   7.087  0.00  0.00     0.124 C 
BRANCH   2   3
HETATM    3  N   UNK N   1      32.704  16.855   6.708  0.00  0.00    -0.343 N 
HETATM    4  C   UNK N   1      33.726  17.194   7.529  0.00  0.00     0.316 C 
HETATM    5  N   UNK N   1      33.831  16.628   8.760  0.00  0.00    -0.341 N 
HETATM    6  O   UNK N   1      34.548  18.018   7.154  0.00  0.00    -0.247 OA
HETATM    7  H   UNK N   1      33.137  15.992   9.050  0.00  0.00     0.164 HD
HETATM    8  H   UNK N   1      32.656  17.273   5.818  0.00  0.00     0.164 HD
BRANCH   5   9
HETATM    9  C   UNK N   1      34.917  16.924   9.658  0.00  0.00     0.150 C 
BRANCH   9  10
HETATM   10  C   UNK N   1      34.998  15.832  10.709  0.00  0.00     0.187 C 
BRANCH  10  11
HETATM   11  O   UNK N   1      34.589  14.621  10.147  0.00  0.00    -0.387 OA
BRANCH  11  12
HETATM   12  C   UNK N   1      35.157  13.627  10.947  0.00  0.00     0.193 C 
BRANCH  12  13
HETATM   13  C   UNK N   1      36.461  13.162  10.321  0.00  0.00     0.193 C 
BRANCH  13  14
HETATM   14  O   UNK N   1      36.802  11.890  10.793  0.00  0.00    -0.387 OA
BRANCH  14  15
HETATM   15  C   UNK N   1      37.822  12.102  11.725  0.00  0.00     0.188 C 
BRANCH  15  16
HETATM   16  C   UNK N   1      37.439  11.475  13.053  0.00  0.00     0.158 C 
BRANCH  16  17
HETATM   17  N   UNK N   1      37.287  12.512  14.064  0.00  0.00    -0.313 N 
HETATM   18  H   UNK N   1      38.014  13.177  14.327  0.00  0.00     0.172 HD
BRANCH  17  19
HETATM   19  S   UNK N   1      35.657  12.460  14.774  0.00  0.00     0.258 S 
HETATM   20  O   UNK N   1      34.912  11.305  14.081  0.00  0.00    -0.201 OA
HETATM   21  O   UNK N   1      34.929  13.680  14.193  0.00  0.00    -0.201 OA
BRANCH  19  22
HETATM   22  C   UNK N   1      35.492  12.369  16.553  0.00  0.00     0.080 A 
HETATM   23  C   UNK N   1      35.184  13.498  17.318  0.00  0.00     0.025 A 
HETATM   24  C   UNK N   1      35.096  13.391  18.712  0.00  0.00     0.002 A 
HETATM   25  C   UNK N   1      35.335  12.159  19.340  0.00  0.00     0.008 A 
HETATM   26  C   UNK N   1      35.626  11.018  18.575  0.00  0.00    -0.046 A 
HETATM   27  C   UNK N   1      35.699  11.147  17.182  0.00  0.00     0.033 A 
BRANCH  26  28
HETATM   28  C   UNK N   1      35.976   9.701  19.254  0.00  0.00     0.080 C 
HETATM   29  C   UNK N   1      34.880   9.126  20.155  0.00  0.00    -0.037 A 
HETATM   30  C   UNK N   1      35.164   8.753  21.486  0.00  0.00    -0.001 A 
HETATM   31  C   UNK N   1      33.567   8.991  19.677  0.00  0.00     0.032 A 
HETATM   32  C   UNK N   1      36.564   8.886  22.003  0.00  0.00     0.312 C 
HETATM   33  C   UNK N   1      34.140   8.258  22.313  0.00  0.00     0.044 A 
HETATM   34  N   UNK N   1      37.212  10.039  21.390  0.00  0.00     0.089 N 
HETATM   35  C   UNK N   1      38.554  10.098  21.942  0.00  0.00     0.310 C 
HETATM   36  C   UNK N   1      37.347   9.758  19.963  0.00  0.00     0.286 C 
HETATM   37  C   UNK N   1      32.836   8.159  21.823  0.00  0.00     0.048 A 
HETATM   38 Cl   UNK N   1      34.458   7.760  23.968  0.00  0.00    -0.084 Cl
HETATM   39  C   UNK N   1      32.551   8.526  20.510  0.00  0.00     0.036 A 
HETATM   40 Cl   UNK N   1      30.907   8.446  19.923  0.00  0.00    -0.084 Cl
ENDBRANCH  26  28
ENDBRANCH  19  22
ENDBRANCH  17  19
ENDBRANCH  16  17
ENDBRANCH  15  16
ENDBRANCH  14  15
ENDBRANCH  13  14
ENDBRANCH  12  13
ENDBRANCH  11  12
ENDBRANCH  10  11
ENDBRANCH   9  10
ENDBRANCH   5   9
ENDBRANCH   2   3
ENDBRANCH   1   2
BRANCH   1  41
HETATM   41  C   UNK N   1      30.007  17.047   5.471  0.00  0.00     0.021 C 
BRANCH  41  42
HETATM   42  C   UNK N   1      29.185  17.761   6.530  0.00  0.00     0.124 C 
BRANCH  42  43
HETATM   43  N   UNK N   1      27.899  18.101   5.995  0.00  0.00    -0.343 N 
HETATM   44  C   UNK N   1      27.327  19.315   6.196  0.00  0.00     0.316 C 
HETATM   45  O   UNK N   1      27.884  20.164   6.875  0.00  0.00    -0.247 OA
HETATM   46  N   UNK N   1      26.126  19.585   5.645  0.00  0.00    -0.341 N 
HETATM   47  H   UNK N   1      25.765  20.499   5.700  0.00  0.00     0.164 HD
HETATM   48  H   UNK N   1      27.414  17.430   5.462  0.00  0.00     0.164 HD
BRANCH  46  49
HETATM   49  C   UNK N   1      25.361  18.564   4.978  0.00  0.00     0.150 C 
BRANCH  49  50
HETATM   50  C   UNK N   1      25.907  18.336   3.565  0.00  0.00     0.187 C 
BRANCH  50  51
HETATM   51  O   UNK N   1      25.600  17.044   3.105  0.00  0.00    -0.387 OA
BRANCH  51  52
HETATM   52  C   UNK N   1      26.814  16.340   3.103  0.00  0.00     0.193 C 
BRANCH  52  53
HETATM   53  C   UNK N   1      26.861  15.236   4.172  0.00  0.00     0.193 C 
BRANCH  53  54
HETATM   54  O   UNK N   1      26.031  14.165   3.816  0.00  0.00    -0.387 OA
BRANCH  54  55
HETATM   55  C   UNK N   1      26.759  13.272   3.031  0.00  0.00     0.188 C 
BRANCH  55  56
HETATM   56  C   UNK N   1      25.822  12.124   2.668  0.00  0.00     0.158 C 
BRANCH  56  57
HETATM   57  N   UNK N   1      25.387  12.189   1.279  0.00  0.00    -0.313 N 
HETATM   58  H   UNK N   1      26.018  12.277   0.483  0.00  0.00     0.172 HD
BRANCH  57  59
HETATM   59  S   UNK N   1      23.614  12.094   1.146  0.00  0.00     0.258 S 
HETATM   60  O   UNK N   1      23.442  10.590   0.894  0.00  0.00    -0.201 OA
HETATM   61  O   UNK N   1      23.150  12.587  -0.222  0.00  0.00    -0.201 OA
BRANCH  59  62
HETATM   62  C   UNK N   1      22.426  12.463   2.407  0.00  0.00     0.080 A 
HETATM   63  C   UNK N   1      21.386  11.596   2.760  0.00  0.00     0.025 A 
HETATM   64  C   UNK N   1      20.635  11.860   3.918  0.00  0.00     0.002 A 
HETATM   65  C   UNK N   1      20.968  12.954   4.739  0.00  0.00     0.008 A 
HETATM   66  C   UNK N   1      22.030  13.801   4.376  0.00  0.00    -0.046 A 
HETATM   67  C   UNK N   1      22.733  13.530   3.216  0.00  0.00     0.033 A 
BRANCH  66  68
HETATM   68  C   UNK N   1      22.538  14.901   5.278  0.00  0.00     0.080 C 
HETATM   69  C   UNK N   1      22.540  16.278   4.575  0.00  0.00     0.286 C 
HETATM   70  N   UNK N   1      21.199  16.845   4.626  0.00  0.00     0.089 N 
HETATM   71  C   UNK N   1      20.982  17.305   5.994  0.00  0.00     0.312 C 
HETATM   72  C   UNK N   1      21.159  18.002   3.750  0.00  0.00     0.310 C 
HETATM   73  C   UNK N   1      21.120  16.163   6.972  0.00  0.00    -0.001 A 
HETATM   74  C   UNK N   1      21.829  14.991   6.607  0.00  0.00    -0.037 A 
HETATM   75  C   UNK N   1      20.556  16.263   8.254  0.00  0.00     0.044 A 
HETATM   76  C   UNK N   1      21.929  13.932   7.514  0.00  0.00     0.032 A 
HETATM   77  C   UNK N   1      21.343  14.030   8.774  0.00  0.00     0.036 A 
HETATM   78  C   UNK N   1      20.671  15.195   9.149  0.00  0.00     0.048 A 
HETATM   79 Cl   UNK N   1      21.470  12.695   9.896  0.00  0.00    -0.084 Cl
HETATM   80 Cl   UNK N   1      19.718  17.719   8.769  0.00  0.00    -0.084 Cl
ENDBRANCH  66  68
ENDBRANCH  59  62
ENDBRANCH  57  59
ENDBRANCH  56  57
ENDBRANCH  55  56
ENDBRANCH  54  55
ENDBRANCH  53  54
ENDBRANCH  52  53
ENDBRANCH  51  52
ENDBRANCH  50  51
ENDBRANCH  49  50
ENDBRANCH  46  49
ENDBRANCH  42  43
ENDBRANCH  41  42
ENDBRANCH   1  41
TORSDOF 29
ENDMDL
MODEL 5
REMARK VINA RESULT:      -7.5      4.468      7.435
REMARK  29 active torsions:
REMARK  status: ('A' for Active; 'I' for Inactive)
REMARK    1  A    between atoms: C_12  and  C_14 
REMARK    2  A    between atoms: C_18  and  S_20 
REMARK    3  A    between atoms: S_20  and  N_23 
REMARK    4  A    between atoms: N_23  and  C_24 
REMARK    5  A    between atoms: C_24  and  C_25 
REMARK    6  A    between atoms: C_25  and  O_26 
REMARK    7  A    between atoms: O_26  and  C_27 
REMARK    8  A    between atoms: C_27  and  C_28 
REMARK    9  A    between atoms: C_28  and  O_29 
REMARK   10  A    between atoms: O_29  and  C_30 
REMARK   11  A    between atoms: C_30  and  C_31 
REMARK   12  A    between atoms: C_31  and  N_32 
REMARK       I    between atoms: N_32  and  C_33 
REMARK       I    between atoms: C_33  and  N_35 
REMARK   13  A    between atoms: N_35  and  C_36 
REMARK   14  A    between atoms: C_36  and  C_37 
REMARK   15  A    between atoms: C_37  and  C_38 
REMARK   16  A    between atoms: C_38  and  C_39 
REMARK   17  A    between atoms: C_39  and  N_40 
REMARK       I    between atoms: N_40  and  C_41 
REMARK       I    between atoms: C_41  and  N_43 
REMARK   18  A    between atoms: N_43  and  C_44 
REMARK   19  A    between atoms: C_44  and  C_45 
REMARK   20  A    between atoms: C_45  and  O_46 
REMARK   21  A    between atoms: O_46  and  C_47 
REMARK   22  A    between atoms: C_47  and  C_48 
REMARK   23  A    between atoms: C_48  and  O_49 
REMARK   24  A    between atoms: O_49  and  C_50 
REMARK   25  A    between atoms: C_50  and  C_51 
REMARK   26  A    between atoms: C_51  and  N_52 
REMARK   27  A    between atoms: N_52  and  S_53 
REMARK   28  A    between atoms: S_53  and  C_56 
REMARK   29  A    between atoms: C_62  and  C_60 
ROOT
HETATM    1  C   UNK N   1      23.885  15.181   2.924  0.00  0.00     0.021 C 
ENDROOT
BRANCH   1   2
HETATM    2  C   UNK N   1      24.741  16.040   3.875  0.00  0.00     0.124 C 
BRANCH   2   3
HETATM    3  N   UNK N   1      25.996  16.476   3.294  0.00  0.00    -0.343 N 
HETATM    4  C   UNK N   1      26.965  17.083   4.020  0.00  0.00     0.316 C 
HETATM    5  N   UNK N   1      26.791  17.296   5.351  0.00  0.00    -0.341 N 
HETATM    6  O   UNK N   1      27.993  17.442   3.465  0.00  0.00    -0.247 OA
HETATM    7  H   UNK N   1      25.940  17.026   5.766  0.00  0.00     0.164 HD
HETATM    8  H   UNK N   1      26.151  16.326   2.334  0.00  0.00     0.164 HD
BRANCH   5   9
HETATM    9  C   UNK N   1      27.802  17.903   6.176  0.00  0.00     0.150 C 
BRANCH   9  10
HETATM   10  C   UNK N   1      28.550  16.811   6.921  0.00  0.00     0.187 C 
BRANCH  10  11
HETATM   11  O   UNK N   1      29.816  17.280   7.275  0.00  0.00    -0.387 OA
BRANCH  11  12
HETATM   12  C   UNK N   1      30.602  17.135   6.129  0.00  0.00     0.193 C 
BRANCH  12  13
HETATM   13  C   UNK N   1      31.923  16.487   6.505  0.00  0.00     0.193 C 
BRANCH  13  14
HETATM   14  O   UNK N   1      31.795  15.777   7.704  0.00  0.00    -0.387 OA
BRANCH  14  15
HETATM   15  C   UNK N   1      32.788  16.287   8.544  0.00  0.00     0.188 C 
BRANCH  15  16
HETATM   16  C   UNK N   1      33.383  15.163   9.373  0.00  0.00     0.158 C 
BRANCH  16  17
HETATM   17  N   UNK N   1      33.834  15.682  10.657  0.00  0.00    -0.313 N 
HETATM   18  H   UNK N   1      33.285  16.293  11.261  0.00  0.00     0.172 HD
BRANCH  17  19
HETATM   19  S   UNK N   1      35.474  15.100  11.027  0.00  0.00     0.258 S 
HETATM   20  O   UNK N   1      36.410  16.316  10.909  0.00  0.00    -0.201 OA
HETATM   21  O   UNK N   1      35.892  14.279   9.799  0.00  0.00    -0.201 OA
BRANCH  19  22
HETATM   22  C   UNK N   1      35.751  14.207  12.552  0.00  0.00     0.080 A 
HETATM   23  C   UNK N   1      36.417  14.793  13.632  0.00  0.00     0.025 A 
HETATM   24  C   UNK N   1      36.642  14.048  14.797  0.00  0.00     0.002 A 
HETATM   25  C   UNK N   1      36.219  12.713  14.872  0.00  0.00     0.008 A 
HETATM   26  C   UNK N   1      35.533  12.125  13.797  0.00  0.00    -0.046 A 
HETATM   27  C   UNK N   1      35.309  12.892  12.647  0.00  0.00     0.033 A 
BRANCH  26  28
HETATM   28  C   UNK N   1      35.151  10.652  13.836  0.00  0.00     0.080 C 
HETATM   29  C   UNK N   1      36.305   9.679  13.581  0.00  0.00    -0.037 A 
HETATM   30  C   UNK N   1      36.192   8.667  12.602  0.00  0.00    -0.001 A 
HETATM   31  C   UNK N   1      37.506   9.798  14.298  0.00  0.00     0.032 A 
HETATM   32  C   UNK N   1      34.911   8.527  11.837  0.00  0.00     0.312 C 
HETATM   33  C   UNK N   1      37.272   7.802  12.355  0.00  0.00     0.044 A 
HETATM   34  N   UNK N   1      34.304   9.837  11.639  0.00  0.00     0.089 N 
HETATM   35  C   UNK N   1      33.079   9.615  10.894  0.00  0.00     0.310 C 
HETATM   36  C   UNK N   1      33.921  10.346  12.954  0.00  0.00     0.286 C 
HETATM   37  C   UNK N   1      38.466   7.958  13.062  0.00  0.00     0.048 A 
HETATM   38 Cl   UNK N   1      37.162   6.516  11.163  0.00  0.00    -0.084 Cl
HETATM   39  C   UNK N   1      38.583   8.955  14.029  0.00  0.00     0.036 A 
HETATM   40 Cl   UNK N   1      40.098   9.174  14.872  0.00  0.00    -0.084 Cl
ENDBRANCH  26  28
ENDBRANCH  19  22
ENDBRANCH  17  19
ENDBRANCH  16  17
ENDBRANCH  15  16
ENDBRANCH  14  15
ENDBRANCH  13  14
ENDBRANCH  12  13
ENDBRANCH  11  12
ENDBRANCH  10  11
ENDBRANCH   9  10
ENDBRANCH   5   9
ENDBRANCH   2   3
ENDBRANCH   1   2
BRANCH   1  41
HETATM   41  C   UNK N   1      22.470  14.880   3.413  0.00  0.00     0.021 C 
BRANCH  41  42
HETATM   42  C   UNK N   1      21.485  15.009   2.264  0.00  0.00     0.124 C 
BRANCH  42  43
HETATM   43  N   UNK N   1      21.136  16.386   2.080  0.00  0.00    -0.343 N 
HETATM   44  C   UNK N   1      20.200  16.784   1.181  0.00  0.00     0.316 C 
HETATM   45  O   UNK N   1      19.633  15.972   0.467  0.00  0.00    -0.247 OA
HETATM   46  N   UNK N   1      19.896  18.094   1.072  0.00  0.00    -0.341 N 
HETATM   47  H   UNK N   1      19.142  18.368   0.501  0.00  0.00     0.164 HD
HETATM   48  H   UNK N   1      21.592  17.069   2.624  0.00  0.00     0.164 HD
BRANCH  46  49
HETATM   49  C   UNK N   1      20.653  19.100   1.772  0.00  0.00     0.150 C 
BRANCH  49  50
HETATM   50  C   UNK N   1      19.899  19.545   3.029  0.00  0.00     0.187 C 
BRANCH  50  51
HETATM   51  O   UNK N   1      20.769  20.142   3.957  0.00  0.00    -0.387 OA
BRANCH  51  52
HETATM   52  C   UNK N   1      21.675  19.139   4.333  0.00  0.00     0.193 C 
BRANCH  52  53
HETATM   53  C   UNK N   1      21.067  18.132   5.324  0.00  0.00     0.193 C 
BRANCH  53  54
HETATM   54  O   UNK N   1      21.279  18.548   6.645  0.00  0.00    -0.387 OA
BRANCH  54  55
HETATM   55  C   UNK N   1      20.406  17.851   7.481  0.00  0.00     0.188 C 
BRANCH  55  56
HETATM   56  C   UNK N   1      20.582  16.366   7.178  0.00  0.00     0.158 C 
BRANCH  56  57
HETATM   57  N   UNK N   1      21.330  15.678   8.222  0.00  0.00    -0.313 N 
HETATM   58  H   UNK N   1      21.954  16.142   8.882  0.00  0.00     0.172 HD
BRANCH  57  59
HETATM   59  S   UNK N   1      21.018  13.926   8.201  0.00  0.00     0.258 S 
HETATM   60  O   UNK N   1      20.059  13.837   7.005  0.00  0.00    -0.201 OA
HETATM   61  O   UNK N   1      20.022  13.543   9.293  0.00  0.00    -0.201 OA
BRANCH  59  62
HETATM   62  C   UNK N   1      22.194  12.633   7.913  0.00  0.00     0.080 A 
HETATM   63  C   UNK N   1      22.994  12.084   8.922  0.00  0.00     0.025 A 
HETATM   64  C   UNK N   1      23.727  10.914   8.656  0.00  0.00     0.002 A 
HETATM   65  C   UNK N   1      23.607  10.277   7.406  0.00  0.00     0.008 A 
HETATM   66  C   UNK N   1      22.782  10.835   6.415  0.00  0.00    -0.046 A 
HETATM   67  C   UNK N   1      22.094  12.002   6.697  0.00  0.00     0.033 A 
BRANCH  66  68
HETATM   68  C   UNK N   1      22.489  10.133   5.109  0.00  0.00     0.080 C 
HETATM   69  C   UNK N   1      20.974  10.062   4.812  0.00  0.00     0.286 C 
HETATM   70  N   UNK N   1      20.538  11.328   4.237  0.00  0.00     0.089 N 
HETATM   71  C   UNK N   1      21.023  11.362   2.861  0.00  0.00     0.312 C 
HETATM   72  C   UNK N   1      19.087  11.339   4.202  0.00  0.00     0.310 C 
HETATM   73  C   UNK N   1      22.528  11.244   2.820  0.00  0.00    -0.001 A 
HETATM   74  C   UNK N   1      23.232  10.695   3.922  0.00  0.00    -0.037 A 
HETATM   75  C   UNK N   1      23.237  11.665   1.684  0.00  0.00     0.044 A 
HETATM   76  C   UNK N   1      24.626  10.613   3.880  0.00  0.00     0.032 A 
HETATM   77  C   UNK N   1      25.323  11.059   2.759  0.00  0.00     0.036 A 
HETATM   78  C   UNK N   1      24.631  11.570   1.660  0.00  0.00     0.048 A 
HETATM   79 Cl   UNK N   1      27.068  10.956   2.724  0.00  0.00    -0.084 Cl
HETATM   80 Cl   UNK N   1      22.401  12.298   0.274  0.00  0.00    -0.084 Cl
ENDBRANCH  66  68
ENDBRANCH  59  62
ENDBRANCH  57  59
ENDBRANCH  56  57
ENDBRANCH  55  56
ENDBRANCH  54  55
ENDBRANCH  53  54
ENDBRANCH  52  53
ENDBRANCH  51  52
ENDBRANCH  50  51
ENDBRANCH  49  50
ENDBRANCH  46  49
ENDBRANCH  42  43
ENDBRANCH  41  42
ENDBRANCH   1  41
TORSDOF 29
ENDMDL
MODEL 6
REMARK VINA RESULT:      -7.5      8.240     11.577
REMARK  29 active torsions:
REMARK  status: ('A' for Active; 'I' for Inactive)
REMARK    1  A    between atoms: C_12  and  C_14 
REMARK    2  A    between atoms: C_18  and  S_20 
REMARK    3  A    between atoms: S_20  and  N_23 
REMARK    4  A    between atoms: N_23  and  C_24 
REMARK    5  A    between atoms: C_24  and  C_25 
REMARK    6  A    between atoms: C_25  and  O_26 
REMARK    7  A    between atoms: O_26  and  C_27 
REMARK    8  A    between atoms: C_27  and  C_28 
REMARK    9  A    between atoms: C_28  and  O_29 
REMARK   10  A    between atoms: O_29  and  C_30 
REMARK   11  A    between atoms: C_30  and  C_31 
REMARK   12  A    between atoms: C_31  and  N_32 
REMARK       I    between atoms: N_32  and  C_33 
REMARK       I    between atoms: C_33  and  N_35 
REMARK   13  A    between atoms: N_35  and  C_36 
REMARK   14  A    between atoms: C_36  and  C_37 
REMARK   15  A    between atoms: C_37  and  C_38 
REMARK   16  A    between atoms: C_38  and  C_39 
REMARK   17  A    between atoms: C_39  and  N_40 
REMARK       I    between atoms: N_40  and  C_41 
REMARK       I    between atoms: C_41  and  N_43 
REMARK   18  A    between atoms: N_43  and  C_44 
REMARK   19  A    between atoms: C_44  and  C_45 
REMARK   20  A    between atoms: C_45  and  O_46 
REMARK   21  A    between atoms: O_46  and  C_47 
REMARK   22  A    between atoms: C_47  and  C_48 
REMARK   23  A    between atoms: C_48  and  O_49 
REMARK   24  A    between atoms: O_49  and  C_50 
REMARK   25  A    between atoms: C_50  and  C_51 
REMARK   26  A    between atoms: C_51  and  N_52 
REMARK   27  A    between atoms: N_52  and  S_53 
REMARK   28  A    between atoms: S_53  and  C_56 
REMARK   29  A    between atoms: C_62  and  C_60 
ROOT
HETATM    1  C   UNK N   1      23.833  11.654   9.017  0.00  0.00     0.021 C 
ENDROOT
BRANCH   1   2
HETATM    2  C   UNK N   1      24.477  12.187   7.722  0.00  0.00     0.124 C 
BRANCH   2   3
HETATM    3  N   UNK N   1      24.512  13.634   7.643  0.00  0.00    -0.343 N 
HETATM    4  C   UNK N   1      25.253  14.298   6.723  0.00  0.00     0.316 C 
HETATM    5  N   UNK N   1      25.994  13.609   5.816  0.00  0.00    -0.341 N 
HETATM    6  O   UNK N   1      25.252  15.520   6.722  0.00  0.00    -0.247 OA
HETATM    7  H   UNK N   1      26.003  12.625   5.860  0.00  0.00     0.164 HD
HETATM    8  H   UNK N   1      23.977  14.156   8.283  0.00  0.00     0.164 HD
BRANCH   5   9
HETATM    9  C   UNK N   1      26.770  14.262   4.795  0.00  0.00     0.150 C 
BRANCH   9  10
HETATM   10  C   UNK N   1      28.079  14.737   5.398  0.00  0.00     0.187 C 
BRANCH  10  11
HETATM   11  O   UNK N   1      28.231  16.102   5.153  0.00  0.00    -0.387 OA
BRANCH  11  12
HETATM   12  C   UNK N   1      29.152  16.552   6.102  0.00  0.00     0.193 C 
BRANCH  12  13
HETATM   13  C   UNK N   1      28.482  17.565   7.013  0.00  0.00     0.193 C 
BRANCH  13  14
HETATM   14  O   UNK N   1      29.413  18.114   7.902  0.00  0.00    -0.387 OA
BRANCH  14  15
HETATM   15  C   UNK N   1      30.485  17.218   7.913  0.00  0.00     0.188 C 
BRANCH  15  16
HETATM   16  C   UNK N   1      31.733  17.921   8.417  0.00  0.00     0.158 C 
BRANCH  16  17
HETATM   17  N   UNK N   1      32.781  16.943   8.674  0.00  0.00    -0.313 N 
HETATM   18  H   UNK N   1      32.820  16.335   9.491  0.00  0.00     0.172 HD
BRANCH  17  19
HETATM   19  S   UNK N   1      33.984  16.957   7.364  0.00  0.00     0.258 S 
HETATM   20  O   UNK N   1      35.113  16.001   7.792  0.00  0.00    -0.201 OA
HETATM   21  O   UNK N   1      34.685  18.318   7.478  0.00  0.00    -0.201 OA
BRANCH  19  22
HETATM   22  C   UNK N   1      33.445  16.624   5.691  0.00  0.00     0.080 A 
HETATM   23  C   UNK N   1      33.018  17.649   4.842  0.00  0.00     0.025 A 
HETATM   24  C   UNK N   1      32.573  17.341   3.549  0.00  0.00     0.002 A 
HETATM   25  C   UNK N   1      32.536  16.007   3.116  0.00  0.00     0.008 A 
HETATM   26  C   UNK N   1      32.981  14.976   3.959  0.00  0.00    -0.046 A 
HETATM   27  C   UNK N   1      33.432  15.308   5.243  0.00  0.00     0.033 A 
BRANCH  26  28
HETATM   28  C   UNK N   1      32.859  13.520   3.530  0.00  0.00     0.080 C 
HETATM   29  C   UNK N   1      33.486  13.191   2.173  0.00  0.00    -0.037 A 
HETATM   30  C   UNK N   1      32.742  12.519   1.179  0.00  0.00    -0.001 A 
HETATM   31  C   UNK N   1      34.804  13.581   1.887  0.00  0.00     0.032 A 
HETATM   32  C   UNK N   1      31.336  12.092   1.477  0.00  0.00     0.312 C 
HETATM   33  C   UNK N   1      33.320  12.254  -0.076  0.00  0.00     0.044 A 
HETATM   34  N   UNK N   1      30.704  13.055   2.370  0.00  0.00     0.089 N 
HETATM   35  C   UNK N   1      29.355  12.573   2.606  0.00  0.00     0.310 C 
HETATM   36  C   UNK N   1      31.410  12.999   3.647  0.00  0.00     0.286 C 
HETATM   37  C   UNK N   1      34.623  12.676  -0.345  0.00  0.00     0.048 A 
HETATM   38 Cl   UNK N   1      32.434  11.399  -1.329  0.00  0.00    -0.084 Cl
HETATM   39  C   UNK N   1      35.362  13.339   0.633  0.00  0.00     0.036 A 
HETATM   40 Cl   UNK N   1      36.973  13.908   0.267  0.00  0.00    -0.084 Cl
ENDBRANCH  26  28
ENDBRANCH  19  22
ENDBRANCH  17  19
ENDBRANCH  16  17
ENDBRANCH  15  16
ENDBRANCH  14  15
ENDBRANCH  13  14
ENDBRANCH  12  13
ENDBRANCH  11  12
ENDBRANCH  10  11
ENDBRANCH   9  10
ENDBRANCH   5   9
ENDBRANCH   2   3
ENDBRANCH   1   2
BRANCH   1  41
HETATM   41  C   UNK N   1      23.761  12.655  10.169  0.00  0.00     0.021 C 
BRANCH  41  42
HETATM   42  C   UNK N   1      22.311  12.938  10.521  0.00  0.00     0.124 C 
BRANCH  42  43
HETATM   43  N   UNK N   1      21.819  14.011   9.709  0.00  0.00    -0.343 N 
HETATM   44  C   UNK N   1      20.495  14.297   9.607  0.00  0.00     0.316 C 
HETATM   45  O   UNK N   1      19.663  13.621  10.191  0.00  0.00    -0.247 OA
HETATM   46  N   UNK N   1      20.095  15.336   8.847  0.00  0.00    -0.341 N 
HETATM   47  H   UNK N   1      19.149  15.608   8.862  0.00  0.00     0.164 HD
HETATM   48  H   UNK N   1      22.463  14.561   9.207  0.00  0.00     0.164 HD
BRANCH  46  49
HETATM   49  C   UNK N   1      21.023  16.056   8.012  0.00  0.00     0.150 C 
BRANCH  49  50
HETATM   50  C   UNK N   1      20.332  17.272   7.386  0.00  0.00     0.187 C 
BRANCH  50  51
HETATM   51  O   UNK N   1      21.233  18.338   7.223  0.00  0.00    -0.387 OA
BRANCH  51  52
HETATM   52  C   UNK N   1      21.442  18.455   5.841  0.00  0.00     0.193 C 
BRANCH  52  53
HETATM   53  C   UNK N   1      22.797  17.879   5.395  0.00  0.00     0.193 C 
BRANCH  53  54
HETATM   54  O   UNK N   1      22.614  16.806   4.513  0.00  0.00    -0.387 OA
BRANCH  54  55
HETATM   55  C   UNK N   1      21.494  17.061   3.722  0.00  0.00     0.188 C 
BRANCH  55  56
HETATM   56  C   UNK N   1      20.615  15.815   3.771  0.00  0.00     0.158 C 
BRANCH  56  57
HETATM   57  N   UNK N   1      19.569  15.840   2.757  0.00  0.00    -0.313 N 
HETATM   58  H   UNK N   1      18.738  16.430   2.802  0.00  0.00     0.172 HD
BRANCH  57  59
HETATM   59  S   UNK N   1      19.925  14.712   1.426  0.00  0.00     0.258 S 
HETATM   60  O   UNK N   1      20.846  15.590   0.567  0.00  0.00    -0.201 OA
HETATM   61  O   UNK N   1      18.749  14.635   0.456  0.00  0.00    -0.201 OA
BRANCH  59  62
HETATM   62  C   UNK N   1      20.778  13.164   1.536  0.00  0.00     0.080 A 
HETATM   63  C   UNK N   1      21.526  12.622   0.483  0.00  0.00     0.025 A 
HETATM   64  C   UNK N   1      22.354  11.513   0.729  0.00  0.00     0.002 A 
HETATM   65  C   UNK N   1      22.468  10.995   2.033  0.00  0.00     0.008 A 
HETATM   66  C   UNK N   1      21.724  11.568   3.079  0.00  0.00    -0.046 A 
HETATM   67  C   UNK N   1      20.897  12.641   2.800  0.00  0.00     0.033 A 
BRANCH  66  68
HETATM   68  C   UNK N   1      21.906  11.163   4.524  0.00  0.00     0.080 C 
HETATM   69  C   UNK N   1      20.607  10.594   5.139  0.00  0.00     0.286 C 
HETATM   70  N   UNK N   1      20.468   9.195   4.757  0.00  0.00     0.089 N 
HETATM   71  C   UNK N   1      21.429   8.438   5.552  0.00  0.00     0.312 C 
HETATM   72  C   UNK N   1      19.135   8.752   5.121  0.00  0.00     0.310 C 
HETATM   73  C   UNK N   1      22.836   8.926   5.301  0.00  0.00    -0.001 A 
HETATM   74  C   UNK N   1      23.058  10.219   4.763  0.00  0.00    -0.037 A 
HETATM   75  C   UNK N   1      23.932   8.106   5.612  0.00  0.00     0.044 A 
HETATM   76  C   UNK N   1      24.364  10.650   4.514  0.00  0.00     0.032 A 
HETATM   77  C   UNK N   1      25.444   9.817   4.800  0.00  0.00     0.036 A 
HETATM   78  C   UNK N   1      25.231   8.556   5.359  0.00  0.00     0.048 A 
HETATM   79 Cl   UNK N   1      27.073  10.366   4.477  0.00  0.00    -0.084 Cl
HETATM   80 Cl   UNK N   1      23.705   6.519   6.332  0.00  0.00    -0.084 Cl
ENDBRANCH  66  68
ENDBRANCH  59  62
ENDBRANCH  57  59
ENDBRANCH  56  57
ENDBRANCH  55  56
ENDBRANCH  54  55
ENDBRANCH  53  54
ENDBRANCH  52  53
ENDBRANCH  51  52
ENDBRANCH  50  51
ENDBRANCH  49  50
ENDBRANCH  46  49
ENDBRANCH  42  43
ENDBRANCH  41  42
ENDBRANCH   1  41
TORSDOF 29
ENDMDL
MODEL 7
REMARK VINA RESULT:      -7.5      8.731     12.073
REMARK  29 active torsions:
REMARK  status: ('A' for Active; 'I' for Inactive)
REMARK    1  A    between atoms: C_12  and  C_14 
REMARK    2  A    between atoms: C_18  and  S_20 
REMARK    3  A    between atoms: S_20  and  N_23 
REMARK    4  A    between atoms: N_23  and  C_24 
REMARK    5  A    between atoms: C_24  and  C_25 
REMARK    6  A    between atoms: C_25  and  O_26 
REMARK    7  A    between atoms: O_26  and  C_27 
REMARK    8  A    between atoms: C_27  and  C_28 
REMARK    9  A    between atoms: C_28  and  O_29 
REMARK   10  A    between atoms: O_29  and  C_30 
REMARK   11  A    between atoms: C_30  and  C_31 
REMARK   12  A    between atoms: C_31  and  N_32 
REMARK       I    between atoms: N_32  and  C_33 
REMARK       I    between atoms: C_33  and  N_35 
REMARK   13  A    between atoms: N_35  and  C_36 
REMARK   14  A    between atoms: C_36  and  C_37 
REMARK   15  A    between atoms: C_37  and  C_38 
REMARK   16  A    between atoms: C_38  and  C_39 
REMARK   17  A    between atoms: C_39  and  N_40 
REMARK       I    between atoms: N_40  and  C_41 
REMARK       I    between atoms: C_41  and  N_43 
REMARK   18  A    between atoms: N_43  and  C_44 
REMARK   19  A    between atoms: C_44  and  C_45 
REMARK   20  A    between atoms: C_45  and  O_46 
REMARK   21  A    between atoms: O_46  and  C_47 
REMARK   22  A    between atoms: C_47  and  C_48 
REMARK   23  A    between atoms: C_48  and  O_49 
REMARK   24  A    between atoms: O_49  and  C_50 
REMARK   25  A    between atoms: C_50  and  C_51 
REMARK   26  A    between atoms: C_51  and  N_52 
REMARK   27  A    between atoms: N_52  and  S_53 
REMARK   28  A    between atoms: S_53  and  C_56 
REMARK   29  A    between atoms: C_62  and  C_60 
ROOT
HETATM    1  C   UNK N   1      23.902  11.671   9.047  0.00  0.00     0.021 C 
ENDROOT
BRANCH   1   2
HETATM    2  C   UNK N   1      24.446  12.225   7.716  0.00  0.00     0.124 C 
BRANCH   2   3
HETATM    3  N   UNK N   1      24.538  13.672   7.682  0.00  0.00    -0.343 N 
HETATM    4  C   UNK N   1      25.229  14.338   6.727  0.00  0.00     0.316 C 
HETATM    5  N   UNK N   1      25.865  13.654   5.740  0.00  0.00    -0.341 N 
HETATM    6  O   UNK N   1      25.281  15.559   6.767  0.00  0.00    -0.247 OA
HETATM    7  H   UNK N   1      25.834  12.670   5.750  0.00  0.00     0.164 HD
HETATM    8  H   UNK N   1      24.079  14.191   8.381  0.00  0.00     0.164 HD
BRANCH   5   9
HETATM    9  C   UNK N   1      26.582  14.313   4.680  0.00  0.00     0.150 C 
BRANCH   9  10
HETATM   10  C   UNK N   1      28.021  14.522   5.116  0.00  0.00     0.187 C 
BRANCH  10  11
HETATM   11  O   UNK N   1      28.352  15.871   4.978  0.00  0.00    -0.387 OA
BRANCH  11  12
HETATM   12  C   UNK N   1      29.142  16.176   6.089  0.00  0.00     0.193 C 
BRANCH  12  13
HETATM   13  C   UNK N   1      28.464  17.265   6.904  0.00  0.00     0.193 C 
BRANCH  13  14
HETATM   14  O   UNK N   1      29.418  18.029   7.586  0.00  0.00    -0.387 OA
BRANCH  14  15
HETATM   15  C   UNK N   1      30.507  17.174   7.779  0.00  0.00     0.188 C 
BRANCH  15  16
HETATM   16  C   UNK N   1      31.663  17.950   8.384  0.00  0.00     0.158 C 
BRANCH  16  17
HETATM   17  N   UNK N   1      32.739  17.034   8.740  0.00  0.00    -0.313 N 
HETATM   18  H   UNK N   1      32.772  16.484   9.598  0.00  0.00     0.172 HD
BRANCH  17  19
HETATM   19  S   UNK N   1      33.985  17.010   7.472  0.00  0.00     0.258 S 
HETATM   20  O   UNK N   1      35.073  16.027   7.942  0.00  0.00    -0.201 OA
HETATM   21  O   UNK N   1      34.715  18.353   7.603  0.00  0.00    -0.201 OA
BRANCH  19  22
HETATM   22  C   UNK N   1      33.493  16.680   5.783  0.00  0.00     0.080 A 
HETATM   23  C   UNK N   1      33.115  17.710   4.917  0.00  0.00     0.025 A 
HETATM   24  C   UNK N   1      32.706  17.406   3.612  0.00  0.00     0.002 A 
HETATM   25  C   UNK N   1      32.656  16.071   3.182  0.00  0.00     0.008 A 
HETATM   26  C   UNK N   1      33.052  15.035   4.043  0.00  0.00    -0.046 A 
HETATM   27  C   UNK N   1      33.468  15.363   5.339  0.00  0.00     0.033 A 
BRANCH  26  28
HETATM   28  C   UNK N   1      32.913  13.580   3.615  0.00  0.00     0.080 C 
HETATM   29  C   UNK N   1      33.640  13.215   2.318  0.00  0.00    -0.037 A 
HETATM   30  C   UNK N   1      32.958  12.560   1.270  0.00  0.00    -0.001 A 
HETATM   31  C   UNK N   1      34.990  13.555   2.142  0.00  0.00     0.032 A 
HETATM   32  C   UNK N   1      31.518  12.186   1.452  0.00  0.00     0.312 C 
HETATM   33  C   UNK N   1      33.629  12.262   0.071  0.00  0.00     0.044 A 
HETATM   34  N   UNK N   1      30.848  13.180   2.281  0.00  0.00     0.089 N 
HETATM   35  C   UNK N   1      29.468  12.748   2.407  0.00  0.00     0.310 C 
HETATM   36  C   UNK N   1      31.442  13.111   3.614  0.00  0.00     0.286 C 
HETATM   37  C   UNK N   1      34.964  12.634  -0.091  0.00  0.00     0.048 A 
HETATM   38 Cl   UNK N   1      32.821  11.426  -1.247  0.00  0.00    -0.084 Cl
HETATM   39  C   UNK N   1      35.642  13.281   0.940  0.00  0.00     0.036 A 
HETATM   40 Cl   UNK N   1      37.298  13.788   0.708  0.00  0.00    -0.084 Cl
ENDBRANCH  26  28
ENDBRANCH  19  22
ENDBRANCH  17  19
ENDBRANCH  16  17
ENDBRANCH  15  16
ENDBRANCH  14  15
ENDBRANCH  13  14
ENDBRANCH  12  13
ENDBRANCH  11  12
ENDBRANCH  10  11
ENDBRANCH   9  10
ENDBRANCH   5   9
ENDBRANCH   2   3
ENDBRANCH   1   2
BRANCH   1  41
HETATM   41  C   UNK N   1      23.743  12.700  10.165  0.00  0.00     0.021 C 
BRANCH  41  42
HETATM   42  C   UNK N   1      22.269  12.931  10.451  0.00  0.00     0.124 C 
BRANCH  42  43
HETATM   43  N   UNK N   1      21.791  14.026   9.661  0.00  0.00    -0.343 N 
HETATM   44  C   UNK N   1      20.474  14.347   9.586  0.00  0.00     0.316 C 
HETATM   45  O   UNK N   1      19.634  13.685  10.176  0.00  0.00    -0.247 OA
HETATM   46  N   UNK N   1      20.087  15.406   8.845  0.00  0.00    -0.341 N 
HETATM   47  H   UNK N   1      19.149  15.702   8.880  0.00  0.00     0.164 HD
HETATM   48  H   UNK N   1      22.440  14.566   9.154  0.00  0.00     0.164 HD
BRANCH  46  49
HETATM   49  C   UNK N   1      21.019  16.112   8.003  0.00  0.00     0.150 C 
BRANCH  49  50
HETATM   50  C   UNK N   1      20.320  17.292   7.321  0.00  0.00     0.187 C 
BRANCH  50  51
HETATM   51  O   UNK N   1      21.213  18.355   7.107  0.00  0.00    -0.387 OA
BRANCH  51  52
HETATM   52  C   UNK N   1      21.436  18.395   5.722  0.00  0.00     0.193 C 
BRANCH  52  53
HETATM   53  C   UNK N   1      22.803  17.814   5.324  0.00  0.00     0.193 C 
BRANCH  53  54
HETATM   54  O   UNK N   1      22.647  16.756   4.419  0.00  0.00    -0.387 OA
BRANCH  54  55
HETATM   55  C   UNK N   1      21.444  16.924   3.733  0.00  0.00     0.188 C 
BRANCH  55  56
HETATM   56  C   UNK N   1      20.784  15.552   3.638  0.00  0.00     0.158 C 
BRANCH  56  57
HETATM   57  N   UNK N   1      19.691  15.534   2.675  0.00  0.00    -0.313 N 
HETATM   58  H   UNK N   1      18.741  15.843   2.879  0.00  0.00     0.172 HD
BRANCH  57  59
HETATM   59  S   UNK N   1      20.223  14.905   1.097  0.00  0.00     0.258 S 
HETATM   60  O   UNK N   1      20.509  16.222   0.363  0.00  0.00    -0.201 OA
HETATM   61  O   UNK N   1      19.025  14.460   0.263  0.00  0.00    -0.201 OA
BRANCH  59  62
HETATM   62  C   UNK N   1      21.649  13.906   0.770  0.00  0.00     0.080 A 
HETATM   63  C   UNK N   1      22.961  14.389   0.849  0.00  0.00     0.025 A 
HETATM   64  C   UNK N   1      24.031  13.479   0.802  0.00  0.00     0.002 A 
HETATM   65  C   UNK N   1      23.777  12.097   0.732  0.00  0.00     0.008 A 
HETATM   66  C   UNK N   1      22.452  11.632   0.674  0.00  0.00    -0.046 A 
HETATM   67  C   UNK N   1      21.420  12.554   0.695  0.00  0.00     0.033 A 
BRANCH  66  68
HETATM   68  C   UNK N   1      22.100  10.165   0.747  0.00  0.00     0.080 C 
HETATM   69  C   UNK N   1      20.756   9.923   1.473  0.00  0.00     0.286 C 
HETATM   70  N   UNK N   1      19.660  10.147   0.539  0.00  0.00     0.089 N 
HETATM   71  C   UNK N   1      19.624   9.000  -0.362  0.00  0.00     0.312 C 
HETATM   72  C   UNK N   1      18.418  10.167   1.290  0.00  0.00     0.310 C 
HETATM   73  C   UNK N   1      20.935   8.856  -1.098  0.00  0.00    -0.001 A 
HETATM   74  C   UNK N   1      22.112   9.457  -0.585  0.00  0.00    -0.037 A 
HETATM   75  C   UNK N   1      20.996   8.113  -2.288  0.00  0.00     0.044 A 
HETATM   76  C   UNK N   1      23.314   9.335  -1.289  0.00  0.00     0.032 A 
HETATM   77  C   UNK N   1      23.359   8.620  -2.484  0.00  0.00     0.036 A 
HETATM   78  C   UNK N   1      22.208   8.000  -2.975  0.00  0.00     0.048 A 
HETATM   79 Cl   UNK N   1      24.867   8.481  -3.356  0.00  0.00    -0.084 Cl
HETATM   80 Cl   UNK N   1      19.574   7.305  -2.930  0.00  0.00    -0.084 Cl
ENDBRANCH  66  68
ENDBRANCH  59  62
ENDBRANCH  57  59
ENDBRANCH  56  57
ENDBRANCH  55  56
ENDBRANCH  54  55
ENDBRANCH  53  54
ENDBRANCH  52  53
ENDBRANCH  51  52
ENDBRANCH  50  51
ENDBRANCH  49  50
ENDBRANCH  46  49
ENDBRANCH  42  43
ENDBRANCH  41  42
ENDBRANCH   1  41
TORSDOF 29
ENDMDL
MODEL 8
REMARK VINA RESULT:      -7.4      6.394      9.340
REMARK  29 active torsions:
REMARK  status: ('A' for Active; 'I' for Inactive)
REMARK    1  A    between atoms: C_12  and  C_14 
REMARK    2  A    between atoms: C_18  and  S_20 
REMARK    3  A    between atoms: S_20  and  N_23 
REMARK    4  A    between atoms: N_23  and  C_24 
REMARK    5  A    between atoms: C_24  and  C_25 
REMARK    6  A    between atoms: C_25  and  O_26 
REMARK    7  A    between atoms: O_26  and  C_27 
REMARK    8  A    between atoms: C_27  and  C_28 
REMARK    9  A    between atoms: C_28  and  O_29 
REMARK   10  A    between atoms: O_29  and  C_30 
REMARK   11  A    between atoms: C_30  and  C_31 
REMARK   12  A    between atoms: C_31  and  N_32 
REMARK       I    between atoms: N_32  and  C_33 
REMARK       I    between atoms: C_33  and  N_35 
REMARK   13  A    between atoms: N_35  and  C_36 
REMARK   14  A    between atoms: C_36  and  C_37 
REMARK   15  A    between atoms: C_37  and  C_38 
REMARK   16  A    between atoms: C_38  and  C_39 
REMARK   17  A    between atoms: C_39  and  N_40 
REMARK       I    between atoms: N_40  and  C_41 
REMARK       I    between atoms: C_41  and  N_43 
REMARK   18  A    between atoms: N_43  and  C_44 
REMARK   19  A    between atoms: C_44  and  C_45 
REMARK   20  A    between atoms: C_45  and  O_46 
REMARK   21  A    between atoms: O_46  and  C_47 
REMARK   22  A    between atoms: C_47  and  C_48 
REMARK   23  A    between atoms: C_48  and  O_49 
REMARK   24  A    between atoms: O_49  and  C_50 
REMARK   25  A    between atoms: C_50  and  C_51 
REMARK   26  A    between atoms: C_51  and  N_52 
REMARK   27  A    between atoms: N_52  and  S_53 
REMARK   28  A    between atoms: S_53  and  C_56 
REMARK   29  A    between atoms: C_62  and  C_60 
ROOT
HETATM    1  C   UNK N   1      23.883  15.393   3.322  0.00  0.00     0.021 C 
ENDROOT
BRANCH   1   2
HETATM    2  C   UNK N   1      24.458  16.553   4.157  0.00  0.00     0.124 C 
BRANCH   2   3
HETATM    3  N   UNK N   1      24.940  17.663   3.358  0.00  0.00    -0.343 N 
HETATM    4  C   UNK N   1      25.478  18.779   3.906  0.00  0.00     0.316 C 
HETATM    5  N   UNK N   1      25.595  18.890   5.255  0.00  0.00    -0.341 N 
HETATM    6  O   UNK N   1      25.848  19.686   3.174  0.00  0.00    -0.247 OA
HETATM    7  H   UNK N   1      25.258  18.159   5.822  0.00  0.00     0.164 HD
HETATM    8  H   UNK N   1      24.874  17.603   2.378  0.00  0.00     0.164 HD
BRANCH   5   9
HETATM    9  C   UNK N   1      26.192  20.037   5.887  0.00  0.00     0.150 C 
BRANCH   9  10
HETATM   10  C   UNK N   1      27.666  19.760   6.120  0.00  0.00     0.187 C 
BRANCH  10  11
HETATM   11  O   UNK N   1      27.798  18.734   7.057  0.00  0.00    -0.387 OA
BRANCH  11  12
HETATM   12  C   UNK N   1      28.756  17.866   6.527  0.00  0.00     0.193 C 
BRANCH  12  13
HETATM   13  C   UNK N   1      29.192  18.371   5.163  0.00  0.00     0.193 C 
BRANCH  13  14
HETATM   14  O   UNK N   1      29.940  17.394   4.497  0.00  0.00    -0.387 OA
BRANCH  14  15
HETATM   15  C   UNK N   1      30.489  16.597   5.506  0.00  0.00     0.188 C 
BRANCH  15  16
HETATM   16  C   UNK N   1      31.941  16.979   5.725  0.00  0.00     0.158 C 
BRANCH  16  17
HETATM   17  N   UNK N   1      32.637  15.902   6.416  0.00  0.00    -0.313 N 
HETATM   18  H   UNK N   1      32.229  14.993   6.633  0.00  0.00     0.172 HD
BRANCH  17  19
HETATM   19  S   UNK N   1      34.296  16.392   6.830  0.00  0.00     0.258 S 
HETATM   20  O   UNK N   1      34.416  17.885   6.474  0.00  0.00    -0.201 OA
HETATM   21  O   UNK N   1      35.182  15.754   5.750  0.00  0.00    -0.201 OA
BRANCH  19  22
HETATM   22  C   UNK N   1      34.910  16.061   8.477  0.00  0.00     0.080 A 
HETATM   23  C   UNK N   1      34.855  17.027   9.486  0.00  0.00     0.025 A 
HETATM   24  C   UNK N   1      35.376  16.738  10.754  0.00  0.00     0.002 A 
HETATM   25  C   UNK N   1      35.969  15.491  11.005  0.00  0.00     0.008 A 
HETATM   26  C   UNK N   1      36.010  14.511  10.000  0.00  0.00    -0.046 A 
HETATM   27  C   UNK N   1      35.473  14.818   8.743  0.00  0.00     0.033 A 
BRANCH  26  28
HETATM   28  C   UNK N   1      36.732  13.192  10.236  0.00  0.00     0.080 C 
HETATM   29  C   UNK N   1      37.673  12.759   9.108  0.00  0.00    -0.037 A 
HETATM   30  C   UNK N   1      37.572  11.469   8.542  0.00  0.00    -0.001 A 
HETATM   31  C   UNK N   1      38.629  13.651   8.600  0.00  0.00     0.032 A 
HETATM   32  C   UNK N   1      36.559  10.506   9.083  0.00  0.00     0.312 C 
HETATM   33  C   UNK N   1      38.420  11.097   7.483  0.00  0.00     0.044 A 
HETATM   34  N   UNK N   1      35.372  11.230   9.523  0.00  0.00     0.089 N 
HETATM   35  C   UNK N   1      34.446  10.232  10.027  0.00  0.00     0.310 C 
HETATM   36  C   UNK N   1      35.763  12.065  10.656  0.00  0.00     0.286 C 
HETATM   37  C   UNK N   1      39.345  12.012   6.977  0.00  0.00     0.048 A 
HETATM   38 Cl   UNK N   1      38.343   9.493   6.769  0.00  0.00    -0.084 Cl
HETATM   39  C   UNK N   1      39.448  13.285   7.532  0.00  0.00     0.036 A 
HETATM   40 Cl   UNK N   1      40.574  14.439   6.858  0.00  0.00    -0.084 Cl
ENDBRANCH  26  28
ENDBRANCH  19  22
ENDBRANCH  17  19
ENDBRANCH  16  17
ENDBRANCH  15  16
ENDBRANCH  14  15
ENDBRANCH  13  14
ENDBRANCH  12  13
ENDBRANCH  11  12
ENDBRANCH  10  11
ENDBRANCH   9  10
ENDBRANCH   5   9
ENDBRANCH   2   3
ENDBRANCH   1   2
BRANCH   1  41
HETATM   41  C   UNK N   1      22.470  14.953   3.704  0.00  0.00     0.021 C 
BRANCH  41  42
HETATM   42  C   UNK N   1      21.556  15.037   2.494  0.00  0.00     0.124 C 
BRANCH  42  43
HETATM   43  N   UNK N   1      21.208  16.405   2.246  0.00  0.00    -0.343 N 
HETATM   44  C   UNK N   1      20.300  16.763   1.303  0.00  0.00     0.316 C 
HETATM   45  O   UNK N   1      19.761  15.922   0.602  0.00  0.00    -0.247 OA
HETATM   46  N   UNK N   1      19.995  18.066   1.134  0.00  0.00    -0.341 N 
HETATM   47  H   UNK N   1      19.259  18.314   0.528  0.00  0.00     0.164 HD
HETATM   48  H   UNK N   1      21.643  17.109   2.779  0.00  0.00     0.164 HD
BRANCH  46  49
HETATM   49  C   UNK N   1      20.723  19.102   1.820  0.00  0.00     0.150 C 
BRANCH  49  50
HETATM   50  C   UNK N   1      19.836  19.751   2.886  0.00  0.00     0.187 C 
BRANCH  50  51
HETATM   51  O   UNK N   1      20.596  20.173   3.990  0.00  0.00    -0.387 OA
BRANCH  51  52
HETATM   52  C   UNK N   1      21.711  19.323   4.035  0.00  0.00     0.193 C 
BRANCH  52  53
HETATM   53  C   UNK N   1      21.752  18.465   5.310  0.00  0.00     0.193 C 
BRANCH  53  54
HETATM   54  O   UNK N   1      20.793  18.901   6.232  0.00  0.00    -0.387 OA
BRANCH  54  55
HETATM   55  C   UNK N   1      20.755  18.005   7.300  0.00  0.00     0.188 C 
BRANCH  55  56
HETATM   56  C   UNK N   1      20.754  16.599   6.708  0.00  0.00     0.158 C 
BRANCH  56  57
HETATM   57  N   UNK N   1      21.933  15.838   7.099  0.00  0.00    -0.313 N 
HETATM   58  H   UNK N   1      22.891  16.180   7.018  0.00  0.00     0.172 HD
BRANCH  57  59
HETATM   59  S   UNK N   1      21.493  14.236   7.739  0.00  0.00     0.258 S 
HETATM   60  O   UNK N   1      20.299  13.902   6.833  0.00  0.00    -0.201 OA
HETATM   61  O   UNK N   1      20.724  14.373   9.051  0.00  0.00    -0.201 OA
BRANCH  59  62
HETATM   62  C   UNK N   1      22.481  12.767   7.716  0.00  0.00     0.080 A 
HETATM   63  C   UNK N   1      23.062  12.213   8.863  0.00  0.00     0.025 A 
HETATM   64  C   UNK N   1      23.631  10.929   8.793  0.00  0.00     0.002 A 
HETATM   65  C   UNK N   1      23.564  10.194   7.595  0.00  0.00     0.008 A 
HETATM   66  C   UNK N   1      22.958  10.762   6.461  0.00  0.00    -0.046 A 
HETATM   67  C   UNK N   1      22.431  12.037   6.553  0.00  0.00     0.033 A 
BRANCH  66  68
HETATM   68  C   UNK N   1      22.718   9.980   5.190  0.00  0.00     0.080 C 
HETATM   69  C   UNK N   1      21.302   9.361   5.144  0.00  0.00     0.286 C 
HETATM   70  N   UNK N   1      20.349  10.374   4.711  0.00  0.00     0.089 N 
HETATM   71  C   UNK N   1      20.546  10.560   3.277  0.00  0.00     0.312 C 
HETATM   72  C   UNK N   1      19.008   9.858   4.918  0.00  0.00     0.310 C 
HETATM   73  C   UNK N   1      21.962  10.994   2.982  0.00  0.00    -0.001 A 
HETATM   74  C   UNK N   1      22.994  10.754   3.924  0.00  0.00    -0.037 A 
HETATM   75  C   UNK N   1      22.266  11.625   1.765  0.00  0.00     0.044 A 
HETATM   76  C   UNK N   1      24.295  11.182   3.648  0.00  0.00     0.032 A 
HETATM   77  C   UNK N   1      24.581  11.832   2.450  0.00  0.00     0.036 A 
HETATM   78  C   UNK N   1      23.574  12.041   1.506  0.00  0.00     0.048 A 
HETATM   79 Cl   UNK N   1      26.213  12.367   2.121  0.00  0.00    -0.084 Cl
HETATM   80 Cl   UNK N   1      21.029  11.890   0.544  0.00  0.00    -0.084 Cl
ENDBRANCH  66  68
ENDBRANCH  59  62
ENDBRANCH  57  59
ENDBRANCH  56  57
ENDBRANCH  55  56
ENDBRANCH  54  55
ENDBRANCH  53  54
ENDBRANCH  52  53
ENDBRANCH  51  52
ENDBRANCH  50  51
ENDBRANCH  49  50
ENDBRANCH  46  49
ENDBRANCH  42  43
ENDBRANCH  41  42
ENDBRANCH   1  41
TORSDOF 29
ENDMDL
MODEL 9
REMARK VINA RESULT:      -7.3      5.682     18.442
REMARK  29 active torsions:
REMARK  status: ('A' for Active; 'I' for Inactive)
REMARK    1  A    between atoms: C_12  and  C_14 
REMARK    2  A    between atoms: C_18  and  S_20 
REMARK    3  A    between atoms: S_20  and  N_23 
REMARK    4  A    between atoms: N_23  and  C_24 
REMARK    5  A    between atoms: C_24  and  C_25 
REMARK    6  A    between atoms: C_25  and  O_26 
REMARK    7  A    between atoms: O_26  and  C_27 
REMARK    8  A    between atoms: C_27  and  C_28 
REMARK    9  A    between atoms: C_28  and  O_29 
REMARK   10  A    between atoms: O_29  and  C_30 
REMARK   11  A    between atoms: C_30  and  C_31 
REMARK   12  A    between atoms: C_31  and  N_32 
REMARK       I    between atoms: N_32  and  C_33 
REMARK       I    between atoms: C_33  and  N_35 
REMARK   13  A    between atoms: N_35  and  C_36 
REMARK   14  A    between atoms: C_36  and  C_37 
REMARK   15  A    between atoms: C_37  and  C_38 
REMARK   16  A    between atoms: C_38  and  C_39 
REMARK   17  A    between atoms: C_39  and  N_40 
REMARK       I    between atoms: N_40  and  C_41 
REMARK       I    between atoms: C_41  and  N_43 
REMARK   18  A    between atoms: N_43  and  C_44 
REMARK   19  A    between atoms: C_44  and  C_45 
REMARK   20  A    between atoms: C_45  and  O_46 
REMARK   21  A    between atoms: O_46  and  C_47 
REMARK   22  A    between atoms: C_47  and  C_48 
REMARK   23  A    between atoms: C_48  and  O_49 
REMARK   24  A    between atoms: O_49  and  C_50 
REMARK   25  A    between atoms: C_50  and  C_51 
REMARK   26  A    between atoms: C_51  and  N_52 
REMARK   27  A    between atoms: N_52  and  S_53 
REMARK   28  A    between atoms: S_53  and  C_56 
REMARK   29  A    between atoms: C_62  and  C_60 
ROOT
HETATM    1  C   UNK N   1      26.857   1.626   8.681  0.00  0.00     0.021 C 
ENDROOT
BRANCH   1   2
HETATM    2  C   UNK N   1      25.529   2.288   8.269  0.00  0.00     0.124 C 
BRANCH   2   3
HETATM    3  N   UNK N   1      25.468   2.649   6.867  0.00  0.00    -0.343 N 
HETATM    4  C   UNK N   1      24.873   3.785   6.429  0.00  0.00     0.316 C 
HETATM    5  N   UNK N   1      24.312   4.648   7.316  0.00  0.00    -0.341 N 
HETATM    6  O   UNK N   1      24.841   4.021   5.230  0.00  0.00    -0.247 OA
HETATM    7  H   UNK N   1      24.323   4.417   8.273  0.00  0.00     0.164 HD
HETATM    8  H   UNK N   1      25.875   2.045   6.205  0.00  0.00     0.164 HD
BRANCH   5   9
HETATM    9  C   UNK N   1      23.700   5.886   6.909  0.00  0.00     0.150 C 
BRANCH   9  10
HETATM   10  C   UNK N   1      24.688   7.018   7.127  0.00  0.00     0.187 C 
BRANCH  10  11
HETATM   11  O   UNK N   1      24.009   8.130   7.627  0.00  0.00    -0.387 OA
BRANCH  11  12
HETATM   12  C   UNK N   1      24.172   9.130   6.666  0.00  0.00     0.193 C 
BRANCH  12  13
HETATM   13  C   UNK N   1      23.282  10.311   7.013  0.00  0.00     0.193 C 
BRANCH  13  14
HETATM   14  O   UNK N   1      24.055  11.457   7.232  0.00  0.00    -0.387 OA
BRANCH  14  15
HETATM   15  C   UNK N   1      23.951  11.717   8.601  0.00  0.00     0.188 C 
BRANCH  15  16
HETATM   16  C   UNK N   1      23.662  13.191   8.821  0.00  0.00     0.158 C 
BRANCH  16  17
HETATM   17  N   UNK N   1      22.573  13.343   9.777  0.00  0.00    -0.313 N 
HETATM   18  H   UNK N   1      22.663  13.216  10.784  0.00  0.00     0.172 HD
BRANCH  17  19
HETATM   19  S   UNK N   1      21.065  13.783   8.942  0.00  0.00     0.258 S 
HETATM   20  O   UNK N   1      19.916  13.490   9.924  0.00  0.00    -0.201 OA
HETATM   21  O   UNK N   1      20.853  12.682   7.893  0.00  0.00    -0.201 OA
BRANCH  19  22
HETATM   22  C   UNK N   1      20.916  15.418   8.231  0.00  0.00     0.080 A 
HETATM   23  C   UNK N   1      20.278  16.458   8.914  0.00  0.00     0.025 A 
HETATM   24  C   UNK N   1      20.154  17.715   8.308  0.00  0.00     0.002 A 
HETATM   25  C   UNK N   1      20.650  17.924   7.013  0.00  0.00     0.008 A 
HETATM   26  C   UNK N   1      21.309  16.889   6.330  0.00  0.00    -0.046 A 
HETATM   27  C   UNK N   1      21.431  15.643   6.959  0.00  0.00     0.033 A 
BRANCH  26  28
HETATM   28  C   UNK N   1      21.768  17.081   4.891  0.00  0.00     0.080 C 
HETATM   29  C   UNK N   1      23.242  17.462   4.728  0.00  0.00    -0.037 A 
HETATM   30  C   UNK N   1      23.615  18.586   3.958  0.00  0.00    -0.001 A 
HETATM   31  C   UNK N   1      24.242  16.715   5.369  0.00  0.00     0.032 A 
HETATM   32  C   UNK N   1      22.554  19.385   3.264  0.00  0.00     0.312 C 
HETATM   33  C   UNK N   1      24.970  18.944   3.845  0.00  0.00     0.044 A 
HETATM   34  N   UNK N   1      21.334  19.390   4.062  0.00  0.00     0.089 N 
HETATM   35  C   UNK N   1      20.365  20.181   3.326  0.00  0.00     0.310 C 
HETATM   36  C   UNK N   1      20.830  18.020   4.102  0.00  0.00     0.286 C 
HETATM   37  C   UNK N   1      25.944  18.201   4.515  0.00  0.00     0.048 A 
HETATM   38 Cl   UNK N   1      25.476  20.320   2.877  0.00  0.00    -0.084 Cl
HETATM   39  C   UNK N   1      25.581  17.092   5.276  0.00  0.00     0.036 A 
HETATM   40 Cl   UNK N   1      26.804  16.201   6.150  0.00  0.00    -0.084 Cl
ENDBRANCH  26  28
ENDBRANCH  19  22
ENDBRANCH  17  19
ENDBRANCH  16  17
ENDBRANCH  15  16
ENDBRANCH  14  15
ENDBRANCH  13  14
ENDBRANCH  12  13
ENDBRANCH  11  12
ENDBRANCH  10  11
ENDBRANCH   9  10
ENDBRANCH   5   9
ENDBRANCH   2   3
ENDBRANCH   1   2
BRANCH   1  41
HETATM   41  C   UNK N   1      27.587   2.295   9.844  0.00  0.00     0.021 C 
BRANCH  41  42
HETATM   42  C   UNK N   1      26.876   3.580  10.231  0.00  0.00     0.124 C 
BRANCH  42  43
HETATM   43  N   UNK N   1      27.796   4.678  10.171  0.00  0.00    -0.343 N 
HETATM   44  C   UNK N   1      27.943   5.442   9.059  0.00  0.00     0.316 C 
HETATM   45  O   UNK N   1      27.307   5.200   8.045  0.00  0.00    -0.247 OA
HETATM   46  N   UNK N   1      28.807   6.478   9.072  0.00  0.00    -0.341 N 
HETATM   47  H   UNK N   1      28.831   7.094   8.305  0.00  0.00     0.164 HD
HETATM   48  H   UNK N   1      28.341   4.885  10.964  0.00  0.00     0.164 HD
BRANCH  46  49
HETATM   49  C   UNK N   1      29.695   6.699  10.184  0.00  0.00     0.150 C 
BRANCH  49  50
HETATM   50  C   UNK N   1      31.116   6.259   9.817  0.00  0.00     0.187 C 
BRANCH  50  51
HETATM   51  O   UNK N   1      32.075   7.075  10.441  0.00  0.00    -0.387 OA
BRANCH  51  52
HETATM   52  C   UNK N   1      32.035   8.301   9.762  0.00  0.00     0.193 C 
BRANCH  52  53
HETATM   53  C   UNK N   1      33.404   9.000   9.716  0.00  0.00     0.193 C 
BRANCH  53  54
HETATM   54  O   UNK N   1      33.445  10.070  10.619  0.00  0.00    -0.387 OA
BRANCH  54  55
HETATM   55  C   UNK N   1      34.082   9.650  11.787  0.00  0.00     0.188 C 
BRANCH  55  56
HETATM   56  C   UNK N   1      34.121  10.846  12.733  0.00  0.00     0.158 C 
BRANCH  56  57
HETATM   57  N   UNK N   1      34.558  10.472  14.072  0.00  0.00    -0.313 N 
HETATM   58  H   UNK N   1      34.407   9.554  14.490  0.00  0.00     0.172 HD
BRANCH  57  59
HETATM   59  S   UNK N   1      35.391  11.818  14.886  0.00  0.00     0.258 S 
HETATM   60  O   UNK N   1      34.534  12.997  14.404  0.00  0.00    -0.201 OA
HETATM   61  O   UNK N   1      36.676  12.182  14.146  0.00  0.00    -0.201 OA
BRANCH  59  62
HETATM   62  C   UNK N   1      35.550  12.080  16.630  0.00  0.00     0.080 A 
HETATM   63  C   UNK N   1      35.171  13.268  17.267  0.00  0.00     0.025 A 
HETATM   64  C   UNK N   1      35.113  13.306  18.671  0.00  0.00     0.002 A 
HETATM   65  C   UNK N   1      35.381  12.143  19.418  0.00  0.00     0.008 A 
HETATM   66  C   UNK N   1      35.740  10.956  18.757  0.00  0.00    -0.046 A 
HETATM   67  C   UNK N   1      35.814  10.957  17.376  0.00  0.00     0.033 A 
BRANCH  66  68
HETATM   68  C   UNK N   1      35.895   9.638  19.480  0.00  0.00     0.080 C 
HETATM   69  C   UNK N   1      37.226   9.555  20.262  0.00  0.00     0.286 C 
HETATM   70  N   UNK N   1      37.077  10.245  21.537  0.00  0.00     0.089 N 
HETATM   71  C   UNK N   1      36.272   9.384  22.396  0.00  0.00     0.312 C 
HETATM   72  C   UNK N   1      38.391  10.379  22.139  0.00  0.00     0.310 C 
HETATM   73  C   UNK N   1      34.923   9.113  21.771  0.00  0.00    -0.001 A 
HETATM   74  C   UNK N   1      34.736   9.281  20.376  0.00  0.00    -0.037 A 
HETATM   75  C   UNK N   1      33.852   8.680  22.569  0.00  0.00     0.044 A 
HETATM   76  C   UNK N   1      33.477   9.050  19.815  0.00  0.00     0.032 A 
HETATM   77  C   UNK N   1      32.413   8.647  20.619  0.00  0.00     0.036 A 
HETATM   78  C   UNK N   1      32.602   8.449  21.988  0.00  0.00     0.048 A 
HETATM   79 Cl   UNK N   1      30.842   8.367  19.904  0.00  0.00    -0.084 Cl
HETATM   80 Cl   UNK N   1      34.056   8.403  24.293  0.00  0.00    -0.084 Cl
ENDBRANCH  66  68
ENDBRANCH  59  62
ENDBRANCH  57  59
ENDBRANCH  56  57
ENDBRANCH  55  56
ENDBRANCH  54  55
ENDBRANCH  53  54
ENDBRANCH  52  53
ENDBRANCH  51  52
ENDBRANCH  50  51
ENDBRANCH  49  50
ENDBRANCH  46  49
ENDBRANCH  42  43
ENDBRANCH  41  42
ENDBRANCH   1  41
TORSDOF 29
ENDMDL
