MODEL 1
REMARK VINA RESULT:      -8.3      0.000      0.000
REMARK  4 active torsions:
REMARK  status: ('A' for Active; 'I' for Inactive)
REMARK    1  A    between atoms: C_6  and  C_7 
REMARK    2  A    between atoms: C_7  and  O_9 
REMARK    3  A    between atoms: N_16  and  C_23 
REMARK    4  A    between atoms: C_17  and  C_18 
ROOT
HETATM    1  C   UNK N   1      35.934  13.624  14.253  0.00  0.00     0.053 A 
HETATM    2  C   UNK N   1      35.111  12.646  14.784  0.00  0.00     0.033 A 
HETATM    3  C   UNK N   1      34.897  12.589  16.152  0.00  0.00     0.027 A 
HETATM    4  C   UNK N   1      35.529  13.506  17.000  0.00  0.00     0.066 A 
HETATM    5  C   UNK N   1      36.392  14.483  16.475  0.00  0.00     0.057 A 
HETATM    6  C   UNK N   1      36.583  14.539  15.101  0.00  0.00     0.056 A 
HETATM    7 Cl   UNK N   1      37.241  15.641  17.499  0.00  0.00    -0.083 Cl
HETATM    8  C   UNK N   1      35.240  13.442  18.396  0.00  0.00     0.101 C 
HETATM    9  N   UNK N   1      34.979  13.354  19.518  0.00  0.00    -0.191 NA
ENDROOT
BRANCH   1  10
HETATM   10  N   UNK N   1      36.203  13.656  12.878  0.00  0.00    -0.286 N 
HETATM   11  N   UNK N   1      35.780  14.711  12.153  0.00  0.00    -0.301 N 
HETATM   12  C   UNK N   1      36.331  14.745  11.028  0.00  0.00     0.043 A 
ATOM     13  HN  UNK N   1      35.097  15.395  12.479  1.00  0.00     0.187 HD
HETATM   14  C   UNK N   1      37.283  13.600  10.814  0.00  0.00     0.063 A 
HETATM   15  C   UNK N   1      35.625  15.380   9.963  0.00  0.00    -0.005 A 
HETATM   16  C   UNK N   1      37.178  12.950   9.428  0.00  0.00     0.018 C 
HETATM   17  C   UNK N   1      37.120  12.799  12.131  0.00  0.00     0.122 A 
HETATM   18  C   UNK N   1      35.799  13.162   8.792  0.00  0.00     0.040 C 
HETATM   19  C   UNK N   1      35.381  14.614   8.825  0.00  0.00    -0.045 A 
HETATM   20  C   UNK N   1      34.671  15.171   7.772  0.00  0.00     0.026 A 
HETATM   21  C   UNK N   1      34.216  16.496   7.859  0.00  0.00     0.038 A 
HETATM   22  C   UNK N   1      34.412  17.232   9.037  0.00  0.00     0.019 A 
HETATM   23  C   UNK N   1      35.101  16.666  10.102  0.00  0.00     0.015 A 
BRANCH  21  24
HETATM   24  C   UNK N   1      33.615  17.140   6.691  0.00  0.00     0.176 C 
HETATM   25  O   UNK N   1      34.232  17.995   6.076  0.00  0.00    -0.646 OA
BRANCH  24  26
HETATM   26  O   UNK N   1      32.345  16.854   6.344  0.00  0.00    -0.773 OA
HETATM   27  H   UNK N   1      31.981  16.013   6.541  0.00  0.00     0.167 HD
ENDBRANCH  24  26
ENDBRANCH  21  24
BRANCH  17  28
HETATM   28  C   UNK N   1      36.846  11.270  12.033  0.00  0.00     0.011 C 
HETATM   29  C   UNK N   1      35.428  10.742  11.909  0.00  0.00     0.007 C 
HETATM   30  C   UNK N   1      35.549   9.295  12.367  0.00  0.00     0.000 C 
HETATM   31  C   UNK N   1      36.608   9.304  13.454  0.00  0.00     0.000 C 
HETATM   32  C   UNK N   1      37.481  10.515  13.182  0.00  0.00     0.007 C 
ENDBRANCH  17  28
ENDBRANCH   1  10
TORSDOF 4
ENDMDL
MODEL 2
REMARK VINA RESULT:      -8.2      3.256      5.557
REMARK  4 active torsions:
REMARK  status: ('A' for Active; 'I' for Inactive)
REMARK    1  A    between atoms: C_6  and  C_7 
REMARK    2  A    between atoms: C_7  and  O_9 
REMARK    3  A    between atoms: N_16  and  C_23 
REMARK    4  A    between atoms: C_17  and  C_18 
ROOT
HETATM    1  C   UNK N   1      34.862  15.230  10.436  0.00  0.00     0.053 A 
HETATM    2  C   UNK N   1      35.590  15.992  11.334  0.00  0.00     0.033 A 
HETATM    3  C   UNK N   1      36.088  15.411  12.489  0.00  0.00     0.027 A 
HETATM    4  C   UNK N   1      35.839  14.062  12.760  0.00  0.00     0.066 A 
HETATM    5  C   UNK N   1      35.073  13.287  11.872  0.00  0.00     0.057 A 
HETATM    6  C   UNK N   1      34.595  13.877  10.710  0.00  0.00     0.056 A 
HETATM    7 Cl   UNK N   1      34.700  11.590  12.179  0.00  0.00    -0.083 Cl
HETATM    8  C   UNK N   1      36.414  13.493  13.936  0.00  0.00     0.101 C 
HETATM    9  N   UNK N   1      36.897  13.074  14.898  0.00  0.00    -0.191 NA
ENDROOT
BRANCH   1  10
HETATM   10  N   UNK N   1      34.304  15.820   9.293  0.00  0.00    -0.286 N 
HETATM   11  N   UNK N   1      33.201  16.583   9.423  0.00  0.00    -0.301 N 
HETATM   12  C   UNK N   1      32.991  17.264   8.393  0.00  0.00     0.043 A 
ATOM     13  HN  UNK N   1      32.611  16.603  10.255  1.00  0.00     0.187 HD
HETATM   14  C   UNK N   1      34.015  17.022   7.318  0.00  0.00     0.063 A 
HETATM   15  C   UNK N   1      31.645  17.647   8.114  0.00  0.00    -0.005 A 
HETATM   16  C   UNK N   1      33.422  16.881   5.910  0.00  0.00     0.018 C 
HETATM   17  C   UNK N   1      34.905  15.931   7.966  0.00  0.00     0.122 A 
HETATM   18  C   UNK N   1      31.960  16.423   5.940  0.00  0.00     0.040 C 
HETATM   19  C   UNK N   1      31.125  17.263   6.879  0.00  0.00    -0.045 A 
HETATM   20  C   UNK N   1      29.812  17.582   6.568  0.00  0.00     0.026 A 
HETATM   21  C   UNK N   1      29.027  18.289   7.491  0.00  0.00     0.038 A 
HETATM   22  C   UNK N   1      29.543  18.610   8.755  0.00  0.00     0.019 A 
HETATM   23  C   UNK N   1      30.850  18.269   9.077  0.00  0.00     0.015 A 
BRANCH  21  24
HETATM   24  C   UNK N   1      27.700  18.770   7.104  0.00  0.00     0.176 C 
HETATM   25  O   UNK N   1      27.195  18.403   6.056  0.00  0.00    -0.646 OA
BRANCH  24  26
HETATM   26  O   UNK N   1      27.070  19.689   7.863  0.00  0.00    -0.773 OA
HETATM   27  H   UNK N   1      27.369  19.865   8.734  0.00  0.00     0.167 HD
ENDBRANCH  24  26
ENDBRANCH  21  24
BRANCH  17  28
HETATM   28  C   UNK N   1      35.212  14.646   7.144  0.00  0.00     0.011 C 
HETATM   29  C   UNK N   1      34.222  13.495   7.106  0.00  0.00     0.007 C 
HETATM   30  C   UNK N   1      35.078  12.308   6.683  0.00  0.00     0.000 C 
HETATM   31  C   UNK N   1      36.437  12.546   7.315  0.00  0.00     0.000 C 
HETATM   32  C   UNK N   1      36.549  14.045   7.525  0.00  0.00     0.007 C 
ENDBRANCH  17  28
ENDBRANCH   1  10
TORSDOF 4
ENDMDL
MODEL 3
REMARK VINA RESULT:      -8.2     12.653     14.598
REMARK  4 active torsions:
REMARK  status: ('A' for Active; 'I' for Inactive)
REMARK    1  A    between atoms: C_6  and  C_7 
REMARK    2  A    between atoms: C_7  and  O_9 
REMARK    3  A    between atoms: N_16  and  C_23 
REMARK    4  A    between atoms: C_17  and  C_18 
ROOT
HETATM    1  C   UNK N   1      23.117  13.290   8.353  0.00  0.00     0.053 A 
HETATM    2  C   UNK N   1      24.308  13.055   9.017  0.00  0.00     0.033 A 
HETATM    3  C   UNK N   1      24.293  12.626  10.335  0.00  0.00     0.027 A 
HETATM    4  C   UNK N   1      23.076  12.450  11.002  0.00  0.00     0.066 A 
HETATM    5  C   UNK N   1      21.861  12.716  10.347  0.00  0.00     0.057 A 
HETATM    6  C   UNK N   1      21.891  13.129   9.022  0.00  0.00     0.056 A 
HETATM    7 Cl   UNK N   1      20.299  12.544  11.149  0.00  0.00    -0.083 Cl
HETATM    8  C   UNK N   1      23.106  11.959  12.341  0.00  0.00     0.101 C 
HETATM    9  N   UNK N   1      23.176  11.560  13.423  0.00  0.00    -0.191 NA
ENDROOT
BRANCH   1  10
HETATM   10  N   UNK N   1      23.121  13.779   7.039  0.00  0.00    -0.286 N 
HETATM   11  N   UNK N   1      22.817  15.073   6.822  0.00  0.00    -0.301 N 
HETATM   12  C   UNK N   1      23.137  15.432   5.666  0.00  0.00     0.043 A 
ATOM     13  HN  UNK N   1      22.379  15.684   7.513  1.00  0.00     0.187 HD
HETATM   14  C   UNK N   1      23.750  14.319   4.862  0.00  0.00     0.063 A 
HETATM   15  C   UNK N   1      22.404  16.506   5.078  0.00  0.00    -0.005 A 
HETATM   16  C   UNK N   1      23.241  14.238   3.417  0.00  0.00     0.018 C 
HETATM   17  C   UNK N   1      23.663  13.127   5.849  0.00  0.00     0.122 A 
HETATM   18  C   UNK N   1      21.851  14.863   3.256  0.00  0.00     0.040 C 
HETATM   19  C   UNK N   1      21.783  16.248   3.857  0.00  0.00    -0.045 A 
HETATM   20  C   UNK N   1      21.030  17.246   3.255  0.00  0.00     0.026 A 
HETATM   21  C   UNK N   1      20.910  18.499   3.874  0.00  0.00     0.038 A 
HETATM   22  C   UNK N   1      21.486  18.722   5.133  0.00  0.00     0.019 A 
HETATM   23  C   UNK N   1      22.218  17.715   5.749  0.00  0.00     0.015 A 
BRANCH  21  24
HETATM   24  C   UNK N   1      20.259  19.603   3.167  0.00  0.00     0.176 C 
HETATM   25  O   UNK N   1      20.590  20.756   3.391  0.00  0.00    -0.646 OA
BRANCH  24  26
HETATM   26  O   UNK N   1      19.232  19.354   2.331  0.00  0.00    -0.773 OA
HETATM   27  H   UNK N   1      19.237  18.585   1.795  0.00  0.00     0.167 HD
ENDBRANCH  24  26
ENDBRANCH  21  24
BRANCH  17  28
HETATM   28  C   UNK N   1      23.039  11.794   5.343  0.00  0.00     0.011 C 
HETATM   29  C   UNK N   1      21.549  11.535   5.478  0.00  0.00     0.007 C 
HETATM   30  C   UNK N   1      21.446  10.018   5.380  0.00  0.00     0.000 C 
HETATM   31  C   UNK N   1      22.702   9.485   6.045  0.00  0.00     0.000 C 
HETATM   32  C   UNK N   1      23.737  10.589   5.939  0.00  0.00     0.007 C 
ENDBRANCH  17  28
ENDBRANCH   1  10
TORSDOF 4
ENDMDL
MODEL 4
REMARK VINA RESULT:      -8.1      4.742      8.064
REMARK  4 active torsions:
REMARK  status: ('A' for Active; 'I' for Inactive)
REMARK    1  A    between atoms: C_6  and  C_7 
REMARK    2  A    between atoms: C_7  and  O_9 
REMARK    3  A    between atoms: N_16  and  C_23 
REMARK    4  A    between atoms: C_17  and  C_18 
ROOT
HETATM    1  C   UNK N   1      34.953  14.439  11.325  0.00  0.00     0.053 A 
HETATM    2  C   UNK N   1      35.730  15.547  11.614  0.00  0.00     0.033 A 
HETATM    3  C   UNK N   1      35.685  16.659  10.789  0.00  0.00     0.027 A 
HETATM    4  C   UNK N   1      34.871  16.656   9.651  0.00  0.00     0.066 A 
HETATM    5  C   UNK N   1      34.103  15.524   9.329  0.00  0.00     0.057 A 
HETATM    6  C   UNK N   1      34.144  14.424  10.174  0.00  0.00     0.056 A 
HETATM    7 Cl   UNK N   1      33.085  15.452   7.890  0.00  0.00    -0.083 Cl
HETATM    8  C   UNK N   1      34.817  17.841   8.858  0.00  0.00     0.101 C 
HETATM    9  N   UNK N   1      34.803  18.820   8.244  0.00  0.00    -0.191 NA
ENDROOT
BRANCH   1  10
HETATM   10  N   UNK N   1      35.034  13.288  12.120  0.00  0.00    -0.286 N 
HETATM   11  N   UNK N   1      34.797  13.388  13.442  0.00  0.00    -0.301 N 
HETATM   12  C   UNK N   1      34.621  12.263  13.964  0.00  0.00     0.043 A 
ATOM     13  HN  UNK N   1      34.766  14.270  13.955  1.00  0.00     0.187 HD
HETATM   14  C   UNK N   1      34.738  11.139  12.971  0.00  0.00     0.063 A 
HETATM   15  C   UNK N   1      34.937  12.116  15.347  0.00  0.00    -0.005 A 
HETATM   16  C   UNK N   1      35.541   9.936  13.481  0.00  0.00     0.018 C 
HETATM   17  C   UNK N   1      35.102  11.899  11.670  0.00  0.00     0.122 A 
HETATM   18  C   UNK N   1      36.529  10.325  14.586  0.00  0.00     0.040 C 
HETATM   19  C   UNK N   1      35.864  11.129  15.679  0.00  0.00    -0.045 A 
HETATM   20  C   UNK N   1      36.232  10.964  17.006  0.00  0.00     0.026 A 
HETATM   21  C   UNK N   1      35.665  11.781  17.995  0.00  0.00     0.038 A 
HETATM   22  C   UNK N   1      34.784  12.813  17.638  0.00  0.00     0.019 A 
HETATM   23  C   UNK N   1      34.435  12.996  16.307  0.00  0.00     0.015 A 
BRANCH  21  24
HETATM   24  C   UNK N   1      35.922  11.502  19.409  0.00  0.00     0.176 C 
HETATM   25  O   UNK N   1      36.132  10.359  19.781  0.00  0.00    -0.646 OA
BRANCH  24  26
HETATM   26  O   UNK N   1      35.840  12.495  20.316  0.00  0.00    -0.773 OA
HETATM   27  H   UNK N   1      36.602  12.991  20.543  0.00  0.00     0.167 HD
ENDBRANCH  24  26
ENDBRANCH  21  24
BRANCH  17  28
HETATM   28  C   UNK N   1      36.331  11.409  10.849  0.00  0.00     0.011 C 
HETATM   29  C   UNK N   1      37.696  12.045  11.043  0.00  0.00     0.007 C 
HETATM   30  C   UNK N   1      38.435  11.689   9.760  0.00  0.00     0.000 C 
HETATM   31  C   UNK N   1      37.379  11.704   8.670  0.00  0.00     0.000 C 
HETATM   32  C   UNK N   1      36.055  11.439   9.360  0.00  0.00     0.007 C 
ENDBRANCH  17  28
ENDBRANCH   1  10
TORSDOF 4
ENDMDL
MODEL 5
REMARK VINA RESULT:      -7.7      1.771      2.064
REMARK  4 active torsions:
REMARK  status: ('A' for Active; 'I' for Inactive)
REMARK    1  A    between atoms: C_6  and  C_7 
REMARK    2  A    between atoms: C_7  and  O_9 
REMARK    3  A    between atoms: N_16  and  C_23 
REMARK    4  A    between atoms: C_17  and  C_18 
ROOT
HETATM    1  C   UNK N   1      36.020  12.174  14.563  0.00  0.00     0.053 A 
HETATM    2  C   UNK N   1      35.173  12.953  15.333  0.00  0.00     0.033 A 
HETATM    3  C   UNK N   1      34.932  12.614  16.655  0.00  0.00     0.027 A 
HETATM    4  C   UNK N   1      35.527  11.475  17.208  0.00  0.00     0.066 A 
HETATM    5  C   UNK N   1      36.362  10.658  16.426  0.00  0.00     0.057 A 
HETATM    6  C   UNK N   1      36.608  11.018  15.109  0.00  0.00     0.056 A 
HETATM    7 Cl   UNK N   1      37.111   9.192  17.060  0.00  0.00    -0.083 Cl
HETATM    8  C   UNK N   1      35.291  11.194  18.586  0.00  0.00     0.101 C 
HETATM    9  N   UNK N   1      35.073  11.002  19.705  0.00  0.00    -0.191 NA
ENDROOT
BRANCH   1  10
HETATM   10  N   UNK N   1      36.225  12.473  13.209  0.00  0.00    -0.286 N 
HETATM   11  N   UNK N   1      36.076  13.745  12.791  0.00  0.00    -0.301 N 
HETATM   12  C   UNK N   1      36.563  13.913  11.649  0.00  0.00     0.043 A 
ATOM     13  HN  UNK N   1      35.622  14.479  13.335  1.00  0.00     0.187 HD
HETATM   14  C   UNK N   1      37.155  12.652  11.080  0.00  0.00     0.063 A 
HETATM   15  C   UNK N   1      36.012  14.949  10.838  0.00  0.00    -0.005 A 
HETATM   16  C   UNK N   1      36.813  12.412   9.604  0.00  0.00     0.018 C 
HETATM   17  C   UNK N   1      36.837  11.621  12.193  0.00  0.00     0.122 A 
HETATM   18  C   UNK N   1      35.519  13.118   9.186  0.00  0.00     0.040 C 
HETATM   19  C   UNK N   1      35.516  14.575   9.591  0.00  0.00    -0.045 A 
HETATM   20  C   UNK N   1      34.940  15.536   8.773  0.00  0.00     0.026 A 
HETATM   21  C   UNK N   1      34.870  16.869   9.206  0.00  0.00     0.038 A 
HETATM   22  C   UNK N   1      35.313  17.218  10.490  0.00  0.00     0.019 A 
HETATM   23  C   UNK N   1      35.867  16.251  11.319  0.00  0.00     0.015 A 
BRANCH  21  24
HETATM   24  C   UNK N   1      34.417  17.913   8.285  0.00  0.00     0.176 C 
HETATM   25  O   UNK N   1      34.958  19.007   8.283  0.00  0.00    -0.646 OA
BRANCH  24  26
HETATM   26  O   UNK N   1      33.346  17.696   7.498  0.00  0.00    -0.773 OA
HETATM   27  H   UNK N   1      32.556  18.183   7.633  0.00  0.00     0.167 HD
ENDBRANCH  24  26
ENDBRANCH  21  24
BRANCH  17  28
HETATM   28  C   UNK N   1      36.150  10.285  11.785  0.00  0.00     0.011 C 
HETATM   29  C   UNK N   1      34.673  10.059  12.053  0.00  0.00     0.007 C 
HETATM   30  C   UNK N   1      34.536   8.543  12.015  0.00  0.00     0.000 C 
HETATM   31  C   UNK N   1      35.834   8.006  12.589  0.00  0.00     0.000 C 
HETATM   32  C   UNK N   1      36.875   9.086  12.361  0.00  0.00     0.007 C 
ENDBRANCH  17  28
ENDBRANCH   1  10
TORSDOF 4
ENDMDL
MODEL 6
REMARK VINA RESULT:      -7.1     21.975     24.561
REMARK  4 active torsions:
REMARK  status: ('A' for Active; 'I' for Inactive)
REMARK    1  A    between atoms: C_6  and  C_7 
REMARK    2  A    between atoms: C_7  and  O_9 
REMARK    3  A    between atoms: N_16  and  C_23 
REMARK    4  A    between atoms: C_17  and  C_18 
ROOT
HETATM    1  C   UNK N   1      26.351  24.303  -7.066  0.00  0.00     0.053 A 
HETATM    2  C   UNK N   1      25.730  23.992  -5.869  0.00  0.00     0.033 A 
HETATM    3  C   UNK N   1      25.558  24.971  -4.903  0.00  0.00     0.027 A 
HETATM    4  C   UNK N   1      26.030  26.269  -5.128  0.00  0.00     0.066 A 
HETATM    5  C   UNK N   1      26.691  26.589  -6.326  0.00  0.00     0.057 A 
HETATM    6  C   UNK N   1      26.840  25.603  -7.292  0.00  0.00     0.056 A 
HETATM    7 Cl   UNK N   1      27.336  28.198  -6.649  0.00  0.00    -0.083 Cl
HETATM    8  C   UNK N   1      25.787  27.257  -4.127  0.00  0.00     0.101 C 
HETATM    9  N   UNK N   1      25.569  28.025  -3.292  0.00  0.00    -0.191 NA
ENDROOT
BRANCH   1  10
HETATM   10  N   UNK N   1      26.581  23.308  -8.026  0.00  0.00    -0.286 N 
HETATM   11  N   UNK N   1      27.344  22.247  -7.698  0.00  0.00    -0.301 N 
HETATM   12  C   UNK N   1      27.226  21.322  -8.533  0.00  0.00     0.043 A 
ATOM     13  HN  UNK N   1      27.943  22.204  -6.873  1.00  0.00     0.187 HD
HETATM   14  C   UNK N   1      26.286  21.669  -9.655  0.00  0.00     0.063 A 
HETATM   15  C   UNK N   1      28.324  20.423  -8.687  0.00  0.00    -0.005 A 
HETATM   16  C   UNK N   1      26.793  21.260 -11.044  0.00  0.00     0.018 C 
HETATM   17  C   UNK N   1      25.892  23.125  -9.300  0.00  0.00     0.122 A 
HETATM   18  C   UNK N   1      28.320  21.150 -11.094  0.00  0.00     0.040 C 
HETATM   19  C   UNK N   1      28.861  20.300  -9.967  0.00  0.00    -0.045 A 
HETATM   20  C   UNK N   1      29.949  19.464 -10.169  0.00  0.00     0.026 A 
HETATM   21  C   UNK N   1      30.490  18.750  -9.089  0.00  0.00     0.038 A 
HETATM   22  C   UNK N   1      29.981  18.935  -7.795  0.00  0.00     0.019 A 
HETATM   23  C   UNK N   1      28.907  19.791  -7.588  0.00  0.00     0.015 A 
BRANCH  21  24
HETATM   24  C   UNK N   1      31.528  17.744  -9.325  0.00  0.00     0.176 C 
HETATM   25  O   UNK N   1      32.696  17.999  -9.083  0.00  0.00    -0.646 OA
BRANCH  24  26
HETATM   26  O   UNK N   1      31.205  16.566  -9.892  0.00  0.00    -0.773 OA
HETATM   27  H   UNK N   1      31.518  15.764  -9.523  0.00  0.00     0.167 HD
ENDBRANCH  24  26
ENDBRANCH  21  24
BRANCH  17  28
HETATM   28  C   UNK N   1      26.009  24.211 -10.409  0.00  0.00     0.011 C 
HETATM   29  C   UNK N   1      27.303  24.981 -10.606  0.00  0.00     0.007 C 
HETATM   30  C   UNK N   1      26.859  26.230 -11.356  0.00  0.00     0.000 C 
HETATM   31  C   UNK N   1      25.479  26.554 -10.816  0.00  0.00     0.000 C 
HETATM   32  C   UNK N   1      24.911  25.247 -10.295  0.00  0.00     0.007 C 
ENDBRANCH  17  28
ENDBRANCH   1  10
TORSDOF 4
ENDMDL
MODEL 7
REMARK VINA RESULT:      -7.1      1.809      2.361
REMARK  4 active torsions:
REMARK  status: ('A' for Active; 'I' for Inactive)
REMARK    1  A    between atoms: C_6  and  C_7 
REMARK    2  A    between atoms: C_7  and  O_9 
REMARK    3  A    between atoms: N_16  and  C_23 
REMARK    4  A    between atoms: C_17  and  C_18 
ROOT
HETATM    1  C   UNK N   1      36.007  13.317  12.948  0.00  0.00     0.053 A 
HETATM    2  C   UNK N   1      36.654  14.006  13.959  0.00  0.00     0.033 A 
HETATM    3  C   UNK N   1      36.373  13.717  15.285  0.00  0.00     0.027 A 
HETATM    4  C   UNK N   1      35.420  12.744  15.604  0.00  0.00     0.066 A 
HETATM    5  C   UNK N   1      34.732  12.060  14.586  0.00  0.00     0.057 A 
HETATM    6  C   UNK N   1      35.037  12.348  13.263  0.00  0.00     0.056 A 
HETATM    7 Cl   UNK N   1      33.497  10.849  14.930  0.00  0.00    -0.083 Cl
HETATM    8  C   UNK N   1      35.199  12.443  16.981  0.00  0.00     0.101 C 
HETATM    9  N   UNK N   1      35.050  12.231  18.107  0.00  0.00    -0.191 NA
ENDROOT
BRANCH   1  10
HETATM   10  N   UNK N   1      36.241  13.640  11.605  0.00  0.00    -0.286 N 
HETATM   11  N   UNK N   1      35.569  14.670  11.054  0.00  0.00    -0.301 N 
HETATM   12  C   UNK N   1      36.080  15.021   9.965  0.00  0.00     0.043 A 
ATOM     13  HN  UNK N   1      34.748  15.109  11.471  1.00  0.00     0.187 HD
HETATM   14  C   UNK N   1      37.274  14.187   9.589  0.00  0.00     0.063 A 
HETATM   15  C   UNK N   1      35.228  15.640   9.002  0.00  0.00    -0.005 A 
HETATM   16  C   UNK N   1      37.306  13.771   8.113  0.00  0.00     0.018 C 
HETATM   17  C   UNK N   1      37.324  13.161  10.751  0.00  0.00     0.122 A 
HETATM   18  C   UNK N   1      35.908  13.753   7.485  0.00  0.00     0.040 C 
HETATM   19  C   UNK N   1      35.157  15.038   7.747  0.00  0.00    -0.045 A 
HETATM   20  C   UNK N   1      34.320  15.580   6.782  0.00  0.00     0.026 A 
HETATM   21  C   UNK N   1      33.565  16.725   7.076  0.00  0.00     0.038 A 
HETATM   22  C   UNK N   1      33.597  17.280   8.364  0.00  0.00     0.019 A 
HETATM   23  C   UNK N   1      34.415  16.723   9.338  0.00  0.00     0.015 A 
BRANCH  21  24
HETATM   24  C   UNK N   1      32.812  17.395   6.014  0.00  0.00     0.176 C 
HETATM   25  O   UNK N   1      31.593  17.334   5.994  0.00  0.00    -0.646 OA
BRANCH  24  26
HETATM   26  O   UNK N   1      33.466  18.007   5.009  0.00  0.00    -0.773 OA
HETATM   27  H   UNK N   1      33.107  18.006   4.143  0.00  0.00     0.167 HD
ENDBRANCH  24  26
ENDBRANCH  21  24
BRANCH  17  28
HETATM   28  C   UNK N   1      37.420  11.649  10.395  0.00  0.00     0.011 C 
HETATM   29  C   UNK N   1      37.317  10.590  11.478  0.00  0.00     0.007 C 
HETATM   30  C   UNK N   1      37.967   9.369  10.839  0.00  0.00     0.000 C 
HETATM   31  C   UNK N   1      39.079   9.916   9.964  0.00  0.00     0.000 C 
HETATM   32  C   UNK N   1      38.681  11.338   9.614  0.00  0.00     0.007 C 
ENDBRANCH  17  28
ENDBRANCH   1  10
TORSDOF 4
ENDMDL
MODEL 8
REMARK VINA RESULT:      -7.1     18.171     22.342
REMARK  4 active torsions:
REMARK  status: ('A' for Active; 'I' for Inactive)
REMARK    1  A    between atoms: C_6  and  C_7 
REMARK    2  A    between atoms: C_7  and  O_9 
REMARK    3  A    between atoms: N_16  and  C_23 
REMARK    4  A    between atoms: C_17  and  C_18 
ROOT
HETATM    1  C   UNK N   1      27.775  26.180  -4.850  0.00  0.00     0.053 A 
HETATM    2  C   UNK N   1      26.440  26.539  -4.787  0.00  0.00     0.033 A 
HETATM    3  C   UNK N   1      26.082  27.803  -4.344  0.00  0.00     0.027 A 
HETATM    4  C   UNK N   1      27.068  28.710  -3.941  0.00  0.00     0.066 A 
HETATM    5  C   UNK N   1      28.425  28.345  -3.969  0.00  0.00     0.057 A 
HETATM    6  C   UNK N   1      28.770  27.083  -4.431  0.00  0.00     0.056 A 
HETATM    7 Cl   UNK N   1      29.707  29.436  -3.441  0.00  0.00    -0.083 Cl
HETATM    8  C   UNK N   1      26.658  30.016  -3.540  0.00  0.00     0.101 C 
HETATM    9  N   UNK N   1      26.283  31.062  -3.224  0.00  0.00    -0.191 NA
ENDROOT
BRANCH   1  10
HETATM   10  N   UNK N   1      28.145  24.886  -5.241  0.00  0.00    -0.286 N 
HETATM   11  N   UNK N   1      28.983  24.180  -4.456  0.00  0.00    -0.301 N 
HETATM   12  C   UNK N   1      28.993  22.968  -4.770  0.00  0.00     0.043 A 
ATOM     13  HN  UNK N   1      29.539  24.583  -3.701  1.00  0.00     0.187 HD
HETATM   14  C   UNK N   1      28.087  22.661  -5.930  0.00  0.00     0.063 A 
HETATM   15  C   UNK N   1      30.175  22.220  -4.486  0.00  0.00    -0.005 A 
HETATM   16  C   UNK N   1      28.701  21.717  -6.972  0.00  0.00     0.018 C 
HETATM   17  C   UNK N   1      27.543  24.068  -6.290  0.00  0.00     0.122 A 
HETATM   18  C   UNK N   1      30.233  21.757  -6.957  0.00  0.00     0.040 C 
HETATM   19  C   UNK N   1      30.788  21.580  -5.563  0.00  0.00    -0.045 A 
HETATM   20  C   UNK N   1      31.957  20.865  -5.350  0.00  0.00     0.026 A 
HETATM   21  C   UNK N   1      32.502  20.786  -4.060  0.00  0.00     0.038 A 
HETATM   22  C   UNK N   1      31.911  21.489  -3.000  0.00  0.00     0.019 A 
HETATM   23  C   UNK N   1      30.754  22.226  -3.217  0.00  0.00     0.015 A 
BRANCH  21  24
HETATM   24  C   UNK N   1      33.637  19.899  -3.800  0.00  0.00     0.176 C 
HETATM   25  O   UNK N   1      34.766  20.355  -3.716  0.00  0.00    -0.646 OA
BRANCH  24  26
HETATM   26  O   UNK N   1      33.449  18.566  -3.740  0.00  0.00    -0.773 OA
HETATM   27  H   UNK N   1      32.779  18.209  -3.191  0.00  0.00     0.167 HD
ENDBRANCH  24  26
ENDBRANCH  21  24
BRANCH  17  28
HETATM   28  C   UNK N   1      27.621  24.530  -7.774  0.00  0.00     0.011 C 
HETATM   29  C   UNK N   1      28.749  25.429  -8.249  0.00  0.00     0.007 C 
HETATM   30  C   UNK N   1      28.192  26.050  -9.523  0.00  0.00     0.000 C 
HETATM   31  C   UNK N   1      26.705  26.220  -9.272  0.00  0.00     0.000 C 
HETATM   32  C   UNK N   1      26.333  25.191  -8.221  0.00  0.00     0.007 C 
ENDBRANCH  17  28
ENDBRANCH   1  10
TORSDOF 4
ENDMDL
MODEL 9
REMARK VINA RESULT:      -7.1     18.717     22.080
REMARK  4 active torsions:
REMARK  status: ('A' for Active; 'I' for Inactive)
REMARK    1  A    between atoms: C_6  and  C_7 
REMARK    2  A    between atoms: C_7  and  O_9 
REMARK    3  A    between atoms: N_16  and  C_23 
REMARK    4  A    between atoms: C_17  and  C_18 
ROOT
HETATM    1  C   UNK N   1      27.993  23.837  -5.539  0.00  0.00     0.053 A 
HETATM    2  C   UNK N   1      26.636  23.805  -5.264  0.00  0.00     0.033 A 
HETATM    3  C   UNK N   1      26.043  24.854  -4.581  0.00  0.00     0.027 A 
HETATM    4  C   UNK N   1      26.817  25.938  -4.149  0.00  0.00     0.066 A 
HETATM    5  C   UNK N   1      28.201  25.966  -4.394  0.00  0.00     0.057 A 
HETATM    6  C   UNK N   1      28.778  24.916  -5.094  0.00  0.00     0.056 A 
HETATM    7 Cl   UNK N   1      29.230  27.289  -3.844  0.00  0.00    -0.083 Cl
HETATM    8  C   UNK N   1      26.156  27.019  -3.494  0.00  0.00     0.101 C 
HETATM    9  N   UNK N   1      25.581  27.873  -2.968  0.00  0.00    -0.191 NA
ENDROOT
BRANCH   1  10
HETATM   10  N   UNK N   1      28.614  22.755  -6.178  0.00  0.00    -0.286 N 
HETATM   11  N   UNK N   1      29.566  22.066  -5.520  0.00  0.00    -0.301 N 
HETATM   12  C   UNK N   1      29.818  20.977  -6.085  0.00  0.00     0.043 A 
ATOM     13  HN  UNK N   1      30.025  22.391  -4.669  1.00  0.00     0.187 HD
HETATM   14  C   UNK N   1      29.000  20.767  -7.330  0.00  0.00     0.063 A 
HETATM   15  C   UNK N   1      31.121  20.423  -5.907  0.00  0.00    -0.005 A 
HETATM   16  C   UNK N   1      29.798  20.210  -8.516  0.00  0.00     0.018 C 
HETATM   17  C   UNK N   1      28.194  22.089  -7.408  0.00  0.00     0.122 A 
HETATM   18  C   UNK N   1      31.292  20.535  -8.413  0.00  0.00     0.040 C 
HETATM   19  C   UNK N   1      31.857  20.165  -7.062  0.00  0.00    -0.045 A 
HETATM   20  C   UNK N   1      33.142  19.655  -6.947  0.00  0.00     0.026 A 
HETATM   21  C   UNK N   1      33.681  19.399  -5.676  0.00  0.00     0.038 A 
HETATM   22  C   UNK N   1      32.952  19.726  -4.523  0.00  0.00     0.019 A 
HETATM   23  C   UNK N   1      31.676  20.260  -4.637  0.00  0.00     0.015 A 
BRANCH  21  24
HETATM   24  C   UNK N   1      34.965  18.708  -5.553  0.00  0.00     0.176 C 
HETATM   25  O   UNK N   1      35.256  17.810  -6.326  0.00  0.00    -0.646 OA
BRANCH  24  26
HETATM   26  O   UNK N   1      35.792  19.004  -4.532  0.00  0.00    -0.773 OA
HETATM   27  H   UNK N   1      35.454  19.393  -3.749  0.00  0.00     0.167 HD
ENDBRANCH  24  26
ENDBRANCH  21  24
BRANCH  17  28
HETATM   28  C   UNK N   1      28.193  22.873  -8.753  0.00  0.00     0.011 C 
HETATM   29  C   UNK N   1      29.233  23.945  -9.026  0.00  0.00     0.007 C 
HETATM   30  C   UNK N   1      28.593  24.784 -10.125  0.00  0.00     0.000 C 
HETATM   31  C   UNK N   1      27.105  24.771  -9.827  0.00  0.00     0.000 C 
HETATM   32  C   UNK N   1      26.846  23.507  -9.029  0.00  0.00     0.007 C 
ENDBRANCH  17  28
ENDBRANCH   1  10
TORSDOF 4
ENDMDL
