MODEL 1
REMARK VINA RESULT:      -5.9      0.000      0.000
REMARK  8 active torsions:
REMARK  status: ('A' for Active; 'I' for Inactive)
REMARK    1  A    between atoms: O_1  and  C_14 
REMARK    2  A    between atoms: C_9  and  N_4 
REMARK       I    between atoms: N_4  and  C_12 
REMARK    3  A    between atoms: N_8  and  C_16 
REMARK    4  A    between atoms: C_9  and  C_10 
REMARK    5  A    between atoms: C_9  and  C_14 
REMARK    6  A    between atoms: C_10  and  C_11 
REMARK    7  A    between atoms: C_12  and  C_13 
REMARK    8  A    between atoms: C_13  and  C_16 
ROOT
HETATM    1  C   UNK N   1      33.572  17.024   8.641  0.00  0.00     0.188 C 
ENDROOT
BRANCH   1   2
HETATM    2  N   UNK N   1      34.128  16.326   9.793  0.00  0.00    -0.346 N 
HETATM    3  C   UNK N   1      35.195  16.579  10.591  0.00  0.00     0.219 C 
HETATM    4  O   UNK N   1      35.912  17.544  10.420  0.00  0.00    -0.274 OA
HETATM    5  H   UNK N   1      33.632  15.513  10.040  0.00  0.00     0.163 HD
BRANCH   3   6
HETATM    6  C   UNK N   1      35.477  15.624  11.709  0.00  0.00     0.121 C 
BRANCH   6   7
HETATM    7  C   UNK N   1      36.293  14.429  11.251  0.00  0.00     0.120 C 
BRANCH   7   8
HETATM    8  N   UNK N   1      37.409  14.890  10.451  0.00  0.00    -0.430 N 
HETATM    9  H   UNK N   1      37.816  15.810  10.624  0.00  0.00     0.149 HD
HETATM   10  H   UNK N   1      37.789  14.295   9.715  0.00  0.00     0.149 HD
ENDBRANCH   7   8
ENDBRANCH   6   7
ENDBRANCH   3   6
ENDBRANCH   1   2
BRANCH   1  11
HETATM   11  C   UNK N   1      32.133  16.514   8.417  0.00  0.00     0.094 C 
BRANCH  11  12
HETATM   12  C   UNK N   1      30.881  17.327   8.513  0.00  0.00     0.028 A 
HETATM   13  N   UNK N   1      30.558  17.996   9.632  0.00  0.00    -0.354 N 
HETATM   14  C   UNK N   1      29.389  18.603   9.360  0.00  0.00     0.180 A 
HETATM   15  H   UNK N   1      31.069  18.034  10.473  0.00  0.00     0.166 HD
HETATM   16  N   UNK N   1      28.969  18.336   8.106  0.00  0.00    -0.360 N 
HETATM   17  C   UNK N   1      29.905  17.534   7.572  0.00  0.00     0.114 A 
ATOM     18  HN  UNK N   1      28.118  18.672   7.657  1.00  0.00     0.166 HD
ENDBRANCH  11  12
ENDBRANCH   1  11
BRANCH   1  19
HETATM   19  C   UNK N   1      34.334  18.081   7.821  0.00  0.00     0.163 C 
HETATM   20  O   UNK N   1      34.443  17.967   6.618  0.00  0.00    -0.648 OA
BRANCH  19  21
HETATM   21  O   UNK N   1      34.900  19.153   8.392  0.00  0.00    -0.775 OA
HETATM   22  H   UNK N   1      34.479  19.577   9.114  0.00  0.00     0.167 HD
ENDBRANCH  19  21
ENDBRANCH   1  19
TORSDOF 8
ENDMDL
MODEL 2
REMARK VINA RESULT:      -5.8      1.550      5.847
REMARK  8 active torsions:
REMARK  status: ('A' for Active; 'I' for Inactive)
REMARK    1  A    between atoms: O_1  and  C_14 
REMARK    2  A    between atoms: C_9  and  N_4 
REMARK       I    between atoms: N_4  and  C_12 
REMARK    3  A    between atoms: N_8  and  C_16 
REMARK    4  A    between atoms: C_9  and  C_10 
REMARK    5  A    between atoms: C_9  and  C_14 
REMARK    6  A    between atoms: C_10  and  C_11 
REMARK    7  A    between atoms: C_12  and  C_13 
REMARK    8  A    between atoms: C_13  and  C_16 
ROOT
HETATM    1  C   UNK N   1      33.525  17.240   8.731  0.00  0.00     0.188 C 
ENDROOT
BRANCH   1   2
HETATM    2  N   UNK N   1      32.176  17.613   9.138  0.00  0.00    -0.346 N 
HETATM    3  C   UNK N   1      30.978  17.557   8.505  0.00  0.00     0.219 C 
HETATM    4  O   UNK N   1      30.868  17.134   7.373  0.00  0.00    -0.274 OA
HETATM    5  H   UNK N   1      32.125  17.976  10.051  0.00  0.00     0.163 HD
BRANCH   3   6
HETATM    6  C   UNK N   1      29.769  18.038   9.247  0.00  0.00     0.121 C 
BRANCH   6   7
HETATM    7  C   UNK N   1      28.747  18.676   8.325  0.00  0.00     0.120 C 
BRANCH   7   8
HETATM    8  N   UNK N   1      27.450  18.671   8.973  0.00  0.00    -0.430 N 
HETATM    9  H   UNK N   1      26.985  17.787   9.177  0.00  0.00     0.149 HD
HETATM   10  H   UNK N   1      27.003  19.553   9.224  0.00  0.00     0.149 HD
ENDBRANCH   7   8
ENDBRANCH   6   7
ENDBRANCH   3   6
ENDBRANCH   1   2
BRANCH   1  11
HETATM   11  C   UNK N   1      33.811  15.818   9.256  0.00  0.00     0.094 C 
BRANCH  11  12
HETATM   12  C   UNK N   1      34.644  15.466  10.448  0.00  0.00     0.028 A 
HETATM   13  N   UNK N   1      34.353  14.410  11.225  0.00  0.00    -0.354 N 
HETATM   14  C   UNK N   1      35.297  14.400  12.182  0.00  0.00     0.180 A 
HETATM   15  H   UNK N   1      33.607  13.777  11.116  0.00  0.00     0.166 HD
HETATM   16  N   UNK N   1      36.171  15.417  12.030  0.00  0.00    -0.360 N 
HETATM   17  C   UNK N   1      35.762  16.088  10.941  0.00  0.00     0.114 A 
ATOM     18  HN  UNK N   1      36.975  15.632  12.619  1.00  0.00     0.166 HD
ENDBRANCH  11  12
ENDBRANCH   1  11
BRANCH   1  19
HETATM   19  C   UNK N   1      34.461  18.149   7.915  0.00  0.00     0.163 C 
HETATM   20  O   UNK N   1      34.553  18.017   6.712  0.00  0.00    -0.648 OA
BRANCH  19  21
HETATM   21  O   UNK N   1      35.202  19.108   8.488  0.00  0.00    -0.775 OA
HETATM   22  H   UNK N   1      34.816  19.935   8.699  0.00  0.00     0.167 HD
ENDBRANCH  19  21
ENDBRANCH   1  19
TORSDOF 8
ENDMDL
MODEL 3
REMARK VINA RESULT:      -5.6      1.397      1.771
REMARK  8 active torsions:
REMARK  status: ('A' for Active; 'I' for Inactive)
REMARK    1  A    between atoms: O_1  and  C_14 
REMARK    2  A    between atoms: C_9  and  N_4 
REMARK       I    between atoms: N_4  and  C_12 
REMARK    3  A    between atoms: N_8  and  C_16 
REMARK    4  A    between atoms: C_9  and  C_10 
REMARK    5  A    between atoms: C_9  and  C_14 
REMARK    6  A    between atoms: C_10  and  C_11 
REMARK    7  A    between atoms: C_12  and  C_13 
REMARK    8  A    between atoms: C_13  and  C_16 
ROOT
HETATM    1  C   UNK N   1      33.541  17.182   8.736  0.00  0.00     0.188 C 
ENDROOT
BRANCH   1   2
HETATM    2  N   UNK N   1      34.105  16.380   9.814  0.00  0.00    -0.346 N 
HETATM    3  C   UNK N   1      35.206  16.532  10.591  0.00  0.00     0.219 C 
HETATM    4  O   UNK N   1      35.955  17.480  10.468  0.00  0.00    -0.274 OA
HETATM    5  H   UNK N   1      33.585  15.570  10.017  0.00  0.00     0.163 HD
BRANCH   3   6
HETATM    6  C   UNK N   1      35.484  15.486  11.626  0.00  0.00     0.121 C 
BRANCH   6   7
HETATM    7  C   UNK N   1      36.329  14.350  11.080  0.00  0.00     0.120 C 
BRANCH   7   8
HETATM    8  N   UNK N   1      37.496  14.897  10.417  0.00  0.00    -0.430 N 
HETATM    9  H   UNK N   1      37.391  15.412   9.543  0.00  0.00     0.149 HD
HETATM   10  H   UNK N   1      38.422  14.768  10.825  0.00  0.00     0.149 HD
ENDBRANCH   7   8
ENDBRANCH   6   7
ENDBRANCH   3   6
ENDBRANCH   1   2
BRANCH   1  11
HETATM   11  C   UNK N   1      32.026  16.902   8.668  0.00  0.00     0.094 C 
BRANCH  11  12
HETATM   12  C   UNK N   1      31.251  16.513   7.450  0.00  0.00     0.028 A 
HETATM   13  N   UNK N   1      30.322  17.322   6.915  0.00  0.00    -0.354 N 
HETATM   14  C   UNK N   1      29.839  16.658   5.851  0.00  0.00     0.180 A 
HETATM   15  H   UNK N   1      30.052  18.213   7.235  0.00  0.00     0.166 HD
HETATM   16  N   UNK N   1      30.436  15.457   5.701  0.00  0.00    -0.360 N 
HETATM   17  C   UNK N   1      31.323  15.364   6.704  0.00  0.00     0.114 A 
ATOM     18  HN  UNK N   1      30.252  14.764   4.976  1.00  0.00     0.166 HD
ENDBRANCH  11  12
ENDBRANCH   1  11
BRANCH   1  19
HETATM   19  C   UNK N   1      34.364  18.131   7.845  0.00  0.00     0.163 C 
HETATM   20  O   UNK N   1      34.397  17.973   6.643  0.00  0.00    -0.648 OA
BRANCH  19  21
HETATM   21  O   UNK N   1      35.067  19.154   8.352  0.00  0.00    -0.775 OA
HETATM   22  H   UNK N   1      35.445  19.791   7.779  0.00  0.00     0.167 HD
ENDBRANCH  19  21
ENDBRANCH   1  19
TORSDOF 8
ENDMDL
MODEL 4
REMARK VINA RESULT:      -5.5      2.488      2.983
REMARK  8 active torsions:
REMARK  status: ('A' for Active; 'I' for Inactive)
REMARK    1  A    between atoms: O_1  and  C_14 
REMARK    2  A    between atoms: C_9  and  N_4 
REMARK       I    between atoms: N_4  and  C_12 
REMARK    3  A    between atoms: N_8  and  C_16 
REMARK    4  A    between atoms: C_9  and  C_10 
REMARK    5  A    between atoms: C_9  and  C_14 
REMARK    6  A    between atoms: C_10  and  C_11 
REMARK    7  A    between atoms: C_12  and  C_13 
REMARK    8  A    between atoms: C_13  and  C_16 
ROOT
HETATM    1  C   UNK N   1      34.018  17.179   8.993  0.00  0.00     0.188 C 
ENDROOT
BRANCH   1   2
HETATM    2  N   UNK N   1      34.602  16.764  10.262  0.00  0.00    -0.346 N 
HETATM    3  C   UNK N   1      35.419  15.737  10.604  0.00  0.00     0.219 C 
HETATM    4  O   UNK N   1      35.816  14.932   9.786  0.00  0.00    -0.274 OA
HETATM    5  H   UNK N   1      34.356  17.343  11.019  0.00  0.00     0.163 HD
BRANCH   3   6
HETATM    6  C   UNK N   1      35.831  15.615  12.038  0.00  0.00     0.121 C 
BRANCH   6   7
HETATM    7  C   UNK N   1      35.917  14.168  12.488  0.00  0.00     0.120 C 
BRANCH   7   8
HETATM    8  N   UNK N   1      37.217  13.633  12.135  0.00  0.00    -0.430 N 
HETATM    9  H   UNK N   1      38.049  14.217  12.221  0.00  0.00     0.149 HD
HETATM   10  H   UNK N   1      37.299  12.674  11.801  0.00  0.00     0.149 HD
ENDBRANCH   7   8
ENDBRANCH   6   7
ENDBRANCH   3   6
ENDBRANCH   1   2
BRANCH   1  11
HETATM   11  C   UNK N   1      32.743  16.344   8.754  0.00  0.00     0.094 C 
BRANCH  11  12
HETATM   12  C   UNK N   1      32.612  15.174   7.831  0.00  0.00     0.028 A 
HETATM   13  N   UNK N   1      33.508  14.174   7.827  0.00  0.00    -0.354 N 
HETATM   14  C   UNK N   1      33.078  13.313   6.888  0.00  0.00     0.180 A 
HETATM   15  H   UNK N   1      34.310  14.090   8.392  0.00  0.00     0.166 HD
HETATM   16  N   UNK N   1      31.940  13.742   6.303  0.00  0.00    -0.360 N 
HETATM   17  C   UNK N   1      31.646  14.911   6.894  0.00  0.00     0.114 A 
ATOM     18  HN  UNK N   1      31.414  13.275   5.565  1.00  0.00     0.166 HD
ENDBRANCH  11  12
ENDBRANCH   1  11
BRANCH   1  19
HETATM   19  C   UNK N   1      34.613  18.271   8.086  0.00  0.00     0.163 C 
HETATM   20  O   UNK N   1      34.442  18.234   6.885  0.00  0.00    -0.648 OA
BRANCH  19  21
HETATM   21  O   UNK N   1      35.332  19.291   8.575  0.00  0.00    -0.775 OA
HETATM   22  H   UNK N   1      35.794  19.192   9.384  0.00  0.00     0.167 HD
ENDBRANCH  19  21
ENDBRANCH   1  19
TORSDOF 8
ENDMDL
MODEL 5
REMARK VINA RESULT:      -5.3      9.122     12.649
REMARK  8 active torsions:
REMARK  status: ('A' for Active; 'I' for Inactive)
REMARK    1  A    between atoms: O_1  and  C_14 
REMARK    2  A    between atoms: C_9  and  N_4 
REMARK       I    between atoms: N_4  and  C_12 
REMARK    3  A    between atoms: N_8  and  C_16 
REMARK    4  A    between atoms: C_9  and  C_10 
REMARK    5  A    between atoms: C_9  and  C_14 
REMARK    6  A    between atoms: C_10  and  C_11 
REMARK    7  A    between atoms: C_12  and  C_13 
REMARK    8  A    between atoms: C_13  and  C_16 
ROOT
HETATM    1  C   UNK N   1      23.577  19.478   3.669  0.00  0.00     0.188 C 
ENDROOT
BRANCH   1   2
HETATM    2  N   UNK N   1      22.409  18.607   3.681  0.00  0.00    -0.346 N 
HETATM    3  C   UNK N   1      21.099  18.832   3.950  0.00  0.00     0.219 C 
HETATM    4  O   UNK N   1      20.684  19.932   4.253  0.00  0.00    -0.274 OA
HETATM    5  H   UNK N   1      22.611  17.672   3.449  0.00  0.00     0.163 HD
BRANCH   3   6
HETATM    6  C   UNK N   1      20.155  17.672   3.864  0.00  0.00     0.121 C 
BRANCH   6   7
HETATM    7  C   UNK N   1      20.131  17.054   2.478  0.00  0.00     0.120 C 
BRANCH   7   8
HETATM    8  N   UNK N   1      19.263  17.836   1.620  0.00  0.00    -0.430 N 
HETATM    9  H   UNK N   1      19.323  18.855   1.627  0.00  0.00     0.149 HD
HETATM   10  H   UNK N   1      18.594  17.369   1.010  0.00  0.00     0.149 HD
ENDBRANCH   7   8
ENDBRANCH   6   7
ENDBRANCH   3   6
ENDBRANCH   1   2
BRANCH   1  11
HETATM   11  C   UNK N   1      24.635  18.879   4.618  0.00  0.00     0.094 C 
BRANCH  11  12
HETATM   12  C   UNK N   1      25.937  19.508   5.001  0.00  0.00     0.028 A 
HETATM   13  N   UNK N   1      26.109  20.102   6.194  0.00  0.00    -0.354 N 
HETATM   14  C   UNK N   1      27.379  20.547   6.190  0.00  0.00     0.180 A 
HETATM   15  H   UNK N   1      25.447  20.193   6.916  0.00  0.00     0.166 HD
HETATM   16  N   UNK N   1      28.007  20.250   5.034  0.00  0.00    -0.360 N 
HETATM   17  C   UNK N   1      27.103  19.598   4.286  0.00  0.00     0.114 A 
ATOM     18  HN  UNK N   1      28.969  20.475   4.781  1.00  0.00     0.166 HD
ENDBRANCH  11  12
ENDBRANCH   1  11
BRANCH   1  19
HETATM   19  C   UNK N   1      23.683  20.765   2.832  0.00  0.00     0.163 C 
HETATM   20  O   UNK N   1      24.625  20.939   2.086  0.00  0.00    -0.648 OA
BRANCH  19  21
HETATM   21  O   UNK N   1      22.757  21.733   2.890  0.00  0.00    -0.775 OA
HETATM   22  H   UNK N   1      22.944  22.582   2.541  0.00  0.00     0.167 HD
ENDBRANCH  19  21
ENDBRANCH   1  19
TORSDOF 8
ENDMDL
MODEL 6
REMARK VINA RESULT:      -5.2      2.621      3.594
REMARK  8 active torsions:
REMARK  status: ('A' for Active; 'I' for Inactive)
REMARK    1  A    between atoms: O_1  and  C_14 
REMARK    2  A    between atoms: C_9  and  N_4 
REMARK       I    between atoms: N_4  and  C_12 
REMARK    3  A    between atoms: N_8  and  C_16 
REMARK    4  A    between atoms: C_9  and  C_10 
REMARK    5  A    between atoms: C_9  and  C_14 
REMARK    6  A    between atoms: C_10  and  C_11 
REMARK    7  A    between atoms: C_12  and  C_13 
REMARK    8  A    between atoms: C_13  and  C_16 
ROOT
HETATM    1  C   UNK N   1      34.659  15.220  10.826  0.00  0.00     0.188 C 
ENDROOT
BRANCH   1   2
HETATM    2  N   UNK N   1      34.605  14.245  11.908  0.00  0.00    -0.346 N 
HETATM    3  C   UNK N   1      35.462  13.277  12.316  0.00  0.00     0.219 C 
HETATM    4  O   UNK N   1      36.521  13.078  11.755  0.00  0.00    -0.274 OA
HETATM    5  H   UNK N   1      33.784  14.301  12.449  0.00  0.00     0.163 HD
BRANCH   3   6
HETATM    6  C   UNK N   1      35.070  12.443  13.496  0.00  0.00     0.121 C 
BRANCH   6   7
HETATM    7  C   UNK N   1      36.163  12.387  14.547  0.00  0.00     0.120 C 
BRANCH   7   8
HETATM    8  N   UNK N   1      36.942  13.607  14.493  0.00  0.00    -0.430 N 
HETATM    9  H   UNK N   1      37.954  13.573  14.625  0.00  0.00     0.149 HD
HETATM   10  H   UNK N   1      36.480  14.500  14.324  0.00  0.00     0.149 HD
ENDBRANCH   7   8
ENDBRANCH   6   7
ENDBRANCH   3   6
ENDBRANCH   1   2
BRANCH   1  11
HETATM   11  C   UNK N   1      33.466  14.961   9.883  0.00  0.00     0.094 C 
BRANCH  11  12
HETATM   12  C   UNK N   1      32.964  15.882   8.816  0.00  0.00     0.028 A 
HETATM   13  N   UNK N   1      32.644  17.159   9.080  0.00  0.00    -0.354 N 
HETATM   14  C   UNK N   1      32.239  17.675   7.906  0.00  0.00     0.180 A 
HETATM   15  H   UNK N   1      32.696  17.620   9.949  0.00  0.00     0.166 HD
HETATM   16  N   UNK N   1      32.295  16.762   6.915  0.00  0.00    -0.360 N 
HETATM   17  C   UNK N   1      32.751  15.634   7.485  0.00  0.00     0.114 A 
ATOM     18  HN  UNK N   1      32.044  16.899   5.937  1.00  0.00     0.166 HD
ENDBRANCH  11  12
ENDBRANCH   1  11
BRANCH   1  19
HETATM   19  C   UNK N   1      35.746  16.302  10.694  0.00  0.00     0.163 C 
HETATM   20  O   UNK N   1      35.445  17.447  10.428  0.00  0.00    -0.648 OA
BRANCH  19  21
HETATM   21  O   UNK N   1      37.048  16.030  10.864  0.00  0.00    -0.775 OA
HETATM   22  H   UNK N   1      37.644  16.131  10.148  0.00  0.00     0.167 HD
ENDBRANCH  19  21
ENDBRANCH   1  19
TORSDOF 8
ENDMDL
MODEL 7
REMARK VINA RESULT:      -5.2      3.520      4.938
REMARK  8 active torsions:
REMARK  status: ('A' for Active; 'I' for Inactive)
REMARK    1  A    between atoms: O_1  and  C_14 
REMARK    2  A    between atoms: C_9  and  N_4 
REMARK       I    between atoms: N_4  and  C_12 
REMARK    3  A    between atoms: N_8  and  C_16 
REMARK    4  A    between atoms: C_9  and  C_10 
REMARK    5  A    between atoms: C_9  and  C_14 
REMARK    6  A    between atoms: C_10  and  C_11 
REMARK    7  A    between atoms: C_12  and  C_13 
REMARK    8  A    between atoms: C_13  and  C_16 
ROOT
HETATM    1  C   UNK N   1      29.464  18.051   7.864  0.00  0.00     0.188 C 
ENDROOT
BRANCH   1   2
HETATM    2  N   UNK N   1      30.875  17.761   7.642  0.00  0.00    -0.346 N 
HETATM    3  C   UNK N   1      31.723  16.856   8.190  0.00  0.00     0.219 C 
HETATM    4  O   UNK N   1      31.362  16.072   9.045  0.00  0.00    -0.274 OA
HETATM    5  H   UNK N   1      31.294  18.335   6.962  0.00  0.00     0.163 HD
BRANCH   3   6
HETATM    6  C   UNK N   1      33.141  16.841   7.710  0.00  0.00     0.121 C 
BRANCH   6   7
HETATM    7  C   UNK N   1      34.047  17.702   8.570  0.00  0.00     0.120 C 
BRANCH   7   8
HETATM    8  N   UNK N   1      34.225  17.069   9.861  0.00  0.00    -0.430 N 
HETATM    9  H   UNK N   1      35.115  16.627  10.093  0.00  0.00     0.149 HD
HETATM   10  H   UNK N   1      33.462  17.066  10.537  0.00  0.00     0.149 HD
ENDBRANCH   7   8
ENDBRANCH   6   7
ENDBRANCH   3   6
ENDBRANCH   1   2
BRANCH   1  11
HETATM   11  C   UNK N   1      28.748  18.036   6.497  0.00  0.00     0.094 C 
BRANCH  11  12
HETATM   12  C   UNK N   1      27.891  19.126   5.936  0.00  0.00     0.028 A 
HETATM   13  N   UNK N   1      26.967  19.753   6.683  0.00  0.00    -0.354 N 
HETATM   14  C   UNK N   1      26.399  20.655   5.863  0.00  0.00     0.180 A 
HETATM   15  H   UNK N   1      26.752  19.587   7.629  0.00  0.00     0.166 HD
HETATM   16  N   UNK N   1      26.936  20.614   4.627  0.00  0.00    -0.360 N 
HETATM   17  C   UNK N   1      27.874  19.653   4.670  0.00  0.00     0.114 A 
ATOM     18  HN  UNK N   1      26.684  21.191   3.826  1.00  0.00     0.166 HD
ENDBRANCH  11  12
ENDBRANCH   1  11
BRANCH   1  19
HETATM   19  C   UNK N   1      28.846  18.319   9.248  0.00  0.00     0.163 C 
HETATM   20  O   UNK N   1      29.541  18.681  10.173  0.00  0.00    -0.648 OA
BRANCH  19  21
HETATM   21  O   UNK N   1      27.535  18.165   9.485  0.00  0.00    -0.775 OA
HETATM   22  H   UNK N   1      26.939  18.058   8.770  0.00  0.00     0.167 HD
ENDBRANCH  19  21
ENDBRANCH   1  19
TORSDOF 8
ENDMDL
MODEL 8
REMARK VINA RESULT:      -5.1      8.670     11.361
REMARK  8 active torsions:
REMARK  status: ('A' for Active; 'I' for Inactive)
REMARK    1  A    between atoms: O_1  and  C_14 
REMARK    2  A    between atoms: C_9  and  N_4 
REMARK       I    between atoms: N_4  and  C_12 
REMARK    3  A    between atoms: N_8  and  C_16 
REMARK    4  A    between atoms: C_9  and  C_10 
REMARK    5  A    between atoms: C_9  and  C_14 
REMARK    6  A    between atoms: C_10  and  C_11 
REMARK    7  A    between atoms: C_12  and  C_13 
REMARK    8  A    between atoms: C_13  and  C_16 
ROOT
HETATM    1  C   UNK N   1      23.774  19.325   3.683  0.00  0.00     0.188 C 
ENDROOT
BRANCH   1   2
HETATM    2  N   UNK N   1      24.945  18.713   4.297  0.00  0.00    -0.346 N 
HETATM    3  C   UNK N   1      25.934  19.208   5.081  0.00  0.00     0.219 C 
HETATM    4  O   UNK N   1      25.970  20.376   5.411  0.00  0.00    -0.274 OA
HETATM    5  H   UNK N   1      25.035  17.752   4.105  0.00  0.00     0.163 HD
BRANCH   3   6
HETATM    6  C   UNK N   1      27.004  18.266   5.541  0.00  0.00     0.121 C 
BRANCH   6   7
HETATM    7  C   UNK N   1      28.052  18.960   6.390  0.00  0.00     0.120 C 
BRANCH   7   8
HETATM    8  N   UNK N   1      27.531  19.158   7.728  0.00  0.00    -0.430 N 
HETATM    9  H   UNK N   1      27.713  20.033   8.221  0.00  0.00     0.149 HD
HETATM   10  H   UNK N   1      26.983  18.425   8.176  0.00  0.00     0.149 HD
ENDBRANCH   7   8
ENDBRANCH   6   7
ENDBRANCH   3   6
ENDBRANCH   1   2
BRANCH   1  11
HETATM   11  C   UNK N   1      22.546  18.449   4.007  0.00  0.00     0.094 C 
BRANCH  11  12
HETATM   12  C   UNK N   1      21.222  18.489   3.312  0.00  0.00     0.028 A 
HETATM   13  N   UNK N   1      20.433  19.574   3.359  0.00  0.00    -0.354 N 
HETATM   14  C   UNK N   1      19.345  19.256   2.636  0.00  0.00     0.180 A 
HETATM   15  H   UNK N   1      20.613  20.423   3.824  0.00  0.00     0.166 HD
HETATM   16  N   UNK N   1      19.427  18.005   2.137  0.00  0.00    -0.360 N 
HETATM   17  C   UNK N   1      20.605  17.521   2.561  0.00  0.00     0.114 A 
ATOM     18  HN  UNK N   1      18.737  17.526   1.559  1.00  0.00     0.166 HD
ENDBRANCH  11  12
ENDBRANCH   1  11
BRANCH   1  19
HETATM   19  C   UNK N   1      23.812  20.626   2.861  0.00  0.00     0.163 C 
HETATM   20  O   UNK N   1      24.758  20.873   2.143  0.00  0.00    -0.648 OA
BRANCH  19  21
HETATM   21  O   UNK N   1      22.818  21.524   2.901  0.00  0.00    -0.775 OA
HETATM   22  H   UNK N   1      22.687  22.043   3.671  0.00  0.00     0.167 HD
ENDBRANCH  19  21
ENDBRANCH   1  19
TORSDOF 8
ENDMDL
MODEL 9
REMARK VINA RESULT:      -4.9      2.849      4.820
REMARK  8 active torsions:
REMARK  status: ('A' for Active; 'I' for Inactive)
REMARK    1  A    between atoms: O_1  and  C_14 
REMARK    2  A    between atoms: C_9  and  N_4 
REMARK       I    between atoms: N_4  and  C_12 
REMARK    3  A    between atoms: N_8  and  C_16 
REMARK    4  A    between atoms: C_9  and  C_10 
REMARK    5  A    between atoms: C_9  and  C_14 
REMARK    6  A    between atoms: C_10  and  C_11 
REMARK    7  A    between atoms: C_12  and  C_13 
REMARK    8  A    between atoms: C_13  and  C_16 
ROOT
HETATM    1  C   UNK N   1      32.322  16.688   8.171  0.00  0.00     0.188 C 
ENDROOT
BRANCH   1   2
HETATM    2  N   UNK N   1      32.504  16.770   6.727  0.00  0.00    -0.346 N 
HETATM    3  C   UNK N   1      33.437  17.376   5.953  0.00  0.00     0.219 C 
HETATM    4  O   UNK N   1      34.358  18.008   6.431  0.00  0.00    -0.274 OA
HETATM    5  H   UNK N   1      31.814  16.292   6.214  0.00  0.00     0.163 HD
BRANCH   3   6
HETATM    6  C   UNK N   1      33.308  17.248   4.467  0.00  0.00     0.121 C 
BRANCH   6   7
HETATM    7  C   UNK N   1      31.865  17.338   4.007  0.00  0.00     0.120 C 
BRANCH   7   8
HETATM    8  N   UNK N   1      31.813  17.212   2.564  0.00  0.00    -0.430 N 
HETATM    9  H   UNK N   1      31.529  16.328   2.140  0.00  0.00     0.149 HD
HETATM   10  H   UNK N   1      32.060  18.005   1.973  0.00  0.00     0.149 HD
ENDBRANCH   7   8
ENDBRANCH   6   7
ENDBRANCH   3   6
ENDBRANCH   1   2
BRANCH   1  11
HETATM   11  C   UNK N   1      31.403  17.847   8.608  0.00  0.00     0.094 C 
BRANCH  11  12
HETATM   12  C   UNK N   1      29.908  17.823   8.652  0.00  0.00     0.028 A 
HETATM   13  N   UNK N   1      29.185  17.196   7.710  0.00  0.00    -0.354 N 
HETATM   14  C   UNK N   1      27.901  17.378   8.066  0.00  0.00     0.180 A 
HETATM   15  H   UNK N   1      29.522  16.706   6.926  0.00  0.00     0.166 HD
HETATM   16  N   UNK N   1      27.797  18.100   9.201  0.00  0.00    -0.360 N 
HETATM   17  C   UNK N   1      29.057  18.380   9.571  0.00  0.00     0.114 A 
ATOM     18  HN  UNK N   1      26.939  18.375   9.680  1.00  0.00     0.166 HD
ENDBRANCH  11  12
ENDBRANCH   1  11
BRANCH   1  19
HETATM   19  C   UNK N   1      32.963  15.607   9.060  0.00  0.00     0.163 C 
HETATM   20  O   UNK N   1      34.158  15.613   9.274  0.00  0.00    -0.648 OA
BRANCH  19  21
HETATM   21  O   UNK N   1      32.241  14.630   9.627  0.00  0.00    -0.775 OA
HETATM   22  H   UNK N   1      31.382  14.812   9.953  0.00  0.00     0.167 HD
ENDBRANCH  19  21
ENDBRANCH   1  19
TORSDOF 8
ENDMDL
