MODEL 1
REMARK VINA RESULT:      -7.1      0.000      0.000
REMARK  6 active torsions:
REMARK  status: ('A' for Active; 'I' for Inactive)
REMARK    1  A    between atoms: O_2  and  C_3 
REMARK    2  A    between atoms: C_3  and  N_4 
REMARK    3  A    between atoms: C_7  and  C_16 
REMARK    4  A    between atoms: C_7  and  C_22 
REMARK    5  A    between atoms: N_10  and  C_13 
REMARK    6  A    between atoms: C_13  and  O_14 
ROOT
HETATM    1  N   UNK N   1      22.197  16.175   6.832  0.00  0.00    -0.246 N 
HETATM    2  C   UNK N   1      22.571  14.919   7.220  0.00  0.00     0.257 C 
HETATM    3  O   UNK N   1      23.620  14.449   6.795  0.00  0.00    -0.271 OA
HETATM    4  C   UNK N   1      21.629  14.025   8.028  0.00  0.00     0.177 C 
HETATM    5  C   UNK N   1      20.475  14.857   8.604  0.00  0.00     0.257 C 
HETATM    6  O   UNK N   1      19.688  14.327   9.380  0.00  0.00    -0.271 OA
HETATM    7  N   UNK N   1      20.286  16.164   8.252  0.00  0.00    -0.246 N 
HETATM    8  C   UNK N   1      21.083  16.782   7.333  0.00  0.00     0.337 C 
HETATM    9  O   UNK N   1      20.800  17.915   6.959  0.00  0.00    -0.246 OA
ENDROOT
BRANCH   4  10
HETATM   10  C   UNK N   1      21.145  12.997   7.003  0.00  0.00    -0.026 A 
HETATM   11  C   UNK N   1      21.689  11.696   7.010  0.00  0.00     0.009 A 
HETATM   12  C   UNK N   1      21.316  10.760   6.048  0.00  0.00     0.001 A 
HETATM   13  C   UNK N   1      20.387  11.107   5.067  0.00  0.00     0.000 A 
HETATM   14  C   UNK N   1      19.829  12.388   5.052  0.00  0.00     0.001 A 
HETATM   15  C   UNK N   1      20.207  13.331   6.012  0.00  0.00     0.009 A 
ENDBRANCH   4  10
BRANCH   4  16
HETATM   16  C   UNK N   1      22.272  13.240   9.185  0.00  0.00    -0.026 A 
HETATM   17  C   UNK N   1      23.681  13.178   9.251  0.00  0.00     0.009 A 
HETATM   18  C   UNK N   1      24.329  12.529  10.301  0.00  0.00     0.001 A 
HETATM   19  C   UNK N   1      23.577  11.923  11.306  0.00  0.00     0.000 A 
HETATM   20  C   UNK N   1      22.180  11.971  11.258  0.00  0.00     0.001 A 
HETATM   21  C   UNK N   1      21.526  12.632  10.207  0.00  0.00     0.009 A 
ENDBRANCH   4  16
BRANCH   1  22
HETATM   22  C   UNK N   1      22.984  16.868   5.827  0.00  0.00     0.305 C 
BRANCH  22  23
HETATM   23  O   UNK N   1      22.520  16.510   4.551  0.00  0.00    -0.376 OA
HETATM   24  C   UNK N   1      22.465  17.698   3.817  0.00  0.00     0.203 C 
ENDBRANCH  22  23
ENDBRANCH   1  22
BRANCH   7  25
HETATM   25  C   UNK N   1      19.186  16.904   8.849  0.00  0.00     0.305 C 
BRANCH  25  26
HETATM   26  O   UNK N   1      18.006  16.646   8.138  0.00  0.00    -0.376 OA
HETATM   27  C   UNK N   1      16.971  17.181   8.906  0.00  0.00     0.203 C 
ENDBRANCH  25  26
ENDBRANCH   7  25
TORSDOF 6
ENDMDL
MODEL 2
REMARK VINA RESULT:      -6.8      0.745      4.819
REMARK  6 active torsions:
REMARK  status: ('A' for Active; 'I' for Inactive)
REMARK    1  A    between atoms: O_2  and  C_3 
REMARK    2  A    between atoms: C_3  and  N_4 
REMARK    3  A    between atoms: C_7  and  C_16 
REMARK    4  A    between atoms: C_7  and  C_22 
REMARK    5  A    between atoms: N_10  and  C_13 
REMARK    6  A    between atoms: C_13  and  O_14 
ROOT
HETATM    1  N   UNK N   1      20.640  15.702   8.058  0.00  0.00    -0.246 N 
HETATM    2  C   UNK N   1      20.730  14.340   8.136  0.00  0.00     0.257 C 
HETATM    3  O   UNK N   1      19.937  13.728   8.843  0.00  0.00    -0.271 OA
HETATM    4  C   UNK N   1      21.900  13.585   7.503  0.00  0.00     0.177 C 
HETATM    5  C   UNK N   1      22.653  14.499   6.528  0.00  0.00     0.257 C 
HETATM    6  O   UNK N   1      23.548  14.025   5.837  0.00  0.00    -0.271 OA
HETATM    7  N   UNK N   1      22.371  15.832   6.428  0.00  0.00    -0.246 N 
HETATM    8  C   UNK N   1      21.440  16.430   7.227  0.00  0.00     0.337 C 
HETATM    9  O   UNK N   1      21.309  17.649   7.188  0.00  0.00    -0.246 OA
ENDROOT
BRANCH   4  10
HETATM   10  C   UNK N   1      22.760  13.188   8.704  0.00  0.00    -0.026 A 
HETATM   11  C   UNK N   1      24.142  13.470   8.696  0.00  0.00     0.009 A 
HETATM   12  C   UNK N   1      24.961  13.062   9.747  0.00  0.00     0.001 A 
HETATM   13  C   UNK N   1      24.412  12.372  10.826  0.00  0.00     0.000 A 
HETATM   14  C   UNK N   1      23.043  12.093  10.857  0.00  0.00     0.001 A 
HETATM   15  C   UNK N   1      22.219  12.495   9.801  0.00  0.00     0.009 A 
ENDBRANCH   4  10
BRANCH   4  16
HETATM   16  C   UNK N   1      21.540  12.289   6.758  0.00  0.00    -0.026 A 
HETATM   17  C   UNK N   1      20.385  12.281   5.944  0.00  0.00     0.009 A 
HETATM   18  C   UNK N   1      20.030  11.156   5.201  0.00  0.00     0.001 A 
HETATM   19  C   UNK N   1      20.824  10.012   5.258  0.00  0.00     0.000 A 
HETATM   20  C   UNK N   1      21.971   9.998   6.060  0.00  0.00     0.001 A 
HETATM   21  C   UNK N   1      22.335  11.132   6.803  0.00  0.00     0.009 A 
ENDBRANCH   4  16
BRANCH   1  22
HETATM   22  C   UNK N   1      19.694  16.398   8.912  0.00  0.00     0.305 C 
BRANCH  22  23
HETATM   23  O   UNK N   1      18.442  16.437   8.278  0.00  0.00    -0.376 OA
HETATM   24  C   UNK N   1      17.613  17.188   9.115  0.00  0.00     0.203 C 
ENDBRANCH  22  23
ENDBRANCH   1  22
BRANCH   7  25
HETATM   25  C   UNK N   1      23.106  16.641   5.469  0.00  0.00     0.305 C 
BRANCH  25  26
HETATM   26  O   UNK N   1      22.420  16.659   4.247  0.00  0.00    -0.376 OA
HETATM   27  C   UNK N   1      22.430  17.988   3.821  0.00  0.00     0.203 C 
ENDBRANCH  25  26
ENDBRANCH   7  25
TORSDOF 6
ENDMDL
MODEL 3
REMARK VINA RESULT:      -6.6      2.815      6.201
REMARK  6 active torsions:
REMARK  status: ('A' for Active; 'I' for Inactive)
REMARK    1  A    between atoms: O_2  and  C_3 
REMARK    2  A    between atoms: C_3  and  N_4 
REMARK    3  A    between atoms: C_7  and  C_16 
REMARK    4  A    between atoms: C_7  and  C_22 
REMARK    5  A    between atoms: N_10  and  C_13 
REMARK    6  A    between atoms: C_13  and  O_14 
ROOT
HETATM    1  N   UNK N   1      20.519  14.623   5.880  0.00  0.00    -0.246 N 
HETATM    2  C   UNK N   1      21.010  15.392   4.863  0.00  0.00     0.257 C 
HETATM    3  O   UNK N   1      21.120  14.906   3.743  0.00  0.00    -0.271 OA
HETATM    4  C   UNK N   1      21.586  16.785   5.129  0.00  0.00     0.177 C 
HETATM    5  C   UNK N   1      21.184  17.264   6.530  0.00  0.00     0.257 C 
HETATM    6  O   UNK N   1      21.456  18.411   6.867  0.00  0.00    -0.271 OA
HETATM    7  N   UNK N   1      20.556  16.439   7.419  0.00  0.00    -0.246 N 
HETATM    8  C   UNK N   1      20.299  15.131   7.126  0.00  0.00     0.337 C 
HETATM    9  O   UNK N   1      19.846  14.398   7.999  0.00  0.00    -0.246 OA
ENDROOT
BRANCH   4  10
HETATM   10  C   UNK N   1      23.096  16.577   5.000  0.00  0.00    -0.026 A 
HETATM   11  C   UNK N   1      23.741  16.888   3.785  0.00  0.00     0.009 A 
HETATM   12  C   UNK N   1      25.104  16.647   3.617  0.00  0.00     0.001 A 
HETATM   13  C   UNK N   1      25.845  16.099   4.664  0.00  0.00     0.000 A 
HETATM   14  C   UNK N   1      25.224  15.796   5.878  0.00  0.00     0.001 A 
HETATM   15  C   UNK N   1      23.856  16.029   6.047  0.00  0.00     0.009 A 
ENDBRANCH   4  10
BRANCH   4  16
HETATM   16  C   UNK N   1      21.193  17.879   4.121  0.00  0.00    -0.026 A 
HETATM   17  C   UNK N   1      19.947  17.771   3.464  0.00  0.00     0.009 A 
HETATM   18  C   UNK N   1      19.507  18.754   2.579  0.00  0.00     0.001 A 
HETATM   19  C   UNK N   1      20.308  19.866   2.330  0.00  0.00     0.000 A 
HETATM   20  C   UNK N   1      21.547  19.992   2.968  0.00  0.00     0.001 A 
HETATM   21  C   UNK N   1      21.988  19.008   3.866  0.00  0.00     0.009 A 
ENDBRANCH   4  16
BRANCH   1  22
HETATM   22  C   UNK N   1      20.263  13.214   5.640  0.00  0.00     0.305 C 
BRANCH  22  23
HETATM   23  O   UNK N   1      18.949  13.057   5.170  0.00  0.00    -0.376 OA
HETATM   24  C   UNK N   1      18.992  12.001   4.257  0.00  0.00     0.203 C 
ENDBRANCH  22  23
ENDBRANCH   1  22
BRANCH   7  25
HETATM   25  C   UNK N   1      20.182  16.960   8.724  0.00  0.00     0.305 C 
BRANCH  25  26
HETATM   26  O   UNK N   1      19.013  17.725   8.607  0.00  0.00    -0.376 OA
HETATM   27  C   UNK N   1      18.037  17.048   9.340  0.00  0.00     0.203 C 
ENDBRANCH  25  26
ENDBRANCH   7  25
TORSDOF 6
ENDMDL
MODEL 4
REMARK VINA RESULT:      -6.4      1.980      5.273
REMARK  6 active torsions:
REMARK  status: ('A' for Active; 'I' for Inactive)
REMARK    1  A    between atoms: O_2  and  C_3 
REMARK    2  A    between atoms: C_3  and  N_4 
REMARK    3  A    between atoms: C_7  and  C_16 
REMARK    4  A    between atoms: C_7  and  C_22 
REMARK    5  A    between atoms: N_10  and  C_13 
REMARK    6  A    between atoms: C_13  and  O_14 
ROOT
HETATM    1  N   UNK N   1      21.798  14.684   7.164  0.00  0.00    -0.246 N 
HETATM    2  C   UNK N   1      21.748  13.365   7.518  0.00  0.00     0.257 C 
HETATM    3  O   UNK N   1      20.679  12.878   7.867  0.00  0.00    -0.271 OA
HETATM    4  C   UNK N   1      23.025  12.534   7.658  0.00  0.00     0.177 C 
HETATM    5  C   UNK N   1      24.205  13.265   7.005  0.00  0.00     0.257 C 
HETATM    6  O   UNK N   1      25.285  12.690   6.915  0.00  0.00    -0.271 OA
HETATM    7  N   UNK N   1      24.093  14.547   6.546  0.00  0.00    -0.246 N 
HETATM    8  C   UNK N   1      22.939  15.261   6.692  0.00  0.00     0.337 C 
HETATM    9  O   UNK N   1      22.924  16.446   6.376  0.00  0.00    -0.246 OA
ENDROOT
BRANCH   4  10
HETATM   10  C   UNK N   1      23.197  12.395   9.172  0.00  0.00    -0.026 A 
HETATM   11  C   UNK N   1      24.491  12.421   9.732  0.00  0.00     0.009 A 
HETATM   12  C   UNK N   1      24.683  12.231  11.099  0.00  0.00     0.001 A 
HETATM   13  C   UNK N   1      23.583  12.019  11.930  0.00  0.00     0.000 A 
HETATM   14  C   UNK N   1      22.293  12.002  11.394  0.00  0.00     0.001 A 
HETATM   15  C   UNK N   1      22.098  12.185  10.022  0.00  0.00     0.009 A 
ENDBRANCH   4  10
BRANCH   4  16
HETATM   16  C   UNK N   1      22.968  11.110   7.078  0.00  0.00    -0.026 A 
HETATM   17  C   UNK N   1      22.285  10.910   5.857  0.00  0.00     0.009 A 
HETATM   18  C   UNK N   1      22.240   9.656   5.250  0.00  0.00     0.001 A 
HETATM   19  C   UNK N   1      22.875   8.573   5.855  0.00  0.00     0.000 A 
HETATM   20  C   UNK N   1      23.554   8.749   7.066  0.00  0.00     0.001 A 
HETATM   21  C   UNK N   1      23.608  10.012   7.674  0.00  0.00     0.009 A 
ENDBRANCH   4  16
BRANCH   1  22
HETATM   22  C   UNK N   1      20.612  15.506   7.332  0.00  0.00     0.305 C 
BRANCH  22  23
HETATM   23  O   UNK N   1      20.630  16.085   8.611  0.00  0.00    -0.376 OA
HETATM   24  C   UNK N   1      19.403  16.737   8.754  0.00  0.00     0.203 C 
ENDBRANCH  22  23
ENDBRANCH   1  22
BRANCH   7  25
HETATM   25  C   UNK N   1      25.243  15.176   5.918  0.00  0.00     0.305 C 
BRANCH  25  26
HETATM   26  O   UNK N   1      26.075  15.724   6.905  0.00  0.00    -0.376 OA
HETATM   27  C   UNK N   1      27.124  16.341   6.222  0.00  0.00     0.203 C 
ENDBRANCH  25  26
ENDBRANCH   7  25
TORSDOF 6
ENDMDL
MODEL 5
REMARK VINA RESULT:      -6.3      3.649      5.712
REMARK  6 active torsions:
REMARK  status: ('A' for Active; 'I' for Inactive)
REMARK    1  A    between atoms: O_2  and  C_3 
REMARK    2  A    between atoms: C_3  and  N_4 
REMARK    3  A    between atoms: C_7  and  C_16 
REMARK    4  A    between atoms: C_7  and  C_22 
REMARK    5  A    between atoms: N_10  and  C_13 
REMARK    6  A    between atoms: C_13  and  O_14 
ROOT
HETATM    1  N   UNK N   1      23.929  18.905   3.881  0.00  0.00    -0.246 N 
HETATM    2  C   UNK N   1      23.627  17.658   4.353  0.00  0.00     0.257 C 
HETATM    3  O   UNK N   1      24.521  16.963   4.822  0.00  0.00    -0.271 OA
HETATM    4  C   UNK N   1      22.239  17.048   4.149  0.00  0.00     0.177 C 
HETATM    5  C   UNK N   1      21.242  18.134   3.723  0.00  0.00     0.257 C 
HETATM    6  O   UNK N   1      20.053  17.848   3.632  0.00  0.00    -0.271 OA
HETATM    7  N   UNK N   1      21.648  19.402   3.415  0.00  0.00    -0.246 N 
HETATM    8  C   UNK N   1      22.966  19.755   3.423  0.00  0.00     0.337 C 
HETATM    9  O   UNK N   1      23.291  20.867   3.022  0.00  0.00    -0.246 OA
ENDROOT
BRANCH   4  10
HETATM   10  C   UNK N   1      22.465  16.007   3.051  0.00  0.00    -0.026 A 
HETATM   11  C   UNK N   1      21.457  15.775   2.092  0.00  0.00     0.009 A 
HETATM   12  C   UNK N   1      21.608  14.788   1.120  0.00  0.00     0.001 A 
HETATM   13  C   UNK N   1      22.772  14.021   1.086  0.00  0.00     0.000 A 
HETATM   14  C   UNK N   1      23.786  14.245   2.021  0.00  0.00     0.001 A 
HETATM   15  C   UNK N   1      23.634  15.230   3.002  0.00  0.00     0.009 A 
ENDBRANCH   4  10
BRANCH   4  16
HETATM   16  C   UNK N   1      21.646  16.306   5.359  0.00  0.00    -0.026 A 
HETATM   17  C   UNK N   1      21.474  17.020   6.566  0.00  0.00     0.009 A 
HETATM   18  C   UNK N   1      20.894  16.424   7.684  0.00  0.00     0.001 A 
HETATM   19  C   UNK N   1      20.476  15.096   7.619  0.00  0.00     0.000 A 
HETATM   20  C   UNK N   1      20.638  14.370   6.434  0.00  0.00     0.001 A 
HETATM   21  C   UNK N   1      21.214  14.971   5.304  0.00  0.00     0.009 A 
ENDBRANCH   4  16
BRANCH   1  22
HETATM   22  C   UNK N   1      25.319  19.323   3.828  0.00  0.00     0.305 C 
BRANCH  22  23
HETATM   23  O   UNK N   1      25.665  19.929   5.047  0.00  0.00    -0.376 OA
HETATM   24  C   UNK N   1      26.853  20.622   4.805  0.00  0.00     0.203 C 
ENDBRANCH  22  23
ENDBRANCH   1  22
BRANCH   7  25
HETATM   25  C   UNK N   1      20.651  20.391   3.038  0.00  0.00     0.305 C 
BRANCH  25  26
HETATM   26  O   UNK N   1      20.194  20.125   1.740  0.00  0.00    -0.376 OA
HETATM   27  C   UNK N   1      20.655  21.178   0.949  0.00  0.00     0.203 C 
ENDBRANCH  25  26
ENDBRANCH   7  25
TORSDOF 6
ENDMDL
MODEL 6
REMARK VINA RESULT:      -6.3      6.689      9.890
REMARK  6 active torsions:
REMARK  status: ('A' for Active; 'I' for Inactive)
REMARK    1  A    between atoms: O_2  and  C_3 
REMARK    2  A    between atoms: C_3  and  N_4 
REMARK    3  A    between atoms: C_7  and  C_16 
REMARK    4  A    between atoms: C_7  and  C_22 
REMARK    5  A    between atoms: N_10  and  C_13 
REMARK    6  A    between atoms: C_13  and  O_14 
ROOT
HETATM    1  N   UNK N   1      30.100  17.137   6.894  0.00  0.00    -0.246 N 
HETATM    2  C   UNK N   1      28.791  17.307   6.541  0.00  0.00     0.257 C 
HETATM    3  O   UNK N   1      27.964  17.555   7.412  0.00  0.00    -0.271 OA
HETATM    4  C   UNK N   1      28.310  17.023   5.117  0.00  0.00     0.177 C 
HETATM    5  C   UNK N   1      29.509  16.915   4.166  0.00  0.00     0.257 C 
HETATM    6  O   UNK N   1      29.306  16.811   2.961  0.00  0.00    -0.271 OA
HETATM    7  N   UNK N   1      30.795  16.905   4.628  0.00  0.00    -0.246 N 
HETATM    8  C   UNK N   1      31.077  16.939   5.963  0.00  0.00     0.337 C 
HETATM    9  O   UNK N   1      32.238  16.804   6.334  0.00  0.00    -0.246 OA
ENDROOT
BRANCH   4  10
HETATM   10  C   UNK N   1      27.557  15.698   5.252  0.00  0.00    -0.026 A 
HETATM   11  C   UNK N   1      26.394  15.634   6.046  0.00  0.00     0.009 A 
HETATM   12  C   UNK N   1      25.725  14.427   6.239  0.00  0.00     0.001 A 
HETATM   13  C   UNK N   1      26.205  13.265   5.637  0.00  0.00     0.000 A 
HETATM   14  C   UNK N   1      27.350  13.311   4.837  0.00  0.00     0.001 A 
HETATM   15  C   UNK N   1      28.027  14.519   4.647  0.00  0.00     0.009 A 
ENDBRANCH   4  10
BRANCH   4  16
HETATM   16  C   UNK N   1      27.323  18.044   4.524  0.00  0.00    -0.026 A 
HETATM   17  C   UNK N   1      27.657  19.415   4.588  0.00  0.00     0.009 A 
HETATM   18  C   UNK N   1      26.833  20.388   4.024  0.00  0.00     0.001 A 
HETATM   19  C   UNK N   1      25.654  20.008   3.385  0.00  0.00     0.000 A 
HETATM   20  C   UNK N   1      25.303  18.656   3.313  0.00  0.00     0.001 A 
HETATM   21  C   UNK N   1      26.136  17.674   3.873  0.00  0.00     0.009 A 
ENDBRANCH   4  16
BRANCH   1  22
HETATM   22  C   UNK N   1      30.457  17.124   8.302  0.00  0.00     0.305 C 
BRANCH  22  23
HETATM   23  O   UNK N   1      30.737  18.436   8.717  0.00  0.00    -0.376 OA
HETATM   24  C   UNK N   1      29.880  18.689   9.791  0.00  0.00     0.203 C 
ENDBRANCH  22  23
ENDBRANCH   1  22
BRANCH   7  25
HETATM   25  C   UNK N   1      31.888  16.821   3.674  0.00  0.00     0.305 C 
BRANCH  25  26
HETATM   26  O   UNK N   1      32.140  15.477   3.366  0.00  0.00    -0.376 OA
HETATM   27  C   UNK N   1      33.529  15.353   3.301  0.00  0.00     0.203 C 
ENDBRANCH  25  26
ENDBRANCH   7  25
TORSDOF 6
ENDMDL
MODEL 7
REMARK VINA RESULT:      -6.2     13.417     15.502
REMARK  6 active torsions:
REMARK  status: ('A' for Active; 'I' for Inactive)
REMARK    1  A    between atoms: O_2  and  C_3 
REMARK    2  A    between atoms: C_3  and  N_4 
REMARK    3  A    between atoms: C_7  and  C_16 
REMARK    4  A    between atoms: C_7  and  C_22 
REMARK    5  A    between atoms: N_10  and  C_13 
REMARK    6  A    between atoms: C_13  and  O_14 
ROOT
HETATM    1  N   UNK N   1      37.787  13.314  10.778  0.00  0.00    -0.246 N 
HETATM    2  C   UNK N   1      37.282  12.657  11.865  0.00  0.00     0.257 C 
HETATM    3  O   UNK N   1      37.937  11.757  12.378  0.00  0.00    -0.271 OA
HETATM    4  C   UNK N   1      35.850  12.900  12.344  0.00  0.00     0.177 C 
HETATM    5  C   UNK N   1      35.286  14.172  11.698  0.00  0.00     0.257 C 
HETATM    6  O   UNK N   1      34.191  14.589  12.060  0.00  0.00    -0.271 OA
HETATM    7  N   UNK N   1      35.958  14.836  10.711  0.00  0.00    -0.246 N 
HETATM    8  C   UNK N   1      37.142  14.374  10.214  0.00  0.00     0.337 C 
HETATM    9  O   UNK N   1      37.646  14.935   9.247  0.00  0.00    -0.246 OA
ENDROOT
BRANCH   4  10
HETATM   10  C   UNK N   1      35.104  11.643  11.893  0.00  0.00    -0.026 A 
HETATM   11  C   UNK N   1      34.494  11.613  10.621  0.00  0.00     0.009 A 
HETATM   12  C   UNK N   1      33.753  10.507  10.210  0.00  0.00     0.001 A 
HETATM   13  C   UNK N   1      33.615   9.410  11.059  0.00  0.00     0.000 A 
HETATM   14  C   UNK N   1      34.222   9.417  12.318  0.00  0.00     0.001 A 
HETATM   15  C   UNK N   1      34.960  10.529  12.737  0.00  0.00     0.009 A 
ENDBRANCH   4  10
BRANCH   4  16
HETATM   16  C   UNK N   1      35.659  13.016  13.866  0.00  0.00    -0.026 A 
HETATM   17  C   UNK N   1      36.579  13.797  14.600  0.00  0.00     0.009 A 
HETATM   18  C   UNK N   1      36.435  13.986  15.973  0.00  0.00     0.001 A 
HETATM   19  C   UNK N   1      35.366  13.393  16.643  0.00  0.00     0.000 A 
HETATM   20  C   UNK N   1      34.445  12.613  15.936  0.00  0.00     0.001 A 
HETATM   21  C   UNK N   1      34.584  12.428  14.551  0.00  0.00     0.009 A 
ENDBRANCH   4  16
BRANCH   1  22
HETATM   22  C   UNK N   1      39.024  12.844  10.181  0.00  0.00     0.305 C 
BRANCH  22  23
HETATM   23  O   UNK N   1      38.735  11.815   9.270  0.00  0.00    -0.376 OA
HETATM   24  C   UNK N   1      39.915  11.593   8.556  0.00  0.00     0.203 C 
ENDBRANCH  22  23
ENDBRANCH   1  22
BRANCH   7  25
HETATM   25  C   UNK N   1      35.380  16.048  10.154  0.00  0.00     0.305 C 
BRANCH  25  26
HETATM   26  O   UNK N   1      34.485  15.712   9.129  0.00  0.00    -0.376 OA
HETATM   27  C   UNK N   1      34.521  16.776   8.225  0.00  0.00     0.203 C 
ENDBRANCH  25  26
ENDBRANCH   7  25
TORSDOF 6
ENDMDL
MODEL 8
REMARK VINA RESULT:      -6.2     16.541     18.810
REMARK  6 active torsions:
REMARK  status: ('A' for Active; 'I' for Inactive)
REMARK    1  A    between atoms: O_2  and  C_3 
REMARK    2  A    between atoms: C_3  and  N_4 
REMARK    3  A    between atoms: C_7  and  C_16 
REMARK    4  A    between atoms: C_7  and  C_22 
REMARK    5  A    between atoms: N_10  and  C_13 
REMARK    6  A    between atoms: C_13  and  O_14 
ROOT
HETATM    1  N   UNK N   1      29.985  24.094  -3.805  0.00  0.00    -0.246 N 
HETATM    2  C   UNK N   1      28.642  24.285  -3.977  0.00  0.00     0.257 C 
HETATM    3  O   UNK N   1      27.860  23.791  -3.173  0.00  0.00    -0.271 OA
HETATM    4  C   UNK N   1      28.091  24.949  -5.240  0.00  0.00     0.177 C 
HETATM    5  C   UNK N   1      29.222  25.647  -6.007  0.00  0.00     0.257 C 
HETATM    6  O   UNK N   1      28.943  26.334  -6.983  0.00  0.00    -0.271 OA
HETATM    7  N   UNK N   1      30.531  25.500  -5.648  0.00  0.00    -0.246 N 
HETATM    8  C   UNK N   1      30.906  24.684  -4.619  0.00  0.00     0.337 C 
HETATM    9  O   UNK N   1      32.099  24.489  -4.413  0.00  0.00    -0.246 OA
ENDROOT
BRANCH   4  10
HETATM   10  C   UNK N   1      27.495  23.779  -6.027  0.00  0.00    -0.026 A 
HETATM   11  C   UNK N   1      28.328  23.002  -6.858  0.00  0.00     0.009 A 
HETATM   12  C   UNK N   1      27.802  21.972  -7.635  0.00  0.00     0.001 A 
HETATM   13  C   UNK N   1      26.435  21.698  -7.590  0.00  0.00     0.000 A 
HETATM   14  C   UNK N   1      25.597  22.451  -6.764  0.00  0.00     0.001 A 
HETATM   15  C   UNK N   1      26.121  23.489  -5.988  0.00  0.00     0.009 A 
ENDBRANCH   4  10
BRANCH   4  16
HETATM   16  C   UNK N   1      26.961  25.970  -5.025  0.00  0.00    -0.026 A 
HETATM   17  C   UNK N   1      26.974  26.747  -3.846  0.00  0.00     0.009 A 
HETATM   18  C   UNK N   1      26.010  27.727  -3.613  0.00  0.00     0.001 A 
HETATM   19  C   UNK N   1      25.008  27.947  -4.557  0.00  0.00     0.000 A 
HETATM   20  C   UNK N   1      24.975  27.187  -5.731  0.00  0.00     0.001 A 
HETATM   21  C   UNK N   1      25.950  26.206  -5.971  0.00  0.00     0.009 A 
ENDBRANCH   4  16
BRANCH   1  22
HETATM   22  C   UNK N   1      30.443  23.206  -2.752  0.00  0.00     0.305 C 
BRANCH  22  23
HETATM   23  O   UNK N   1      30.462  21.888  -3.236  0.00  0.00    -0.376 OA
HETATM   24  C   UNK N   1      31.761  21.421  -3.022  0.00  0.00     0.203 C 
ENDBRANCH  22  23
ENDBRANCH   1  22
BRANCH   7  25
HETATM   25  C   UNK N   1      31.555  26.205  -6.402  0.00  0.00     0.305 C 
BRANCH  25  26
HETATM   26  O   UNK N   1      31.809  27.445  -5.801  0.00  0.00    -0.376 OA
HETATM   27  C   UNK N   1      31.890  28.368  -6.846  0.00  0.00     0.203 C 
ENDBRANCH  25  26
ENDBRANCH   7  25
TORSDOF 6
ENDMDL
MODEL 9
REMARK VINA RESULT:      -6.2      3.141      7.073
REMARK  6 active torsions:
REMARK  status: ('A' for Active; 'I' for Inactive)
REMARK    1  A    between atoms: O_2  and  C_3 
REMARK    2  A    between atoms: C_3  and  N_4 
REMARK    3  A    between atoms: C_7  and  C_16 
REMARK    4  A    between atoms: C_7  and  C_22 
REMARK    5  A    between atoms: N_10  and  C_13 
REMARK    6  A    between atoms: C_13  and  O_14 
ROOT
HETATM    1  N   UNK N   1      21.848  16.318   6.575  0.00  0.00    -0.246 N 
HETATM    2  C   UNK N   1      22.178  17.508   5.990  0.00  0.00     0.257 C 
HETATM    3  O   UNK N   1      21.859  18.555   6.542  0.00  0.00    -0.271 OA
HETATM    4  C   UNK N   1      22.779  17.562   4.584  0.00  0.00     0.177 C 
HETATM    5  C   UNK N   1      23.263  16.168   4.164  0.00  0.00     0.257 C 
HETATM    6  O   UNK N   1      23.883  16.044   3.113  0.00  0.00    -0.271 OA
HETATM    7  N   UNK N   1      22.998  15.057   4.914  0.00  0.00    -0.246 N 
HETATM    8  C   UNK N   1      22.245  15.123   6.051  0.00  0.00     0.337 C 
HETATM    9  O   UNK N   1      21.932  14.085   6.623  0.00  0.00    -0.246 OA
ENDROOT
BRANCH   4  10
HETATM   10  C   UNK N   1      21.618  18.056   3.719  0.00  0.00    -0.026 A 
HETATM   11  C   UNK N   1      21.159  19.382   3.860  0.00  0.00     0.009 A 
HETATM   12  C   UNK N   1      20.062  19.840   3.133  0.00  0.00     0.001 A 
HETATM   13  C   UNK N   1      19.410  18.982   2.247  0.00  0.00     0.000 A 
HETATM   14  C   UNK N   1      19.859  17.669   2.086  0.00  0.00     0.001 A 
HETATM   15  C   UNK N   1      20.955  17.204   2.819  0.00  0.00     0.009 A 
ENDBRANCH   4  10
BRANCH   4  16
HETATM   16  C   UNK N   1      23.942  18.548   4.386  0.00  0.00    -0.026 A 
HETATM   17  C   UNK N   1      25.097  18.394   5.185  0.00  0.00     0.009 A 
HETATM   18  C   UNK N   1      26.207  19.221   5.020  0.00  0.00     0.001 A 
HETATM   19  C   UNK N   1      26.183  20.224   4.053  0.00  0.00     0.000 A 
HETATM   20  C   UNK N   1      25.048  20.396   3.253  0.00  0.00     0.001 A 
HETATM   21  C   UNK N   1      23.933  19.559   3.411  0.00  0.00     0.009 A 
ENDBRANCH   4  16
BRANCH   1  22
HETATM   22  C   UNK N   1      21.017  16.322   7.766  0.00  0.00     0.305 C 
BRANCH  22  23
HETATM   23  O   UNK N   1      19.665  16.340   7.384  0.00  0.00    -0.376 OA
HETATM   24  C   UNK N   1      18.957  16.780   8.505  0.00  0.00     0.203 C 
ENDBRANCH  22  23
ENDBRANCH   1  22
BRANCH   7  25
HETATM   25  C   UNK N   1      23.502  13.768   4.472  0.00  0.00     0.305 C 
BRANCH  25  26
HETATM   26  O   UNK N   1      24.761  13.535   5.044  0.00  0.00    -0.376 OA
HETATM   27  C   UNK N   1      25.553  13.004   4.024  0.00  0.00     0.203 C 
ENDBRANCH  25  26
ENDBRANCH   7  25
TORSDOF 6
ENDMDL
