MODEL 1
REMARK VINA RESULT:      -7.8      0.000      0.000
REMARK  13 active torsions:
REMARK  status: ('A' for Active; 'I' for Inactive)
REMARK       I    between atoms: C_2  and  N_4 
REMARK    1  A    between atoms: N_4  and  C_5 
REMARK    2  A    between atoms: N_4  and  C_25 
REMARK    3  A    between atoms: C_5  and  C_6 
REMARK    4  A    between atoms: C_6  and  C_7 
REMARK    5  A    between atoms: C_7  and  C_8 
REMARK    6  A    between atoms: C_8  and  N_9 
REMARK    7  A    between atoms: N_9  and  C_10 
REMARK    8  A    between atoms: C_10  and  C_11 
REMARK    9  A    between atoms: C_11  and  C_12 
REMARK   10  A    between atoms: C_12  and  N_13 
REMARK   11  A    between atoms: C_25  and  C_26 
REMARK   12  A    between atoms: C_26  and  C_27 
REMARK   13  A    between atoms: C_27  and  N_28 
ROOT
HETATM    1  C   UNK N   1      22.755  18.032   5.476  0.00  0.00     0.126 C 
ENDROOT
BRANCH   1   2
HETATM    2  N   UNK N   1      21.683  17.185   5.943  0.00  0.00    -0.352 N 
HETATM    3  C   UNK N   1      20.797  17.613   6.896  0.00  0.00     0.215 C 
HETATM    4  C   UNK N   1      19.665  16.763   7.360  0.00  0.00     0.117 C 
HETATM    5  O   UNK N   1      20.915  18.711   7.398  0.00  0.00    -0.274 OA
BRANCH   2   6
HETATM    6  C   UNK N   1      21.624  15.847   5.426  0.00  0.00     0.127 C 
BRANCH   6   7
HETATM    7  C   UNK N   1      23.004  15.241   5.577  0.00  0.00     0.040 C 
BRANCH   7   8
HETATM    8  C   UNK N   1      22.904  13.755   5.820  0.00  0.00     0.139 C 
BRANCH   8   9
HETATM    9  N   UNK N   1      22.609  13.321   7.199  0.00  0.00    -0.266 N 
HETATM   10  C   UNK N   1      23.701  13.103   8.018  0.00  0.00     0.264 A 
HETATM   11  O   UNK N   1      24.833  13.268   7.584  0.00  0.00    -0.267 OA
HETATM   12  C   UNK N   1      23.519  12.702   9.343  0.00  0.00     0.059 A 
HETATM   13  C   UNK N   1      24.610  12.485  10.195  0.00  0.00     0.019 A 
HETATM   14  C   UNK N   1      22.214  12.518   9.826  0.00  0.00     0.052 A 
HETATM   15  C   UNK N   1      24.396  12.089  11.517  0.00  0.00     0.001 A 
HETATM   16  C   UNK N   1      23.094  11.906  11.993  0.00  0.00     0.002 A 
HETATM   17  C   UNK N   1      22.003  12.120  11.147  0.00  0.00     0.030 A 
HETATM   18  N   UNK N   1      21.158  12.731   9.012  0.00  0.00    -0.307 N 
HETATM   19  C   UNK N   1      21.329  13.128   7.718  0.00  0.00     0.329 A 
HETATM   20  H   UNK N   1      20.246  12.597   9.358  0.00  0.00     0.170 HD
HETATM   21  O   UNK N   1      20.340  13.307   7.037  0.00  0.00    -0.246 OA
ENDBRANCH   8   9
ENDBRANCH   7   8
ENDBRANCH   6   7
ENDBRANCH   2   6
ENDBRANCH   1   2
BRANCH   1  22
HETATM   22  C   UNK N   1      22.407  18.601   4.108  0.00  0.00     0.021 C 
BRANCH  22  23
HETATM   23  C   UNK N   1      23.526  19.492   3.600  0.00  0.00     0.021 C 
BRANCH  23  24
HETATM   24  C   UNK N   1      24.813  19.199   4.350  0.00  0.00     0.113 C 
BRANCH  24  25
HETATM   25  N   UNK N   1      25.802  18.638   3.435  0.00  0.00    -0.421 N 
HETATM   26  H   UNK N   1      26.043  19.007   2.515  0.00  0.00     0.153 HD
BRANCH  25  27
HETATM   27  C   UNK N   1      26.384  17.462   4.064  0.00  0.00     0.115 C 
BRANCH  27  28
HETATM   28  C   UNK N   1      26.817  17.774   5.474  0.00  0.00     0.040 C 
BRANCH  28  29
HETATM   29  C   UNK N   1      27.523  16.560   6.028  0.00  0.00     0.139 C 
BRANCH  29  30
HETATM   30  N   UNK N   1      28.806  16.939   6.614  0.00  0.00    -0.266 N 
HETATM   31  C   UNK N   1      29.927  16.922   5.818  0.00  0.00     0.264 A 
HETATM   32  O   UNK N   1      29.837  16.629   4.634  0.00  0.00    -0.267 OA
HETATM   33  C   UNK N   1      31.175  17.225   6.371  0.00  0.00     0.059 A 
HETATM   34  C   UNK N   1      32.344  17.188   5.602  0.00  0.00     0.019 A 
HETATM   35  C   UNK N   1      31.248  17.558   7.738  0.00  0.00     0.052 A 
HETATM   36  C   UNK N   1      33.578  17.469   6.193  0.00  0.00     0.001 A 
HETATM   37  C   UNK N   1      33.648  17.796   7.551  0.00  0.00     0.002 A 
HETATM   38  C   UNK N   1      32.484  17.844   8.322  0.00  0.00     0.030 A 
HETATM   39  N   UNK N   1      30.126  17.584   8.492  0.00  0.00    -0.307 N 
HETATM   40  C   UNK N   1      28.908  17.273   7.954  0.00  0.00     0.329 A 
HETATM   41  H   UNK N   1      30.188  17.829   9.443  0.00  0.00     0.170 HD
HETATM   42  O   UNK N   1      27.930  17.271   8.674  0.00  0.00    -0.246 OA
ENDBRANCH  29  30
ENDBRANCH  28  29
ENDBRANCH  27  28
ENDBRANCH  25  27
ENDBRANCH  24  25
ENDBRANCH  23  24
ENDBRANCH  22  23
ENDBRANCH   1  22
TORSDOF 13
ENDMDL
MODEL 2
REMARK VINA RESULT:      -7.6      2.093      3.335
REMARK  13 active torsions:
REMARK  status: ('A' for Active; 'I' for Inactive)
REMARK       I    between atoms: C_2  and  N_4 
REMARK    1  A    between atoms: N_4  and  C_5 
REMARK    2  A    between atoms: N_4  and  C_25 
REMARK    3  A    between atoms: C_5  and  C_6 
REMARK    4  A    between atoms: C_6  and  C_7 
REMARK    5  A    between atoms: C_7  and  C_8 
REMARK    6  A    between atoms: C_8  and  N_9 
REMARK    7  A    between atoms: N_9  and  C_10 
REMARK    8  A    between atoms: C_10  and  C_11 
REMARK    9  A    between atoms: C_11  and  C_12 
REMARK   10  A    between atoms: C_12  and  N_13 
REMARK   11  A    between atoms: C_25  and  C_26 
REMARK   12  A    between atoms: C_26  and  C_27 
REMARK   13  A    between atoms: C_27  and  N_28 
ROOT
HETATM    1  C   UNK N   1      22.376  18.715   4.316  0.00  0.00     0.126 C 
ENDROOT
BRANCH   1   2
HETATM    2  N   UNK N   1      21.598  18.922   3.118  0.00  0.00    -0.352 N 
HETATM    3  C   UNK N   1      21.618  20.119   2.451  0.00  0.00     0.215 C 
HETATM    4  C   UNK N   1      20.848  20.335   1.194  0.00  0.00     0.117 C 
HETATM    5  O   UNK N   1      22.269  21.050   2.875  0.00  0.00    -0.274 OA
BRANCH   2   6
HETATM    6  C   UNK N   1      20.741  17.851   2.691  0.00  0.00     0.127 C 
BRANCH   6   7
HETATM    7  C   UNK N   1      19.864  17.477   3.867  0.00  0.00     0.040 C 
BRANCH   7   8
HETATM    8  C   UNK N   1      19.781  15.977   4.007  0.00  0.00     0.139 C 
BRANCH   8   9
HETATM    9  N   UNK N   1      20.605  15.357   5.064  0.00  0.00    -0.266 N 
HETATM   10  C   UNK N   1      20.064  15.355   6.337  0.00  0.00     0.264 A 
HETATM   11  O   UNK N   1      18.964  15.853   6.535  0.00  0.00    -0.267 OA
HETATM   12  C   UNK N   1      20.765  14.779   7.398  0.00  0.00     0.059 A 
HETATM   13  C   UNK N   1      20.234  14.756   8.695  0.00  0.00     0.019 A 
HETATM   14  C   UNK N   1      22.025  14.211   7.154  0.00  0.00     0.052 A 
HETATM   15  C   UNK N   1      20.957  14.168   9.736  0.00  0.00     0.001 A 
HETATM   16  C   UNK N   1      22.212  13.605   9.487  0.00  0.00     0.002 A 
HETATM   17  C   UNK N   1      22.747  13.627   8.197  0.00  0.00     0.030 A 
HETATM   18  N   UNK N   1      22.541  14.225   5.906  0.00  0.00    -0.307 N 
HETATM   19  C   UNK N   1      21.859  14.782   4.864  0.00  0.00     0.329 A 
HETATM   20  H   UNK N   1      23.426  13.827   5.745  0.00  0.00     0.170 HD
HETATM   21  O   UNK N   1      22.373  14.760   3.764  0.00  0.00    -0.246 OA
ENDBRANCH   8   9
ENDBRANCH   7   8
ENDBRANCH   6   7
ENDBRANCH   2   6
ENDBRANCH   1   2
BRANCH   1  22
HETATM   22  C   UNK N   1      23.654  17.960   3.979  0.00  0.00     0.021 C 
BRANCH  22  23
HETATM   23  C   UNK N   1      24.792  18.411   4.876  0.00  0.00     0.021 C 
BRANCH  23  24
HETATM   24  C   UNK N   1      26.089  18.473   4.088  0.00  0.00     0.113 C 
BRANCH  24  25
HETATM   25  N   UNK N   1      27.224  18.491   5.004  0.00  0.00    -0.421 N 
HETATM   26  H   UNK N   1      27.911  17.746   5.122  0.00  0.00     0.153 HD
BRANCH  25  27
HETATM   27  C   UNK N   1      27.207  19.758   5.720  0.00  0.00     0.115 C 
BRANCH  27  28
HETATM   28  C   UNK N   1      27.915  19.629   7.045  0.00  0.00     0.040 C 
BRANCH  28  29
HETATM   29  C   UNK N   1      28.185  18.164   7.291  0.00  0.00     0.139 C 
BRANCH  29  30
HETATM   30  N   UNK N   1      29.597  17.950   7.598  0.00  0.00    -0.266 N 
HETATM   31  C   UNK N   1      30.439  17.547   6.589  0.00  0.00     0.264 A 
HETATM   32  O   UNK N   1      30.013  17.408   5.451  0.00  0.00    -0.267 OA
HETATM   33  C   UNK N   1      31.782  17.280   6.872  0.00  0.00     0.059 A 
HETATM   34  C   UNK N   1      32.664  16.837   5.878  0.00  0.00     0.019 A 
HETATM   35  C   UNK N   1      32.243  17.447   8.191  0.00  0.00     0.052 A 
HETATM   36  C   UNK N   1      33.993  16.554   6.200  0.00  0.00     0.001 A 
HETATM   37  C   UNK N   1      34.448  16.718   7.513  0.00  0.00     0.002 A 
HETATM   38  C   UNK N   1      33.575  17.168   8.507  0.00  0.00     0.030 A 
HETATM   39  N   UNK N   1      31.396  17.862   9.160  0.00  0.00    -0.307 N 
HETATM   40  C   UNK N   1      30.079  18.109   8.886  0.00  0.00     0.329 A 
HETATM   41  H   UNK N   1      31.732  17.986  10.077  0.00  0.00     0.170 HD
HETATM   42  O   UNK N   1      29.342  18.443   9.792  0.00  0.00    -0.246 OA
ENDBRANCH  29  30
ENDBRANCH  28  29
ENDBRANCH  27  28
ENDBRANCH  25  27
ENDBRANCH  24  25
ENDBRANCH  23  24
ENDBRANCH  22  23
ENDBRANCH   1  22
TORSDOF 13
ENDMDL
MODEL 3
REMARK VINA RESULT:      -7.5      4.174      6.502
REMARK  13 active torsions:
REMARK  status: ('A' for Active; 'I' for Inactive)
REMARK       I    between atoms: C_2  and  N_4 
REMARK    1  A    between atoms: N_4  and  C_5 
REMARK    2  A    between atoms: N_4  and  C_25 
REMARK    3  A    between atoms: C_5  and  C_6 
REMARK    4  A    between atoms: C_6  and  C_7 
REMARK    5  A    between atoms: C_7  and  C_8 
REMARK    6  A    between atoms: C_8  and  N_9 
REMARK    7  A    between atoms: N_9  and  C_10 
REMARK    8  A    between atoms: C_10  and  C_11 
REMARK    9  A    between atoms: C_11  and  C_12 
REMARK   10  A    between atoms: C_12  and  N_13 
REMARK   11  A    between atoms: C_25  and  C_26 
REMARK   12  A    between atoms: C_26  and  C_27 
REMARK   13  A    between atoms: C_27  and  N_28 
ROOT
HETATM    1  C   UNK N   1      27.268  18.154   3.857  0.00  0.00     0.126 C 
ENDROOT
BRANCH   1   2
HETATM    2  N   UNK N   1      27.016  19.506   4.297  0.00  0.00    -0.352 N 
HETATM    3  C   UNK N   1      26.999  19.833   5.627  0.00  0.00     0.215 C 
HETATM    4  C   UNK N   1      26.777  21.230   6.094  0.00  0.00     0.117 C 
HETATM    5  O   UNK N   1      27.161  18.980   6.474  0.00  0.00    -0.274 OA
BRANCH   2   6
HETATM    6  C   UNK N   1      26.710  20.483   3.290  0.00  0.00     0.127 C 
BRANCH   6   7
HETATM    7  C   UNK N   1      25.440  20.036   2.597  0.00  0.00     0.040 C 
BRANCH   7   8
HETATM    8  C   UNK N   1      24.229  20.588   3.309  0.00  0.00     0.139 C 
BRANCH   8   9
HETATM    9  N   UNK N   1      23.002  19.768   3.275  0.00  0.00    -0.266 N 
HETATM   10  C   UNK N   1      22.921  18.751   4.207  0.00  0.00     0.264 A 
HETATM   11  O   UNK N   1      23.839  18.570   4.996  0.00  0.00    -0.267 OA
HETATM   12  C   UNK N   1      21.792  17.931   4.259  0.00  0.00     0.059 A 
HETATM   13  C   UNK N   1      21.683  16.899   5.202  0.00  0.00     0.019 A 
HETATM   14  C   UNK N   1      20.747  18.152   3.349  0.00  0.00     0.052 A 
HETATM   15  C   UNK N   1      20.538  16.100   5.232  0.00  0.00     0.001 A 
HETATM   16  C   UNK N   1      19.501  16.323   4.323  0.00  0.00     0.002 A 
HETATM   17  C   UNK N   1      19.605  17.349   3.380  0.00  0.00     0.030 A 
HETATM   18  N   UNK N   1      20.843  19.148   2.442  0.00  0.00    -0.307 N 
HETATM   19  C   UNK N   1      21.941  19.955   2.389  0.00  0.00     0.329 A 
HETATM   20  H   UNK N   1      20.107  19.294   1.805  0.00  0.00     0.170 HD
HETATM   21  O   UNK N   1      21.968  20.836   1.554  0.00  0.00    -0.246 OA
ENDBRANCH   8   9
ENDBRANCH   7   8
ENDBRANCH   6   7
ENDBRANCH   2   6
ENDBRANCH   1   2
BRANCH   1  22
HETATM   22  C   UNK N   1      28.722  17.787   4.116  0.00  0.00     0.021 C 
BRANCH  22  23
HETATM   23  C   UNK N   1      29.136  16.608   3.255  0.00  0.00     0.021 C 
BRANCH  23  24
HETATM   24  C   UNK N   1      30.641  16.605   3.057  0.00  0.00     0.113 C 
BRANCH  24  25
HETATM   25  N   UNK N   1      31.127  15.232   2.976  0.00  0.00    -0.421 N 
HETATM   26  H   UNK N   1      30.552  14.400   2.842  0.00  0.00     0.153 HD
BRANCH  25  27
HETATM   27  C   UNK N   1      32.576  15.256   3.118  0.00  0.00     0.115 C 
BRANCH  27  28
HETATM   28  C   UNK N   1      33.002  16.392   4.013  0.00  0.00     0.040 C 
BRANCH  28  29
HETATM   29  C   UNK N   1      33.318  15.823   5.375  0.00  0.00     0.139 C 
BRANCH  29  30
HETATM   30  N   UNK N   1      32.619  16.573   6.416  0.00  0.00    -0.266 N 
HETATM   31  C   UNK N   1      31.327  16.223   6.728  0.00  0.00     0.264 A 
HETATM   32  O   UNK N   1      30.793  15.276   6.168  0.00  0.00    -0.267 OA
HETATM   33  C   UNK N   1      30.620  16.963   7.681  0.00  0.00     0.059 A 
HETATM   34  C   UNK N   1      29.292  16.658   8.005  0.00  0.00     0.019 A 
HETATM   35  C   UNK N   1      31.260  18.048   8.309  0.00  0.00     0.052 A 
HETATM   36  C   UNK N   1      28.605  17.434   8.940  0.00  0.00     0.001 A 
HETATM   37  C   UNK N   1      29.242  18.513   9.560  0.00  0.00     0.002 A 
HETATM   38  C   UNK N   1      30.570  18.818   9.248  0.00  0.00     0.030 A 
HETATM   39  N   UNK N   1      32.537  18.359   7.994  0.00  0.00    -0.307 N 
HETATM   40  C   UNK N   1      33.225  17.644   7.052  0.00  0.00     0.329 A 
HETATM   41  H   UNK N   1      32.979  19.113   8.448  0.00  0.00     0.170 HD
HETATM   42  O   UNK N   1      34.357  17.979   6.770  0.00  0.00    -0.246 OA
ENDBRANCH  29  30
ENDBRANCH  28  29
ENDBRANCH  27  28
ENDBRANCH  25  27
ENDBRANCH  24  25
ENDBRANCH  23  24
ENDBRANCH  22  23
ENDBRANCH   1  22
TORSDOF 13
ENDMDL
MODEL 4
REMARK VINA RESULT:      -7.4     13.706     17.332
REMARK  13 active torsions:
REMARK  status: ('A' for Active; 'I' for Inactive)
REMARK       I    between atoms: C_2  and  N_4 
REMARK    1  A    between atoms: N_4  and  C_5 
REMARK    2  A    between atoms: N_4  and  C_25 
REMARK    3  A    between atoms: C_5  and  C_6 
REMARK    4  A    between atoms: C_6  and  C_7 
REMARK    5  A    between atoms: C_7  and  C_8 
REMARK    6  A    between atoms: C_8  and  N_9 
REMARK    7  A    between atoms: N_9  and  C_10 
REMARK    8  A    between atoms: C_10  and  C_11 
REMARK    9  A    between atoms: C_11  and  C_12 
REMARK   10  A    between atoms: C_12  and  N_13 
REMARK   11  A    between atoms: C_25  and  C_26 
REMARK   12  A    between atoms: C_26  and  C_27 
REMARK   13  A    between atoms: C_27  and  N_28 
ROOT
HETATM    1  C   UNK N   1      30.188  25.652  -6.403  0.00  0.00     0.126 C 
ENDROOT
BRANCH   1   2
HETATM    2  N   UNK N   1      30.257  26.321  -5.125  0.00  0.00    -0.352 N 
HETATM    3  C   UNK N   1      30.581  27.650  -5.031  0.00  0.00     0.215 C 
HETATM    4  C   UNK N   1      30.620  28.361  -3.724  0.00  0.00     0.117 C 
HETATM    5  O   UNK N   1      30.853  28.289  -6.025  0.00  0.00    -0.274 OA
BRANCH   2   6
HETATM    6  C   UNK N   1      30.048  25.526  -3.949  0.00  0.00     0.127 C 
BRANCH   6   7
HETATM    7  C   UNK N   1      28.614  25.040  -3.979  0.00  0.00     0.040 C 
BRANCH   7   8
HETATM    8  C   UNK N   1      28.519  23.640  -3.424  0.00  0.00     0.139 C 
BRANCH   8   9
HETATM    9  N   UNK N   1      29.710  22.780  -3.570  0.00  0.00    -0.266 N 
HETATM   10  C   UNK N   1      29.870  22.163  -4.796  0.00  0.00     0.264 A 
HETATM   11  O   UNK N   1      29.047  22.341  -5.683  0.00  0.00    -0.267 OA
HETATM   12  C   UNK N   1      30.974  21.340  -5.031  0.00  0.00     0.059 A 
HETATM   13  C   UNK N   1      31.164  20.711  -6.269  0.00  0.00     0.019 A 
HETATM   14  C   UNK N   1      31.911  21.146  -4.004  0.00  0.00     0.052 A 
HETATM   15  C   UNK N   1      32.281  19.898  -6.476  0.00  0.00     0.001 A 
HETATM   16  C   UNK N   1      33.209  19.708  -5.449  0.00  0.00     0.002 A 
HETATM   17  C   UNK N   1      33.025  20.331  -4.212  0.00  0.00     0.030 A 
HETATM   18  N   UNK N   1      31.737  21.754  -2.810  0.00  0.00    -0.307 N 
HETATM   19  C   UNK N   1      30.663  22.562  -2.576  0.00  0.00     0.329 A 
HETATM   20  H   UNK N   1      32.397  21.610  -2.094  0.00  0.00     0.170 HD
HETATM   21  O   UNK N   1      30.564  23.083  -1.484  0.00  0.00    -0.246 OA
ENDBRANCH   8   9
ENDBRANCH   7   8
ENDBRANCH   6   7
ENDBRANCH   2   6
ENDBRANCH   1   2
BRANCH   1  22
HETATM   22  C   UNK N   1      31.478  24.884  -6.655  0.00  0.00     0.021 C 
BRANCH  22  23
HETATM   23  C   UNK N   1      31.305  23.916  -7.811  0.00  0.00     0.021 C 
BRANCH  23  24
HETATM   24  C   UNK N   1      30.043  24.245  -8.588  0.00  0.00     0.113 C 
BRANCH  24  25
HETATM   25  N   UNK N   1      29.194  23.062  -8.676  0.00  0.00    -0.421 N 
HETATM   26  H   UNK N   1      29.466  22.110  -8.432  0.00  0.00     0.153 HD
BRANCH  25  27
HETATM   27  C   UNK N   1      27.889  23.478  -9.170  0.00  0.00     0.115 C 
BRANCH  27  28
HETATM   28  C   UNK N   1      26.983  23.852  -8.025  0.00  0.00     0.040 C 
BRANCH  28  29
HETATM   29  C   UNK N   1      26.191  25.071  -8.432  0.00  0.00     0.139 C 
BRANCH  29  30
HETATM   30  N   UNK N   1      26.578  26.224  -7.622  0.00  0.00    -0.266 N 
HETATM   31  C   UNK N   1      25.976  26.405  -6.400  0.00  0.00     0.264 A 
HETATM   32  O   UNK N   1      25.160  25.593  -5.989  0.00  0.00    -0.267 OA
HETATM   33  C   UNK N   1      26.288  27.532  -5.633  0.00  0.00     0.059 A 
HETATM   34  C   UNK N   1      25.674  27.770  -4.398  0.00  0.00     0.019 A 
HETATM   35  C   UNK N   1      27.230  28.452  -6.132  0.00  0.00     0.052 A 
HETATM   36  C   UNK N   1      25.988  28.919  -3.670  0.00  0.00     0.001 A 
HETATM   37  C   UNK N   1      26.922  29.833  -4.170  0.00  0.00     0.002 A 
HETATM   38  C   UNK N   1      27.546  29.598  -5.398  0.00  0.00     0.030 A 
HETATM   39  N   UNK N   1      27.820  28.239  -7.330  0.00  0.00    -0.307 N 
HETATM   40  C   UNK N   1      27.504  27.144  -8.086  0.00  0.00     0.329 A 
HETATM   41  H   UNK N   1      28.485  28.883  -7.664  0.00  0.00     0.170 HD
HETATM   42  O   UNK N   1      28.027  27.009  -9.174  0.00  0.00    -0.246 OA
ENDBRANCH  29  30
ENDBRANCH  28  29
ENDBRANCH  27  28
ENDBRANCH  25  27
ENDBRANCH  24  25
ENDBRANCH  23  24
ENDBRANCH  22  23
ENDBRANCH   1  22
TORSDOF 13
ENDMDL
MODEL 5
REMARK VINA RESULT:      -7.4      6.599     11.361
REMARK  13 active torsions:
REMARK  status: ('A' for Active; 'I' for Inactive)
REMARK       I    between atoms: C_2  and  N_4 
REMARK    1  A    between atoms: N_4  and  C_5 
REMARK    2  A    between atoms: N_4  and  C_25 
REMARK    3  A    between atoms: C_5  and  C_6 
REMARK    4  A    between atoms: C_6  and  C_7 
REMARK    5  A    between atoms: C_7  and  C_8 
REMARK    6  A    between atoms: C_8  and  N_9 
REMARK    7  A    between atoms: N_9  and  C_10 
REMARK    8  A    between atoms: C_10  and  C_11 
REMARK    9  A    between atoms: C_11  and  C_12 
REMARK   10  A    between atoms: C_12  and  N_13 
REMARK   11  A    between atoms: C_25  and  C_26 
REMARK   12  A    between atoms: C_26  and  C_27 
REMARK   13  A    between atoms: C_27  and  N_28 
ROOT
HETATM    1  C   UNK N   1      35.559  13.822   8.239  0.00  0.00     0.126 C 
ENDROOT
BRANCH   1   2
HETATM    2  N   UNK N   1      35.850  14.598   9.421  0.00  0.00    -0.352 N 
HETATM    3  C   UNK N   1      35.250  15.809   9.646  0.00  0.00     0.215 C 
HETATM    4  C   UNK N   1      35.513  16.603  10.878  0.00  0.00     0.117 C 
HETATM    5  O   UNK N   1      34.481  16.276   8.833  0.00  0.00    -0.274 OA
BRANCH   2   6
HETATM    6  C   UNK N   1      36.849  14.089  10.318  0.00  0.00     0.127 C 
BRANCH   6   7
HETATM    7  C   UNK N   1      36.305  12.813  10.926  0.00  0.00     0.040 C 
BRANCH   7   8
HETATM    8  C   UNK N   1      35.123  13.114  11.813  0.00  0.00     0.139 C 
BRANCH   8   9
HETATM    9  N   UNK N   1      35.298  12.889  13.261  0.00  0.00    -0.266 N 
HETATM   10  C   UNK N   1      34.785  11.706  13.761  0.00  0.00     0.264 A 
HETATM   11  O   UNK N   1      34.222  10.919  13.013  0.00  0.00    -0.267 OA
HETATM   12  C   UNK N   1      34.915  11.401  15.117  0.00  0.00     0.059 A 
HETATM   13  C   UNK N   1      34.413  10.204  15.647  0.00  0.00     0.019 A 
HETATM   14  C   UNK N   1      35.565  12.314  15.963  0.00  0.00     0.052 A 
HETATM   15  C   UNK N   1      34.562   9.925  17.007  0.00  0.00     0.001 A 
HETATM   16  C   UNK N   1      35.209  10.838  17.844  0.00  0.00     0.002 A 
HETATM   17  C   UNK N   1      35.710  12.034  17.323  0.00  0.00     0.030 A 
HETATM   18  N   UNK N   1      36.055  13.467  15.459  0.00  0.00    -0.307 N 
HETATM   19  C   UNK N   1      35.937  13.768  14.134  0.00  0.00     0.329 A 
HETATM   20  H   UNK N   1      36.507  14.103  16.059  0.00  0.00     0.170 HD
HETATM   21  O   UNK N   1      36.402  14.818  13.740  0.00  0.00    -0.246 OA
ENDBRANCH   8   9
ENDBRANCH   7   8
ENDBRANCH   6   7
ENDBRANCH   2   6
ENDBRANCH   1   2
BRANCH   1  22
HETATM   22  C   UNK N   1      36.604  14.099   7.168  0.00  0.00     0.021 C 
BRANCH  22  23
HETATM   23  C   UNK N   1      35.938  14.446   5.849  0.00  0.00     0.021 C 
BRANCH  23  24
HETATM   24  C   UNK N   1      34.474  14.042   5.877  0.00  0.00     0.113 C 
BRANCH  24  25
HETATM   25  N   UNK N   1      34.039  13.664   4.537  0.00  0.00    -0.421 N 
HETATM   26  H   UNK N   1      33.754  12.730   4.241  0.00  0.00     0.153 HD
BRANCH  25  27
HETATM   27  C   UNK N   1      34.082  14.852   3.696  0.00  0.00     0.115 C 
BRANCH  27  28
HETATM   28  C   UNK N   1      32.688  15.354   3.418  0.00  0.00     0.040 C 
BRANCH  28  29
HETATM   29  C   UNK N   1      32.657  16.836   3.705  0.00  0.00     0.139 C 
BRANCH  29  30
HETATM   30  N   UNK N   1      32.174  17.083   5.061  0.00  0.00    -0.266 N 
HETATM   31  C   UNK N   1      30.828  16.959   5.316  0.00  0.00     0.264 A 
HETATM   32  O   UNK N   1      30.063  16.612   4.428  0.00  0.00    -0.267 OA
HETATM   33  C   UNK N   1      30.335  17.247   6.592  0.00  0.00     0.059 A 
HETATM   34  C   UNK N   1      28.968  17.163   6.884  0.00  0.00     0.019 A 
HETATM   35  C   UNK N   1      31.240  17.645   7.595  0.00  0.00     0.052 A 
HETATM   36  C   UNK N   1      28.505  17.484   8.162  0.00  0.00     0.001 A 
HETATM   37  C   UNK N   1      29.406  17.883   9.155  0.00  0.00     0.002 A 
HETATM   38  C   UNK N   1      30.773  17.959   8.873  0.00  0.00     0.030 A 
HETATM   39  N   UNK N   1      32.560  17.741   7.320  0.00  0.00    -0.307 N 
HETATM   40  C   UNK N   1      33.040  17.474   6.068  0.00  0.00     0.329 A 
HETATM   41  H   UNK N   1      33.185  18.010   8.032  0.00  0.00     0.170 HD
HETATM   42  O   UNK N   1      34.228  17.609   5.852  0.00  0.00    -0.246 OA
ENDBRANCH  29  30
ENDBRANCH  28  29
ENDBRANCH  27  28
ENDBRANCH  25  27
ENDBRANCH  24  25
ENDBRANCH  23  24
ENDBRANCH  22  23
ENDBRANCH   1  22
TORSDOF 13
ENDMDL
MODEL 6
REMARK VINA RESULT:      -7.4      5.938     11.161
REMARK  13 active torsions:
REMARK  status: ('A' for Active; 'I' for Inactive)
REMARK       I    between atoms: C_2  and  N_4 
REMARK    1  A    between atoms: N_4  and  C_5 
REMARK    2  A    between atoms: N_4  and  C_25 
REMARK    3  A    between atoms: C_5  and  C_6 
REMARK    4  A    between atoms: C_6  and  C_7 
REMARK    5  A    between atoms: C_7  and  C_8 
REMARK    6  A    between atoms: C_8  and  N_9 
REMARK    7  A    between atoms: N_9  and  C_10 
REMARK    8  A    between atoms: C_10  and  C_11 
REMARK    9  A    between atoms: C_11  and  C_12 
REMARK   10  A    between atoms: C_12  and  N_13 
REMARK   11  A    between atoms: C_25  and  C_26 
REMARK   12  A    between atoms: C_26  and  C_27 
REMARK   13  A    between atoms: C_27  and  N_28 
ROOT
HETATM    1  C   UNK N   1      35.253  14.493  12.039  0.00  0.00     0.126 C 
ENDROOT
BRANCH   1   2
HETATM    2  N   UNK N   1      36.040  13.373  12.498  0.00  0.00    -0.352 N 
HETATM    3  C   UNK N   1      36.396  13.241  13.815  0.00  0.00     0.215 C 
HETATM    4  C   UNK N   1      37.176  12.072  14.308  0.00  0.00     0.117 C 
HETATM    5  O   UNK N   1      36.085  14.089  14.625  0.00  0.00    -0.274 OA
BRANCH   2   6
HETATM    6  C   UNK N   1      36.500  12.438  11.510  0.00  0.00     0.127 C 
BRANCH   6   7
HETATM    7  C   UNK N   1      35.285  11.711  10.973  0.00  0.00     0.040 C 
BRANCH   7   8
HETATM    8  C   UNK N   1      35.494  11.331   9.528  0.00  0.00     0.139 C 
BRANCH   8   9
HETATM    9  N   UNK N   1      34.673  12.036   8.525  0.00  0.00    -0.266 N 
HETATM   10  C   UNK N   1      35.277  13.101   7.882  0.00  0.00     0.264 A 
HETATM   11  O   UNK N   1      36.427  13.412   8.161  0.00  0.00    -0.267 OA
HETATM   12  C   UNK N   1      34.582  13.821   6.909  0.00  0.00     0.059 A 
HETATM   13  C   UNK N   1      35.175  14.899   6.236  0.00  0.00     0.019 A 
HETATM   14  C   UNK N   1      33.264  13.451   6.598  0.00  0.00     0.052 A 
HETATM   15  C   UNK N   1      34.456  15.596   5.263  0.00  0.00     0.001 A 
HETATM   16  C   UNK N   1      33.143  15.224   4.960  0.00  0.00     0.002 A 
HETATM   17  C   UNK N   1      32.546  14.152   5.628  0.00  0.00     0.030 A 
HETATM   18  N   UNK N   1      32.688  12.411   7.239  0.00  0.00    -0.307 N 
HETATM   19  C   UNK N   1      33.363  11.701   8.187  0.00  0.00     0.329 A 
HETATM   20  H   UNK N   1      31.762  12.161   7.017  0.00  0.00     0.170 HD
HETATM   21  O   UNK N   1      32.793  10.774   8.725  0.00  0.00    -0.246 OA
ENDBRANCH   8   9
ENDBRANCH   7   8
ENDBRANCH   6   7
ENDBRANCH   2   6
ENDBRANCH   1   2
BRANCH   1  22
HETATM   22  C   UNK N   1      36.102  15.393  11.153  0.00  0.00     0.021 C 
BRANCH  22  23
HETATM   23  C   UNK N   1      35.382  16.699  10.871  0.00  0.00     0.021 C 
BRANCH  23  24
HETATM   24  C   UNK N   1      34.825  16.698   9.459  0.00  0.00     0.113 C 
BRANCH  24  25
HETATM   25  N   UNK N   1      33.486  17.275   9.454  0.00  0.00    -0.421 N 
HETATM   26  H   UNK N   1      33.161  18.041  10.044  0.00  0.00     0.153 HD
BRANCH  25  27
HETATM   27  C   UNK N   1      32.692  16.567   8.460  0.00  0.00     0.115 C 
BRANCH  27  28
HETATM   28  C   UNK N   1      31.718  17.504   7.793  0.00  0.00     0.040 C 
BRANCH  28  29
HETATM   29  C   UNK N   1      30.361  16.844   7.786  0.00  0.00     0.139 C 
BRANCH  29  30
HETATM   30  N   UNK N   1      29.337  17.784   7.336  0.00  0.00    -0.266 N 
HETATM   31  C   UNK N   1      29.084  17.890   5.989  0.00  0.00     0.264 A 
HETATM   32  O   UNK N   1      29.680  17.180   5.192  0.00  0.00    -0.267 OA
HETATM   33  C   UNK N   1      28.150  18.824   5.531  0.00  0.00     0.059 A 
HETATM   34  C   UNK N   1      27.885  18.984   4.165  0.00  0.00     0.019 A 
HETATM   35  C   UNK N   1      27.478  19.629   6.471  0.00  0.00     0.052 A 
HETATM   36  C   UNK N   1      26.966  19.946   3.739  0.00  0.00     0.001 A 
HETATM   37  C   UNK N   1      26.304  20.746   4.675  0.00  0.00     0.002 A 
HETATM   38  C   UNK N   1      26.556  20.585   6.041  0.00  0.00     0.030 A 
HETATM   39  N   UNK N   1      27.736  19.491   7.791  0.00  0.00    -0.307 N 
HETATM   40  C   UNK N   1      28.660  18.587   8.238  0.00  0.00     0.329 A 
HETATM   41  H   UNK N   1      27.252  20.051   8.440  0.00  0.00     0.170 HD
HETATM   42  O   UNK N   1      28.890  18.521   9.428  0.00  0.00    -0.246 OA
ENDBRANCH  29  30
ENDBRANCH  28  29
ENDBRANCH  27  28
ENDBRANCH  25  27
ENDBRANCH  24  25
ENDBRANCH  23  24
ENDBRANCH  22  23
ENDBRANCH   1  22
TORSDOF 13
ENDMDL
MODEL 7
REMARK VINA RESULT:      -7.4      2.168      8.030
REMARK  13 active torsions:
REMARK  status: ('A' for Active; 'I' for Inactive)
REMARK       I    between atoms: C_2  and  N_4 
REMARK    1  A    between atoms: N_4  and  C_5 
REMARK    2  A    between atoms: N_4  and  C_25 
REMARK    3  A    between atoms: C_5  and  C_6 
REMARK    4  A    between atoms: C_6  and  C_7 
REMARK    5  A    between atoms: C_7  and  C_8 
REMARK    6  A    between atoms: C_8  and  N_9 
REMARK    7  A    between atoms: N_9  and  C_10 
REMARK    8  A    between atoms: C_10  and  C_11 
REMARK    9  A    between atoms: C_11  and  C_12 
REMARK   10  A    between atoms: C_12  and  N_13 
REMARK   11  A    between atoms: C_25  and  C_26 
REMARK   12  A    between atoms: C_26  and  C_27 
REMARK   13  A    between atoms: C_27  and  N_28 
ROOT
HETATM    1  C   UNK N   1      22.141  17.902   4.463  0.00  0.00     0.126 C 
ENDROOT
BRANCH   1   2
HETATM    2  N   UNK N   1      22.250  19.121   3.696  0.00  0.00    -0.352 N 
HETATM    3  C   UNK N   1      21.155  19.691   3.101  0.00  0.00     0.215 C 
HETATM    4  C   UNK N   1      21.246  20.967   2.338  0.00  0.00     0.117 C 
HETATM    5  O   UNK N   1      20.067  19.161   3.176  0.00  0.00    -0.274 OA
BRANCH   2   6
HETATM    6  C   UNK N   1      23.562  19.675   3.516  0.00  0.00     0.127 C 
BRANCH   6   7
HETATM    7  C   UNK N   1      24.414  19.210   4.679  0.00  0.00     0.040 C 
BRANCH   7   8
HETATM    8  C   UNK N   1      25.762  19.888   4.650  0.00  0.00     0.139 C 
BRANCH   8   9
HETATM    9  N   UNK N   1      26.689  19.582   5.756  0.00  0.00    -0.266 N 
HETATM   10  C   UNK N   1      27.579  18.546   5.539  0.00  0.00     0.264 A 
HETATM   11  O   UNK N   1      27.563  17.939   4.476  0.00  0.00    -0.267 OA
HETATM   12  C   UNK N   1      28.502  18.193   6.524  0.00  0.00     0.059 A 
HETATM   13  C   UNK N   1      29.421  17.153   6.323  0.00  0.00     0.019 A 
HETATM   14  C   UNK N   1      28.509  18.899   7.737  0.00  0.00     0.052 A 
HETATM   15  C   UNK N   1      30.337  16.827   7.326  0.00  0.00     0.001 A 
HETATM   16  C   UNK N   1      30.338  17.532   8.532  0.00  0.00     0.002 A 
HETATM   17  C   UNK N   1      29.424  18.569   8.739  0.00  0.00     0.030 A 
HETATM   18  N   UNK N   1      27.630  19.905   7.935  0.00  0.00    -0.307 N 
HETATM   19  C   UNK N   1      26.729  20.258   6.975  0.00  0.00     0.329 A 
HETATM   20  H   UNK N   1      27.640  20.393   8.790  0.00  0.00     0.170 HD
HETATM   21  O   UNK N   1      25.967  21.174   7.211  0.00  0.00    -0.246 OA
ENDBRANCH   8   9
ENDBRANCH   7   8
ENDBRANCH   6   7
ENDBRANCH   2   6
ENDBRANCH   1   2
BRANCH   1  22
HETATM   22  C   UNK N   1      22.644  16.726   3.640  0.00  0.00     0.021 C 
BRANCH  22  23
HETATM   23  C   UNK N   1      21.481  15.908   3.111  0.00  0.00     0.021 C 
BRANCH  23  24
HETATM   24  C   UNK N   1      21.937  14.496   2.785  0.00  0.00     0.113 C 
BRANCH  24  25
HETATM   25  N   UNK N   1      21.531  13.587   3.850  0.00  0.00    -0.421 N 
HETATM   26  H   UNK N   1      22.009  12.727   4.119  0.00  0.00     0.153 HD
BRANCH  25  27
HETATM   27  C   UNK N   1      20.324  14.120   4.465  0.00  0.00     0.115 C 
BRANCH  27  28
HETATM   28  C   UNK N   1      20.136  13.551   5.848  0.00  0.00     0.040 C 
BRANCH  28  29
HETATM   29  C   UNK N   1      20.629  14.570   6.846  0.00  0.00     0.139 C 
BRANCH  29  30
HETATM   30  N   UNK N   1      21.662  13.990   7.701  0.00  0.00    -0.266 N 
HETATM   31  C   UNK N   1      21.296  13.478   8.923  0.00  0.00     0.264 A 
HETATM   32  O   UNK N   1      20.122  13.478   9.265  0.00  0.00    -0.267 OA
HETATM   33  C   UNK N   1      22.276  12.970   9.782  0.00  0.00     0.059 A 
HETATM   34  C   UNK N   1      21.949  12.468  11.048  0.00  0.00     0.019 A 
HETATM   35  C   UNK N   1      23.620  12.984   9.363  0.00  0.00     0.052 A 
HETATM   36  C   UNK N   1      22.955  11.994  11.893  0.00  0.00     0.001 A 
HETATM   37  C   UNK N   1      24.289  12.012  11.474  0.00  0.00     0.002 A 
HETATM   38  C   UNK N   1      24.621  12.503  10.209  0.00  0.00     0.030 A 
HETATM   39  N   UNK N   1      23.947  13.478   8.147  0.00  0.00    -0.307 N 
HETATM   40  C   UNK N   1      22.991  13.988   7.313  0.00  0.00     0.329 A 
HETATM   41  H   UNK N   1      24.888  13.472   7.860  0.00  0.00     0.170 HD
HETATM   42  O   UNK N   1      23.331  14.457   6.246  0.00  0.00    -0.246 OA
ENDBRANCH  29  30
ENDBRANCH  28  29
ENDBRANCH  27  28
ENDBRANCH  25  27
ENDBRANCH  24  25
ENDBRANCH  23  24
ENDBRANCH  22  23
ENDBRANCH   1  22
TORSDOF 13
ENDMDL
MODEL 8
REMARK VINA RESULT:      -7.3      1.723      5.152
REMARK  13 active torsions:
REMARK  status: ('A' for Active; 'I' for Inactive)
REMARK       I    between atoms: C_2  and  N_4 
REMARK    1  A    between atoms: N_4  and  C_5 
REMARK    2  A    between atoms: N_4  and  C_25 
REMARK    3  A    between atoms: C_5  and  C_6 
REMARK    4  A    between atoms: C_6  and  C_7 
REMARK    5  A    between atoms: C_7  and  C_8 
REMARK    6  A    between atoms: C_8  and  N_9 
REMARK    7  A    between atoms: N_9  and  C_10 
REMARK    8  A    between atoms: C_10  and  C_11 
REMARK    9  A    between atoms: C_11  and  C_12 
REMARK   10  A    between atoms: C_12  and  N_13 
REMARK   11  A    between atoms: C_25  and  C_26 
REMARK   12  A    between atoms: C_26  and  C_27 
REMARK   13  A    between atoms: C_27  and  N_28 
ROOT
HETATM    1  C   UNK N   1      23.695  14.668   5.620  0.00  0.00     0.126 C 
ENDROOT
BRANCH   1   2
HETATM    2  N   UNK N   1      23.563  14.111   6.946  0.00  0.00    -0.352 N 
HETATM    3  C   UNK N   1      24.503  13.256   7.459  0.00  0.00     0.215 C 
HETATM    4  C   UNK N   1      24.398  12.703   8.838  0.00  0.00     0.117 C 
HETATM    5  O   UNK N   1      25.457  12.918   6.791  0.00  0.00    -0.274 OA
BRANCH   2   6
HETATM    6  C   UNK N   1      22.371  14.427   7.681  0.00  0.00     0.127 C 
BRANCH   6   7
HETATM    7  C   UNK N   1      21.189  14.042   6.815  0.00  0.00     0.040 C 
BRANCH   7   8
HETATM    8  C   UNK N   1      20.179  15.163   6.773  0.00  0.00     0.139 C 
BRANCH   8   9
HETATM    9  N   UNK N   1      20.072  15.919   5.510  0.00  0.00    -0.266 N 
HETATM   10  C   UNK N   1      20.726  17.137   5.471  0.00  0.00     0.264 A 
HETATM   11  O   UNK N   1      21.344  17.531   6.450  0.00  0.00    -0.267 OA
HETATM   12  C   UNK N   1      20.691  17.917   4.314  0.00  0.00     0.059 A 
HETATM   13  C   UNK N   1      21.354  19.151   4.246  0.00  0.00     0.019 A 
HETATM   14  C   UNK N   1      19.979  17.451   3.198  0.00  0.00     0.052 A 
HETATM   15  C   UNK N   1      21.305  19.907   3.073  0.00  0.00     0.001 A 
HETATM   16  C   UNK N   1      20.593  19.438   1.965  0.00  0.00     0.002 A 
HETATM   17  C   UNK N   1      19.928  18.210   2.027  0.00  0.00     0.030 A 
HETATM   18  N   UNK N   1      19.342  16.261   3.255  0.00  0.00    -0.307 N 
HETATM   19  C   UNK N   1      19.376  15.492   4.380  0.00  0.00     0.329 A 
HETATM   20  H   UNK N   1      18.842  15.943   2.468  0.00  0.00     0.170 HD
HETATM   21  O   UNK N   1      18.788  14.430   4.368  0.00  0.00    -0.246 OA
ENDBRANCH   8   9
ENDBRANCH   7   8
ENDBRANCH   6   7
ENDBRANCH   2   6
ENDBRANCH   1   2
BRANCH   1  22
HETATM   22  C   UNK N   1      24.338  16.045   5.698  0.00  0.00     0.021 C 
BRANCH  22  23
HETATM   23  C   UNK N   1      24.244  16.754   4.360  0.00  0.00     0.021 C 
BRANCH  23  24
HETATM   24  C   UNK N   1      24.788  18.167   4.475  0.00  0.00     0.113 C 
BRANCH  24  25
HETATM   25  N   UNK N   1      25.895  18.196   5.425  0.00  0.00    -0.421 N 
HETATM   26  H   UNK N   1      25.941  17.685   6.307  0.00  0.00     0.153 HD
BRANCH  25  27
HETATM   27  C   UNK N   1      26.923  19.079   4.894  0.00  0.00     0.115 C 
BRANCH  27  28
HETATM   28  C   UNK N   1      27.971  18.288   4.153  0.00  0.00     0.040 C 
BRANCH  28  29
HETATM   29  C   UNK N   1      28.232  17.017   4.925  0.00  0.00     0.139 C 
BRANCH  29  30
HETATM   30  N   UNK N   1      29.345  17.204   5.853  0.00  0.00    -0.266 N 
HETATM   31  C   UNK N   1      30.627  17.198   5.357  0.00  0.00     0.264 A 
HETATM   32  O   UNK N   1      30.822  17.076   4.157  0.00  0.00    -0.267 OA
HETATM   33  C   UNK N   1      31.710  17.317   6.234  0.00  0.00     0.059 A 
HETATM   34  C   UNK N   1      33.031  17.284   5.772  0.00  0.00     0.019 A 
HETATM   35  C   UNK N   1      31.455  17.455   7.612  0.00  0.00     0.052 A 
HETATM   36  C   UNK N   1      34.090  17.377   6.678  0.00  0.00     0.001 A 
HETATM   37  C   UNK N   1      33.834  17.511   8.046  0.00  0.00     0.002 A 
HETATM   38  C   UNK N   1      32.517  17.553   8.513  0.00  0.00     0.030 A 
HETATM   39  N   UNK N   1      30.183  17.474   8.069  0.00  0.00    -0.307 N 
HETATM   40  C   UNK N   1      29.124  17.344   7.213  0.00  0.00     0.329 A 
HETATM   41  H   UNK N   1      30.016  17.582   9.033  0.00  0.00     0.170 HD
HETATM   42  O   UNK N   1      27.998  17.328   7.668  0.00  0.00    -0.246 OA
ENDBRANCH  29  30
ENDBRANCH  28  29
ENDBRANCH  27  28
ENDBRANCH  25  27
ENDBRANCH  24  25
ENDBRANCH  23  24
ENDBRANCH  22  23
ENDBRANCH   1  22
TORSDOF 13
ENDMDL
MODEL 9
REMARK VINA RESULT:      -7.3     13.527     16.966
REMARK  13 active torsions:
REMARK  status: ('A' for Active; 'I' for Inactive)
REMARK       I    between atoms: C_2  and  N_4 
REMARK    1  A    between atoms: N_4  and  C_5 
REMARK    2  A    between atoms: N_4  and  C_25 
REMARK    3  A    between atoms: C_5  and  C_6 
REMARK    4  A    between atoms: C_6  and  C_7 
REMARK    5  A    between atoms: C_7  and  C_8 
REMARK    6  A    between atoms: C_8  and  N_9 
REMARK    7  A    between atoms: N_9  and  C_10 
REMARK    8  A    between atoms: C_10  and  C_11 
REMARK    9  A    between atoms: C_11  and  C_12 
REMARK   10  A    between atoms: C_12  and  N_13 
REMARK   11  A    between atoms: C_25  and  C_26 
REMARK   12  A    between atoms: C_26  and  C_27 
REMARK   13  A    between atoms: C_27  and  N_28 
ROOT
HETATM    1  C   UNK N   1      29.400  20.911  -8.819  0.00  0.00     0.126 C 
ENDROOT
BRANCH   1   2
HETATM    2  N   UNK N   1      28.044  21.293  -9.136  0.00  0.00    -0.352 N 
HETATM    3  C   UNK N   1      27.498  21.036 -10.367  0.00  0.00     0.215 C 
HETATM    4  C   UNK N   1      26.090  21.392 -10.695  0.00  0.00     0.117 C 
HETATM    5  O   UNK N   1      28.160  20.509 -11.236  0.00  0.00    -0.274 OA
BRANCH   2   6
HETATM    6  C   UNK N   1      27.311  22.021  -8.139  0.00  0.00     0.127 C 
BRANCH   6   7
HETATM    7  C   UNK N   1      28.016  23.346  -7.935  0.00  0.00     0.040 C 
BRANCH   7   8
HETATM    8  C   UNK N   1      27.100  24.491  -8.289  0.00  0.00     0.139 C 
BRANCH   8   9
HETATM    9  N   UNK N   1      26.694  25.389  -7.190  0.00  0.00    -0.266 N 
HETATM   10  C   UNK N   1      27.333  26.613  -7.134  0.00  0.00     0.264 A 
HETATM   11  O   UNK N   1      28.184  26.898  -7.966  0.00  0.00    -0.267 OA
HETATM   12  C   UNK N   1      27.005  27.533  -6.136  0.00  0.00     0.059 A 
HETATM   13  C   UNK N   1      27.632  28.785  -6.065  0.00  0.00     0.019 A 
HETATM   14  C   UNK N   1      26.025  27.193  -5.190  0.00  0.00     0.052 A 
HETATM   15  C   UNK N   1      27.279  29.686  -5.057  0.00  0.00     0.001 A 
HETATM   16  C   UNK N   1      26.304  29.342  -4.118  0.00  0.00     0.002 A 
HETATM   17  C   UNK N   1      25.677  28.094  -4.183  0.00  0.00     0.030 A 
HETATM   18  N   UNK N   1      25.415  25.990  -5.257  0.00  0.00    -0.307 N 
HETATM   19  C   UNK N   1      25.727  25.090  -6.232  0.00  0.00     0.329 A 
HETATM   20  H   UNK N   1      24.730  25.759  -4.587  0.00  0.00     0.170 HD
HETATM   21  O   UNK N   1      25.139  24.027  -6.241  0.00  0.00    -0.246 OA
ENDBRANCH   8   9
ENDBRANCH   7   8
ENDBRANCH   6   7
ENDBRANCH   2   6
ENDBRANCH   1   2
BRANCH   1  22
HETATM   22  C   UNK N   1      29.403  19.929  -7.658  0.00  0.00     0.021 C 
BRANCH  22  23
HETATM   23  C   UNK N   1      30.474  20.298  -6.648  0.00  0.00     0.021 C 
BRANCH  23  24
HETATM   24  C   UNK N   1      31.806  19.688  -7.049  0.00  0.00     0.113 C 
BRANCH  24  25
HETATM   25  N   UNK N   1      32.830  20.725  -7.102  0.00  0.00    -0.421 N 
HETATM   26  H   UNK N   1      32.797  21.571  -7.672  0.00  0.00     0.153 HD
BRANCH  25  27
HETATM   27  C   UNK N   1      33.906  20.345  -6.199  0.00  0.00     0.115 C 
BRANCH  27  28
HETATM   28  C   UNK N   1      33.496  20.559  -4.764  0.00  0.00     0.040 C 
BRANCH  28  29
HETATM   29  C   UNK N   1      33.640  22.028  -4.449  0.00  0.00     0.139 C 
BRANCH  29  30
HETATM   30  N   UNK N   1      32.327  22.664  -4.366  0.00  0.00    -0.266 N 
HETATM   31  C   UNK N   1      31.569  22.468  -3.236  0.00  0.00     0.264 A 
HETATM   32  O   UNK N   1      32.007  21.804  -2.308  0.00  0.00    -0.267 OA
HETATM   33  C   UNK N   1      30.287  23.020  -3.158  0.00  0.00     0.059 A 
HETATM   34  C   UNK N   1      29.471  22.817  -2.038  0.00  0.00     0.019 A 
HETATM   35  C   UNK N   1      29.807  23.779  -4.243  0.00  0.00     0.052 A 
HETATM   36  C   UNK N   1      28.184  23.359  -2.005  0.00  0.00     0.001 A 
HETATM   37  C   UNK N   1      27.710  24.110  -3.085  0.00  0.00     0.002 A 
HETATM   38  C   UNK N   1      28.522  24.323  -4.202  0.00  0.00     0.030 A 
HETATM   39  N   UNK N   1      30.583  23.969  -5.334  0.00  0.00    -0.307 N 
HETATM   40  C   UNK N   1      31.832  23.418  -5.416  0.00  0.00     0.329 A 
HETATM   41  H   UNK N   1      30.242  24.511  -6.082  0.00  0.00     0.170 HD
HETATM   42  O   UNK N   1      32.481  23.581  -6.430  0.00  0.00    -0.246 OA
ENDBRANCH  29  30
ENDBRANCH  28  29
ENDBRANCH  27  28
ENDBRANCH  25  27
ENDBRANCH  24  25
ENDBRANCH  23  24
ENDBRANCH  22  23
ENDBRANCH   1  22
TORSDOF 13
ENDMDL
