MODEL 1
REMARK VINA RESULT:      -6.5      0.000      0.000
REMARK  3 active torsions:
REMARK  status: ('A' for Active; 'I' for Inactive)
REMARK    1  A    between atoms: O_2  and  C_15 
REMARK    2  A    between atoms: O_3  and  C_18 
REMARK    3  A    between atoms: C_4  and  C_8 
ROOT
HETATM    1  O   UNK N   1      26.601  22.424  -7.985  0.00  0.00    -0.350 OA
HETATM    2  C   UNK N   1      26.645  23.741  -5.931  0.00  0.00     0.047 C 
HETATM    3  C   UNK N   1      28.162  23.589  -5.936  0.00  0.00     0.052 C 
HETATM    4  C   UNK N   1      26.126  23.583  -7.376  0.00  0.00     0.185 C 
HETATM    5  C   UNK N   1      28.515  22.278  -6.545  0.00  0.00    -0.024 A 
HETATM    6  C   UNK N   1      27.711  21.757  -7.574  0.00  0.00     0.077 A 
HETATM    7  C   UNK N   1      29.633  21.572  -6.097  0.00  0.00     0.012 A 
HETATM    8  C   UNK N   1      28.049  20.533  -8.161  0.00  0.00     0.073 A 
HETATM    9  C   UNK N   1      29.959  20.345  -6.679  0.00  0.00     0.037 A 
HETATM   10  C   UNK N   1      29.172  19.828  -7.713  0.00  0.00     0.068 A 
ENDROOT
BRANCH   2  11
HETATM   11  C   UNK N   1      26.262  25.041  -5.275  0.00  0.00    -0.051 A 
HETATM   12  C   UNK N   1      25.455  25.988  -5.928  0.00  0.00     0.010 A 
HETATM   13  C   UNK N   1      25.137  27.196  -5.298  0.00  0.00     0.037 A 
HETATM   14  C   UNK N   1      25.627  27.466  -4.018  0.00  0.00     0.065 A 
HETATM   15  C   UNK N   1      26.422  26.525  -3.358  0.00  0.00     0.037 A 
HETATM   16  C   UNK N   1      26.732  25.316  -3.982  0.00  0.00     0.010 A 
BRANCH  14  17
HETATM   17  O   UNK N   1      25.335  28.632  -3.419  0.00  0.00    -0.361 OA
HETATM   18  H   UNK N   1      26.010  29.262  -3.256  0.00  0.00     0.217 HD
ENDBRANCH  14  17
ENDBRANCH   2  11
BRANCH  10  19
HETATM   19  O   UNK N   1      29.492  18.650  -8.272  0.00  0.00    -0.361 OA
HETATM   20  H   UNK N   1      29.085  17.859  -7.976  0.00  0.00     0.217 HD
ENDBRANCH  10  19
TORSDOF 3
ENDMDL
MODEL 2
REMARK VINA RESULT:      -6.5     16.761     18.287
REMARK  3 active torsions:
REMARK  status: ('A' for Active; 'I' for Inactive)
REMARK    1  A    between atoms: O_2  and  C_15 
REMARK    2  A    between atoms: O_3  and  C_18 
REMARK    3  A    between atoms: C_4  and  C_8 
ROOT
HETATM    1  O   UNK N   1      35.288  17.521   9.844  0.00  0.00    -0.350 OA
HETATM    2  C   UNK N   1      34.016  16.571   7.990  0.00  0.00     0.047 C 
HETATM    3  C   UNK N   1      33.292  15.700   9.011  0.00  0.00     0.052 C 
HETATM    4  C   UNK N   1      34.551  17.831   8.703  0.00  0.00     0.185 C 
HETATM    5  C   UNK N   1      34.223  15.390  10.129  0.00  0.00    -0.024 A 
HETATM    6  C   UNK N   1      35.183  16.343  10.512  0.00  0.00     0.077 A 
HETATM    7  C   UNK N   1      34.144  14.163  10.791  0.00  0.00     0.012 A 
HETATM    8  C   UNK N   1      36.050  16.062  11.573  0.00  0.00     0.073 A 
HETATM    9  C   UNK N   1      35.018  13.884  11.844  0.00  0.00     0.037 A 
HETATM   10  C   UNK N   1      35.967  14.833  12.239  0.00  0.00     0.068 A 
ENDROOT
BRANCH   2  11
HETATM   11  C   UNK N   1      33.108  16.858   6.824  0.00  0.00    -0.051 A 
HETATM   12  C   UNK N   1      31.710  16.766   6.937  0.00  0.00     0.010 A 
HETATM   13  C   UNK N   1      30.897  17.017   5.827  0.00  0.00     0.037 A 
HETATM   14  C   UNK N   1      31.473  17.355   4.600  0.00  0.00     0.065 A 
HETATM   15  C   UNK N   1      32.861  17.458   4.483  0.00  0.00     0.037 A 
HETATM   16  C   UNK N   1      33.674  17.216   5.591  0.00  0.00     0.010 A 
BRANCH  14  17
HETATM   17  O   UNK N   1      30.693  17.581   3.531  0.00  0.00    -0.361 OA
HETATM   18  H   UNK N   1      30.435  18.454   3.309  0.00  0.00     0.217 HD
ENDBRANCH  14  17
ENDBRANCH   2  11
BRANCH  10  19
HETATM   19  O   UNK N   1      36.802  14.562  13.253  0.00  0.00    -0.361 OA
HETATM   20  H   UNK N   1      36.630  13.844  13.831  0.00  0.00     0.217 HD
ENDBRANCH  10  19
TORSDOF 3
ENDMDL
MODEL 3
REMARK VINA RESULT:      -6.5     12.546     13.522
REMARK  3 active torsions:
REMARK  status: ('A' for Active; 'I' for Inactive)
REMARK    1  A    between atoms: O_2  and  C_15 
REMARK    2  A    between atoms: O_3  and  C_18 
REMARK    3  A    between atoms: C_4  and  C_8 
ROOT
HETATM    1  O   UNK N   1      29.420  17.416   5.263  0.00  0.00    -0.350 OA
HETATM    2  C   UNK N   1      27.152  18.316   5.242  0.00  0.00     0.047 C 
HETATM    3  C   UNK N   1      27.549  19.185   6.430  0.00  0.00     0.052 C 
HETATM    4  C   UNK N   1      28.424  17.949   4.449  0.00  0.00     0.185 C 
HETATM    5  C   UNK N   1      28.559  18.457   7.246  0.00  0.00    -0.024 A 
HETATM    6  C   UNK N   1      29.476  17.605   6.606  0.00  0.00     0.077 A 
HETATM    7  C   UNK N   1      28.593  18.619   8.631  0.00  0.00     0.012 A 
HETATM    8  C   UNK N   1      30.438  16.932   7.368  0.00  0.00     0.073 A 
HETATM    9  C   UNK N   1      29.548  17.936   9.388  0.00  0.00     0.037 A 
HETATM   10  C   UNK N   1      30.473  17.098   8.757  0.00  0.00     0.068 A 
ENDROOT
BRANCH   2  11
HETATM   11  C   UNK N   1      26.094  19.013   4.428  0.00  0.00    -0.051 A 
HETATM   12  C   UNK N   1      26.415  20.039   3.524  0.00  0.00     0.010 A 
HETATM   13  C   UNK N   1      25.405  20.681   2.800  0.00  0.00     0.037 A 
HETATM   14  C   UNK N   1      24.071  20.306   2.979  0.00  0.00     0.065 A 
HETATM   15  C   UNK N   1      23.745  19.280   3.869  0.00  0.00     0.037 A 
HETATM   16  C   UNK N   1      24.753  18.633   4.585  0.00  0.00     0.010 A 
BRANCH  14  17
HETATM   17  O   UNK N   1      23.100  20.933   2.296  0.00  0.00    -0.361 OA
HETATM   18  H   UNK N   1      23.315  21.526   1.603  0.00  0.00     0.217 HD
ENDBRANCH  14  17
ENDBRANCH   2  11
BRANCH  10  19
HETATM   19  O   UNK N   1      31.392  16.447   9.487  0.00  0.00    -0.361 OA
HETATM   20  H   UNK N   1      32.143  16.067   9.074  0.00  0.00     0.217 HD
ENDBRANCH  10  19
TORSDOF 3
ENDMDL
MODEL 4
REMARK VINA RESULT:      -6.5     24.347     25.784
REMARK  3 active torsions:
REMARK  status: ('A' for Active; 'I' for Inactive)
REMARK    1  A    between atoms: O_2  and  C_15 
REMARK    2  A    between atoms: O_3  and  C_18 
REMARK    3  A    between atoms: C_4  and  C_8 
ROOT
HETATM    1  O   UNK N   1      36.722  14.826  14.497  0.00  0.00    -0.350 OA
HETATM    2  C   UNK N   1      35.480  13.308  15.947  0.00  0.00     0.047 C 
HETATM    3  C   UNK N   1      35.549  12.276  14.827  0.00  0.00     0.052 C 
HETATM    4  C   UNK N   1      36.653  14.298  15.783  0.00  0.00     0.185 C 
HETATM    5  C   UNK N   1      35.541  12.982  13.518  0.00  0.00    -0.024 A 
HETATM    6  C   UNK N   1      36.157  14.241  13.409  0.00  0.00     0.077 A 
HETATM    7  C   UNK N   1      34.925  12.400  12.408  0.00  0.00     0.012 A 
HETATM    8  C   UNK N   1      36.166  14.901  12.176  0.00  0.00     0.073 A 
HETATM    9  C   UNK N   1      34.927  13.068  11.182  0.00  0.00     0.037 A 
HETATM   10  C   UNK N   1      35.551  14.314  11.063  0.00  0.00     0.068 A 
ENDROOT
BRANCH   2  11
HETATM   11  C   UNK N   1      35.439  12.614  17.283  0.00  0.00    -0.051 A 
HETATM   12  C   UNK N   1      35.623  11.226  17.399  0.00  0.00     0.010 A 
HETATM   13  C   UNK N   1      35.556  10.610  18.654  0.00  0.00     0.037 A 
HETATM   14  C   UNK N   1      35.299  11.374  19.795  0.00  0.00     0.065 A 
HETATM   15  C   UNK N   1      35.124  12.756  19.688  0.00  0.00     0.037 A 
HETATM   16  C   UNK N   1      35.200  13.373  18.438  0.00  0.00     0.010 A 
BRANCH  14  17
HETATM   17  O   UNK N   1      35.218  10.781  20.996  0.00  0.00    -0.361 OA
HETATM   18  H   UNK N   1      35.327   9.853  21.074  0.00  0.00     0.217 HD
ENDBRANCH  14  17
ENDBRANCH   2  11
BRANCH  10  19
HETATM   19  O   UNK N   1      35.555  14.951   9.882  0.00  0.00    -0.361 OA
HETATM   20  H   UNK N   1      36.363  15.226   9.494  0.00  0.00     0.217 HD
ENDBRANCH  10  19
TORSDOF 3
ENDMDL
MODEL 5
REMARK VINA RESULT:      -6.3     12.216     13.746
REMARK  3 active torsions:
REMARK  status: ('A' for Active; 'I' for Inactive)
REMARK    1  A    between atoms: O_2  and  C_15 
REMARK    2  A    between atoms: O_3  and  C_18 
REMARK    3  A    between atoms: C_4  and  C_8 
ROOT
HETATM    1  O   UNK N   1      26.860  20.453   3.769  0.00  0.00    -0.350 OA
HETATM    2  C   UNK N   1      27.264  19.243   5.848  0.00  0.00     0.047 C 
HETATM    3  C   UNK N   1      26.244  18.212   5.377  0.00  0.00     0.052 C 
HETATM    4  C   UNK N   1      27.850  19.960   4.614  0.00  0.00     0.185 C 
HETATM    5  C   UNK N   1      25.212  18.894   4.551  0.00  0.00    -0.024 A 
HETATM    6  C   UNK N   1      25.582  19.993   3.756  0.00  0.00     0.077 A 
HETATM    7  C   UNK N   1      23.890  18.448   4.567  0.00  0.00     0.012 A 
HETATM    8  C   UNK N   1      24.618  20.627   2.965  0.00  0.00     0.073 A 
HETATM    9  C   UNK N   1      22.929  19.091   3.784  0.00  0.00     0.037 A 
HETATM   10  C   UNK N   1      23.293  20.176   2.979  0.00  0.00     0.068 A 
ENDROOT
BRANCH   2  11
HETATM   11  C   UNK N   1      28.293  18.583   6.727  0.00  0.00    -0.051 A 
HETATM   12  C   UNK N   1      29.250  17.696   6.206  0.00  0.00     0.010 A 
HETATM   13  C   UNK N   1      30.178  17.083   7.054  0.00  0.00     0.037 A 
HETATM   14  C   UNK N   1      30.150  17.346   8.426  0.00  0.00     0.065 A 
HETATM   15  C   UNK N   1      29.208  18.233   8.951  0.00  0.00     0.037 A 
HETATM   16  C   UNK N   1      28.287  18.853   8.104  0.00  0.00     0.010 A 
BRANCH  14  17
HETATM   17  O   UNK N   1      31.030  16.744   9.243  0.00  0.00    -0.361 OA
HETATM   18  H   UNK N   1      30.730  16.271   9.995  0.00  0.00     0.217 HD
ENDBRANCH  14  17
ENDBRANCH   2  11
BRANCH  10  19
HETATM   19  O   UNK N   1      22.368  20.789   2.225  0.00  0.00    -0.361 OA
HETATM   20  H   UNK N   1      21.478  20.492   2.231  0.00  0.00     0.217 HD
ENDBRANCH  10  19
TORSDOF 3
ENDMDL
MODEL 6
REMARK VINA RESULT:      -6.3      2.838      3.263
REMARK  3 active torsions:
REMARK  status: ('A' for Active; 'I' for Inactive)
REMARK    1  A    between atoms: O_2  and  C_15 
REMARK    2  A    between atoms: O_3  and  C_18 
REMARK    3  A    between atoms: C_4  and  C_8 
ROOT
HETATM    1  O   UNK N   1      26.636  25.182  -9.012  0.00  0.00    -0.350 OA
HETATM    2  C   UNK N   1      25.954  26.206  -6.905  0.00  0.00     0.047 C 
HETATM    3  C   UNK N   1      26.241  24.868  -6.231  0.00  0.00     0.052 C 
HETATM    4  C   UNK N   1      26.793  26.300  -8.196  0.00  0.00     0.185 C 
HETATM    5  C   UNK N   1      25.958  23.771  -7.194  0.00  0.00    -0.024 A 
HETATM    6  C   UNK N   1      26.192  23.979  -8.565  0.00  0.00     0.077 A 
HETATM    7  C   UNK N   1      25.463  22.547  -6.741  0.00  0.00     0.012 A 
HETATM    8  C   UNK N   1      25.942  22.944  -9.472  0.00  0.00     0.073 A 
HETATM    9  C   UNK N   1      25.206  21.520  -7.652  0.00  0.00     0.037 A 
HETATM   10  C   UNK N   1      25.450  21.716  -9.016  0.00  0.00     0.068 A 
ENDROOT
BRANCH   2  11
HETATM   11  C   UNK N   1      26.188  27.331  -5.932  0.00  0.00    -0.051 A 
HETATM   12  C   UNK N   1      27.134  28.339  -6.183  0.00  0.00     0.010 A 
HETATM   13  C   UNK N   1      27.342  29.358  -5.246  0.00  0.00     0.037 A 
HETATM   14  C   UNK N   1      26.613  29.372  -4.055  0.00  0.00     0.065 A 
HETATM   15  C   UNK N   1      25.664  28.378  -3.803  0.00  0.00     0.037 A 
HETATM   16  C   UNK N   1      25.449  27.366  -4.740  0.00  0.00     0.010 A 
BRANCH  14  17
HETATM   17  O   UNK N   1      26.824  30.339  -3.149  0.00  0.00    -0.361 OA
HETATM   18  H   UNK N   1      27.686  30.492  -2.812  0.00  0.00     0.217 HD
ENDBRANCH  14  17
ENDBRANCH   2  11
BRANCH  10  19
HETATM   19  O   UNK N   1      25.205  20.726  -9.888  0.00  0.00    -0.361 OA
HETATM   20  H   UNK N   1      25.908  20.199 -10.217  0.00  0.00     0.217 HD
ENDBRANCH  10  19
TORSDOF 3
ENDMDL
MODEL 7
REMARK VINA RESULT:      -6.2     12.014     13.781
REMARK  3 active torsions:
REMARK  status: ('A' for Active; 'I' for Inactive)
REMARK    1  A    between atoms: O_2  and  C_15 
REMARK    2  A    between atoms: O_3  and  C_18 
REMARK    3  A    between atoms: C_4  and  C_8 
ROOT
HETATM    1  O   UNK N   1      26.693  17.140   5.698  0.00  0.00    -0.350 OA
HETATM    2  C   UNK N   1      28.970  17.592   4.949  0.00  0.00     0.047 C 
HETATM    3  C   UNK N   1      28.574  19.058   4.820  0.00  0.00     0.052 C 
HETATM    4  C   UNK N   1      28.038  16.915   5.976  0.00  0.00     0.185 C 
HETATM    5  C   UNK N   1      27.136  19.140   4.448  0.00  0.00    -0.024 A 
HETATM    6  C   UNK N   1      26.243  18.167   4.932  0.00  0.00     0.077 A 
HETATM    7  C   UNK N   1      26.678  20.172   3.628  0.00  0.00     0.012 A 
HETATM    8  C   UNK N   1      24.887  18.249   4.598  0.00  0.00     0.073 A 
HETATM    9  C   UNK N   1      25.325  20.243   3.289  0.00  0.00     0.037 A 
HETATM   10  C   UNK N   1      24.428  19.287   3.778  0.00  0.00     0.068 A 
ENDROOT
BRANCH   2  11
HETATM   11  C   UNK N   1      30.435  17.483   5.277  0.00  0.00    -0.051 A 
HETATM   12  C   UNK N   1      30.883  17.238   6.586  0.00  0.00     0.010 A 
HETATM   13  C   UNK N   1      32.253  17.165   6.860  0.00  0.00     0.037 A 
HETATM   14  C   UNK N   1      33.182  17.344   5.832  0.00  0.00     0.065 A 
HETATM   15  C   UNK N   1      32.745  17.580   4.527  0.00  0.00     0.037 A 
HETATM   16  C   UNK N   1      31.378  17.643   4.250  0.00  0.00     0.010 A 
BRANCH  14  17
HETATM   17  O   UNK N   1      34.496  17.291   6.098  0.00  0.00    -0.361 OA
HETATM   18  H   UNK N   1      34.949  18.054   6.402  0.00  0.00     0.217 HD
ENDBRANCH  14  17
ENDBRANCH   2  11
BRANCH  10  19
HETATM   19  O   UNK N   1      23.128  19.361   3.454  0.00  0.00    -0.361 OA
HETATM   20  H   UNK N   1      22.867  19.446   2.558  0.00  0.00     0.217 HD
ENDBRANCH  10  19
TORSDOF 3
ENDMDL
MODEL 8
REMARK VINA RESULT:      -6.2     23.649     25.046
REMARK  3 active torsions:
REMARK  status: ('A' for Active; 'I' for Inactive)
REMARK    1  A    between atoms: O_2  and  C_15 
REMARK    2  A    between atoms: O_3  and  C_18 
REMARK    3  A    between atoms: C_4  and  C_8 
ROOT
HETATM    1  O   UNK N   1      34.257  11.212  13.015  0.00  0.00    -0.350 OA
HETATM    2  C   UNK N   1      35.430  12.061  14.978  0.00  0.00     0.047 C 
HETATM    3  C   UNK N   1      35.536  13.403  14.262  0.00  0.00     0.052 C 
HETATM    4  C   UNK N   1      34.225  11.286  14.405  0.00  0.00     0.185 C 
HETATM    5  C   UNK N   1      35.637  13.163  12.797  0.00  0.00    -0.024 A 
HETATM    6  C   UNK N   1      34.963  12.067  12.230  0.00  0.00     0.077 A 
HETATM    7  C   UNK N   1      36.395  14.017  11.995  0.00  0.00     0.012 A 
HETATM    8  C   UNK N   1      35.042  11.847  10.851  0.00  0.00     0.073 A 
HETATM    9  C   UNK N   1      36.480  13.786  10.620  0.00  0.00     0.037 A 
HETATM   10  C   UNK N   1      35.800  12.707  10.047  0.00  0.00     0.068 A 
ENDROOT
BRANCH   2  11
HETATM   11  C   UNK N   1      35.375  12.277  16.467  0.00  0.00    -0.051 A 
HETATM   12  C   UNK N   1      35.405  11.202  17.371  0.00  0.00     0.010 A 
HETATM   13  C   UNK N   1      35.329  11.437  18.748  0.00  0.00     0.037 A 
HETATM   14  C   UNK N   1      35.217  12.744  19.229  0.00  0.00     0.065 A 
HETATM   15  C   UNK N   1      35.196  13.819  18.337  0.00  0.00     0.037 A 
HETATM   16  C   UNK N   1      35.281  13.586  16.963  0.00  0.00     0.010 A 
BRANCH  14  17
HETATM   17  O   UNK N   1      35.127  12.969  20.549  0.00  0.00    -0.361 OA
HETATM   18  H   UNK N   1      34.538  12.465  21.076  0.00  0.00     0.217 HD
ENDBRANCH  14  17
ENDBRANCH   2  11
BRANCH  10  19
HETATM   19  O   UNK N   1      35.881  12.491   8.725  0.00  0.00    -0.361 OA
HETATM   20  H   UNK N   1      36.285  11.712   8.395  0.00  0.00     0.217 HD
ENDBRANCH  10  19
TORSDOF 3
ENDMDL
MODEL 9
REMARK VINA RESULT:      -6.2      3.013      7.621
REMARK  3 active torsions:
REMARK  status: ('A' for Active; 'I' for Inactive)
REMARK    1  A    between atoms: O_2  and  C_15 
REMARK    2  A    between atoms: O_3  and  C_18 
REMARK    3  A    between atoms: C_4  and  C_8 
ROOT
HETATM    1  O   UNK N   1      29.751  27.233  -4.221  0.00  0.00    -0.350 OA
HETATM    2  C   UNK N   1      29.495  24.889  -3.593  0.00  0.00     0.047 C 
HETATM    3  C   UNK N   1      28.099  24.939  -4.203  0.00  0.00     0.052 C 
HETATM    4  C   UNK N   1      30.363  25.983  -4.251  0.00  0.00     0.185 C 
HETATM    5  C   UNK N   1      27.545  26.309  -4.031  0.00  0.00    -0.024 A 
HETATM    6  C   UNK N   1      28.414  27.414  -4.068  0.00  0.00     0.077 A 
HETATM    7  C   UNK N   1      26.175  26.494  -3.834  0.00  0.00     0.012 A 
HETATM    8  C   UNK N   1      27.895  28.705  -3.923  0.00  0.00     0.073 A 
HETATM    9  C   UNK N   1      25.664  27.785  -3.678  0.00  0.00     0.037 A 
HETATM   10  C   UNK N   1      26.520  28.889  -3.729  0.00  0.00     0.068 A 
ENDROOT
BRANCH   2  11
HETATM   11  C   UNK N   1      30.058  23.498  -3.713  0.00  0.00    -0.051 A 
HETATM   12  C   UNK N   1      30.958  22.981  -2.766  0.00  0.00     0.010 A 
HETATM   13  C   UNK N   1      31.479  21.692  -2.920  0.00  0.00     0.037 A 
HETATM   14  C   UNK N   1      31.110  20.916  -4.022  0.00  0.00     0.065 A 
HETATM   15  C   UNK N   1      30.209  21.419  -4.963  0.00  0.00     0.037 A 
HETATM   16  C   UNK N   1      29.681  22.702  -4.806  0.00  0.00     0.010 A 
BRANCH  14  17
HETATM   17  O   UNK N   1      31.623  19.686  -4.179  0.00  0.00    -0.361 OA
HETATM   18  H   UNK N   1      32.125  19.476  -4.943  0.00  0.00     0.217 HD
ENDBRANCH  14  17
ENDBRANCH   2  11
BRANCH  10  19
HETATM   19  O   UNK N   1      26.024  30.128  -3.583  0.00  0.00    -0.361 OA
HETATM   20  H   UNK N   1      26.024  30.726  -4.305  0.00  0.00     0.217 HD
ENDBRANCH  10  19
TORSDOF 3
ENDMDL
