MODEL 1
REMARK VINA RESULT:      -7.5      0.000      0.000
REMARK WARNING: 32 MAX_TORS EXCEEDED!!!
REMARK  35 active torsions:
REMARK  status: ('A' for Active; 'I' for Inactive)
REMARK       I    between atoms: C_2  and  N_4 
REMARK    1  A    between atoms: C_5  and  N_4 
REMARK    2  A    between atoms: C_5  and  C_6 
REMARK    3  A    between atoms: C_5  and  C_11 
REMARK    4  A    between atoms: C_6  and  C_7 
REMARK    5  A    between atoms: C_7  and  C_8 
REMARK    6  A    between atoms: C_8  and  O_10 
REMARK    7  A    between atoms: C_11  and  N_13 
REMARK    8  A    between atoms: C_14  and  N_13 
REMARK    9  A    between atoms: C_14  and  C_15 
REMARK   10  A    between atoms: C_14  and  C_20 
REMARK   11  A    between atoms: C_15  and  C_16 
REMARK   12  A    between atoms: C_16  and  C_17 
REMARK   13  A    between atoms: C_17  and  O_19 
REMARK       I    between atoms: C_20  and  N_22 
REMARK   14  A    between atoms: C_23  and  N_22 
REMARK   15  A    between atoms: C_23  and  C_24 
REMARK   16  A    between atoms: C_23  and  C_28 
REMARK   17  A    between atoms: C_24  and  C_25 
REMARK   18  A    between atoms: C_25  and  S_26 
REMARK       I    between atoms: C_28  and  N_30 
REMARK   19  A    between atoms: C_31  and  N_30 
REMARK   20  A    between atoms: C_31  and  C_32 
REMARK   21  A    between atoms: C_31  and  C_37 
REMARK   22  A    between atoms: C_32  and  C_33 
REMARK   23  A    between atoms: C_33  and  C_34 
REMARK       I    between atoms: C_34  and  N_36 
REMARK       I    between atoms: C_37  and  N_39 
REMARK   24  A    between atoms: C_40  and  N_39 
REMARK   25  A    between atoms: C_40  and  C_41 
REMARK   26  A    between atoms: C_40  and  C_49 
REMARK   27  A    between atoms: C_41  and  C_42 
REMARK   28  A    between atoms: C_42  and  C_43 
REMARK   29  A    between atoms: C_43  and  N_44 
REMARK       I    between atoms: N_44  and  C_45 
REMARK       I    between atoms: C_45  and  N_48 
REMARK       I    between atoms: C_49  and  N_51 
REMARK   30  A    between atoms: C_52  and  N_51 
REMARK   31  A    between atoms: C_52  and  C_53 
REMARK   32  A    between atoms: C_52  and  C_61 
REMARK   33  A    between atoms: C_53  and  C_54 
REMARK   34  A    between atoms: C_54  and  C_55 
REMARK   35  A    between atoms: C_55  and  N_56 
REMARK       I    between atoms: N_56  and  C_57 
REMARK       I    between atoms: C_57  and  N_60 
REMARK       I    between atoms: C_61  and  N_63 
ROOT
HETATM    1  C   UNK N   1      24.200  16.499   4.116  0.00  0.00     0.177 C 
ENDROOT
BRANCH   1   2
HETATM    2  N   UNK N   1      25.103  16.302   3.006  0.00  0.00    -0.346 N 
HETATM    3  C   UNK N   1      26.324  15.738   3.147  0.00  0.00     0.241 C 
HETATM    4  O   UNK N   1      27.054  15.672   2.165  0.00  0.00    -0.271 OA
HETATM    5  H   UNK N   1      24.817  16.589   2.108  0.00  0.00     0.163 HD
BRANCH   3   6
HETATM    6  C   UNK N   1      26.860  15.268   4.486  0.00  0.00     0.177 C 
BRANCH   6   7
HETATM    7  N   UNK N   1      28.296  15.168   4.494  0.00  0.00    -0.346 N 
HETATM    8  C   UNK N   1      29.059  16.041   5.187  0.00  0.00     0.241 C 
HETATM    9  O   UNK N   1      30.271  15.910   5.177  0.00  0.00    -0.271 OA
HETATM   10  H   UNK N   1      28.731  14.448   3.982  0.00  0.00     0.163 HD
BRANCH   8  11
HETATM   11  C   UNK N   1      28.415  17.136   6.006  0.00  0.00     0.174 C 
BRANCH  11  12
HETATM   12  N   UNK N   1      29.386  17.837   6.803  0.00  0.00    -0.379 N 
HETATM   13  H   UNK N   1      29.902  18.576   6.408  0.00  0.00     0.160 HD
BRANCH  12  14
HETATM   14  C   UNK N   1      29.604  17.469   8.151  0.00  0.00     0.019 C 
HETATM   15  C   UNK N   1      28.560  17.422   8.978  0.00  0.00     0.040 C 
BRANCH  14  16
HETATM   16  C   UNK N   1      30.976  17.052   8.640  0.00  0.00     0.133 C 
BRANCH  16  17
HETATM   17  N   UNK N   1      31.545  16.031   7.791  0.00  0.00    -0.351 N 
HETATM   18  C   UNK N   1      32.231  14.975   8.289  0.00  0.00     0.214 C 
HETATM   19  C   UNK N   1      32.842  13.992   7.355  0.00  0.00     0.117 C 
HETATM   20  O   UNK N   1      32.362  14.826   9.495  0.00  0.00    -0.274 OA
HETATM   21  H   UNK N   1      31.430  16.105   6.816  0.00  0.00     0.163 HD
ENDBRANCH  16  17
BRANCH  16  22
HETATM   22  C   UNK N   1      31.957  18.223   8.652  0.00  0.00     0.042 C 
BRANCH  22  23
HETATM   23  C   UNK N   1      33.172  18.028   7.762  0.00  0.00     0.112 C 
BRANCH  23  24
HETATM   24  C   UNK N   1      34.412  18.160   8.585  0.00  0.00     0.139 C 
HETATM   25  O   UNK N   1      34.659  17.334   9.447  0.00  0.00    -0.650 OA
BRANCH  24  26
HETATM   26  O   UNK N   1      35.263  19.183   8.375  0.00  0.00    -0.776 OA
HETATM   27  H   UNK N   1      35.337  20.006   8.818  0.00  0.00     0.167 HD
ENDBRANCH  24  26
ENDBRANCH  23  24
ENDBRANCH  22  23
ENDBRANCH  16  22
ENDBRANCH  14  16
ENDBRANCH  12  14
ENDBRANCH  11  12
BRANCH  11  28
HETATM   28  C   UNK N   1      27.681  18.132   5.121  0.00  0.00     0.045 C 
BRANCH  28  29
HETATM   29  C   UNK N   1      28.325  19.501   5.261  0.00  0.00     0.112 C 
BRANCH  29  30
HETATM   30  C   UNK N   1      27.401  20.455   5.943  0.00  0.00     0.139 C 
HETATM   31  O   UNK N   1      27.818  21.526   6.349  0.00  0.00    -0.650 OA
BRANCH  30  32
HETATM   32  O   UNK N   1      26.113  20.119   6.142  0.00  0.00    -0.776 OA
HETATM   33  H   UNK N   1      25.781  19.852   6.977  0.00  0.00     0.167 HD
ENDBRANCH  30  32
ENDBRANCH  29  30
ENDBRANCH  28  29
ENDBRANCH  11  28
ENDBRANCH   8  11
ENDBRANCH   6   7
BRANCH   6  34
HETATM   34  C   UNK N   1      26.199  14.106   5.242  0.00  0.00     0.045 C 
BRANCH  34  35
HETATM   35  C   UNK N   1      25.644  13.009   4.348  0.00  0.00     0.076 C 
BRANCH  35  36
HETATM   36  S   UNK N   1      25.083  11.585   5.314  0.00  0.00    -0.173 SA
HETATM   37  C   UNK N   1      24.729  12.636   6.747  0.00  0.00     0.089 C 
ENDBRANCH  35  36
ENDBRANCH  34  35
ENDBRANCH   6  34
ENDBRANCH   3   6
ENDBRANCH   1   2
BRANCH   1  38
HETATM   38  C   UNK N   1      24.174  17.960   4.561  0.00  0.00     0.044 C 
BRANCH  38  39
HETATM   39  C   UNK N   1      23.368  18.921   3.690  0.00  0.00     0.105 C 
BRANCH  39  40
HETATM   40  C   UNK N   1      24.172  20.100   3.229  0.00  0.00     0.215 C 
HETATM   41  O   UNK N   1      23.636  21.176   3.026  0.00  0.00    -0.274 OA
HETATM   42  N   UNK N   1      25.489  19.956   2.995  0.00  0.00    -0.370 N 
HETATM   43  H   UNK N   1      26.294  19.849   3.551  0.00  0.00     0.159 HD
HETATM   44  H   UNK N   1      25.697  19.957   2.034  0.00  0.00     0.159 HD
ENDBRANCH  39  40
ENDBRANCH  38  39
ENDBRANCH   1  38
BRANCH   1  45
HETATM   45  C   UNK N   1      22.854  15.878   3.875  0.00  0.00     0.241 C 
HETATM   46  O   UNK N   1      22.726  15.046   2.983  0.00  0.00    -0.271 OA
HETATM   47  N   UNK N   1      21.788  16.242   4.620  0.00  0.00    -0.346 N 
HETATM   48  H   UNK N   1      21.872  17.010   5.231  0.00  0.00     0.163 HD
BRANCH  47  49
HETATM   49  C   UNK N   1      20.533  15.542   4.547  0.00  0.00     0.176 C 
BRANCH  49  50
HETATM   50  C   UNK N   1      19.466  16.454   3.962  0.00  0.00     0.036 C 
BRANCH  50  51
HETATM   51  C   UNK N   1      19.983  17.155   2.721  0.00  0.00     0.023 C 
BRANCH  51  52
HETATM   52  C   UNK N   1      19.718  18.642   2.852  0.00  0.00     0.138 C 
BRANCH  52  53
HETATM   53  N   UNK N   1      19.920  19.283   1.577  0.00  0.00    -0.227 N 
HETATM   54  C   UNK N   1      20.449  20.594   1.477  0.00  0.00     0.665 C 
HETATM   55  N   UNK N   1      20.811  21.233   2.528  0.00  0.00    -0.235 N 
HETATM   56  N   UNK N   1      20.557  21.211   0.214  0.00  0.00    -0.235 N 
HETATM   57  H   UNK N   1      21.560  21.872   2.493  0.00  0.00     0.174 HD
ATOM     58  HN  UNK N   1      20.321  21.078   3.408  1.00  0.00     0.174 HD
HETATM   59  H   UNK N   1      19.895  21.195  -0.515  0.00  0.00     0.174 HD
HETATM   60  H   UNK N   1      21.386  21.712   0.040  0.00  0.00     0.174 HD
HETATM   61  H   UNK N   1      19.686  18.797   0.753  0.00  0.00     0.177 HD
ENDBRANCH  52  53
ENDBRANCH  51  52
ENDBRANCH  50  51
ENDBRANCH  49  50
BRANCH  49  62
HETATM   62  C   UNK N   1      20.176  15.233   5.955  0.00  0.00     0.241 C 
HETATM   63  O   UNK N   1      19.878  14.093   6.273  0.00  0.00    -0.271 OA
HETATM   64  N   UNK N   1      20.265  16.234   6.872  0.00  0.00    -0.346 N 
HETATM   65  H   UNK N   1      20.568  17.109   6.540  0.00  0.00     0.163 HD
BRANCH  64  66
HETATM   66  C   UNK N   1      19.963  16.148   8.282  0.00  0.00     0.176 C 
BRANCH  66  67
HETATM   67  C   UNK N   1      21.087  15.478   9.066  0.00  0.00     0.036 C 
BRANCH  67  68
HETATM   68  C   UNK N   1      20.666  14.204   9.764  0.00  0.00     0.023 C 
BRANCH  68  69
HETATM   69  C   UNK N   1      21.512  13.077   9.214  0.00  0.00     0.138 C 
BRANCH  69  70
HETATM   70  N   UNK N   1      22.705  12.882   9.998  0.00  0.00    -0.227 N 
HETATM   71  C   UNK N   1      22.683  12.282  11.285  0.00  0.00     0.665 C 
HETATM   72  N   UNK N   1      23.733  12.316  12.015  0.00  0.00    -0.235 N 
HETATM   73  N   UNK N   1      21.507  11.670  11.780  0.00  0.00    -0.235 N 
HETATM   74  H   UNK N   1      24.330  11.637  12.405  0.00  0.00     0.174 HD
ATOM     75  HN  UNK N   1      24.018  13.268  12.247  1.00  0.00     0.174 HD
HETATM   76  H   UNK N   1      20.588  11.423  11.529  0.00  0.00     0.174 HD
HETATM   77  H   UNK N   1      21.666  11.390  12.710  0.00  0.00     0.174 HD
HETATM   78  H   UNK N   1      23.568  13.176   9.628  0.00  0.00     0.177 HD
ENDBRANCH  69  70
ENDBRANCH  68  69
ENDBRANCH  67  68
ENDBRANCH  66  67
BRANCH  66  79
HETATM   79  C   UNK N   1      19.393  17.411   8.871  0.00  0.00     0.238 C 
HETATM   80  O   UNK N   1      20.048  18.440   8.908  0.00  0.00    -0.271 OA
HETATM   81  N   UNK N   1      18.144  17.400   9.372  0.00  0.00    -0.368 N 
HETATM   82  H   UNK N   1      17.921  17.271  10.323  0.00  0.00     0.159 HD
HETATM   83  H   UNK N   1      17.399  17.529   8.742  0.00  0.00     0.159 HD
ENDBRANCH  66  79
ENDBRANCH  64  66
ENDBRANCH  49  62
ENDBRANCH  47  49
ENDBRANCH   1  45
TORSDOF 35
ENDMDL
MODEL 2
REMARK VINA RESULT:      -7.3      1.958      5.846
REMARK WARNING: 32 MAX_TORS EXCEEDED!!!
REMARK  35 active torsions:
REMARK  status: ('A' for Active; 'I' for Inactive)
REMARK       I    between atoms: C_2  and  N_4 
REMARK    1  A    between atoms: C_5  and  N_4 
REMARK    2  A    between atoms: C_5  and  C_6 
REMARK    3  A    between atoms: C_5  and  C_11 
REMARK    4  A    between atoms: C_6  and  C_7 
REMARK    5  A    between atoms: C_7  and  C_8 
REMARK    6  A    between atoms: C_8  and  O_10 
REMARK    7  A    between atoms: C_11  and  N_13 
REMARK    8  A    between atoms: C_14  and  N_13 
REMARK    9  A    between atoms: C_14  and  C_15 
REMARK   10  A    between atoms: C_14  and  C_20 
REMARK   11  A    between atoms: C_15  and  C_16 
REMARK   12  A    between atoms: C_16  and  C_17 
REMARK   13  A    between atoms: C_17  and  O_19 
REMARK       I    between atoms: C_20  and  N_22 
REMARK   14  A    between atoms: C_23  and  N_22 
REMARK   15  A    between atoms: C_23  and  C_24 
REMARK   16  A    between atoms: C_23  and  C_28 
REMARK   17  A    between atoms: C_24  and  C_25 
REMARK   18  A    between atoms: C_25  and  S_26 
REMARK       I    between atoms: C_28  and  N_30 
REMARK   19  A    between atoms: C_31  and  N_30 
REMARK   20  A    between atoms: C_31  and  C_32 
REMARK   21  A    between atoms: C_31  and  C_37 
REMARK   22  A    between atoms: C_32  and  C_33 
REMARK   23  A    between atoms: C_33  and  C_34 
REMARK       I    between atoms: C_34  and  N_36 
REMARK       I    between atoms: C_37  and  N_39 
REMARK   24  A    between atoms: C_40  and  N_39 
REMARK   25  A    between atoms: C_40  and  C_41 
REMARK   26  A    between atoms: C_40  and  C_49 
REMARK   27  A    between atoms: C_41  and  C_42 
REMARK   28  A    between atoms: C_42  and  C_43 
REMARK   29  A    between atoms: C_43  and  N_44 
REMARK       I    between atoms: N_44  and  C_45 
REMARK       I    between atoms: C_45  and  N_48 
REMARK       I    between atoms: C_49  and  N_51 
REMARK   30  A    between atoms: C_52  and  N_51 
REMARK   31  A    between atoms: C_52  and  C_53 
REMARK   32  A    between atoms: C_52  and  C_61 
REMARK   33  A    between atoms: C_53  and  C_54 
REMARK   34  A    between atoms: C_54  and  C_55 
REMARK   35  A    between atoms: C_55  and  N_56 
REMARK       I    between atoms: N_56  and  C_57 
REMARK       I    between atoms: C_57  and  N_60 
REMARK       I    between atoms: C_61  and  N_63 
ROOT
HETATM    1  C   UNK N   1      23.389  17.616   4.856  0.00  0.00     0.177 C 
ENDROOT
BRANCH   1   2
HETATM    2  N   UNK N   1      23.384  16.562   3.869  0.00  0.00    -0.346 N 
HETATM    3  C   UNK N   1      24.442  15.745   3.663  0.00  0.00     0.241 C 
HETATM    4  O   UNK N   1      24.378  14.922   2.757  0.00  0.00    -0.271 OA
HETATM    5  H   UNK N   1      22.574  16.431   3.322  0.00  0.00     0.163 HD
BRANCH   3   6
HETATM    6  C   UNK N   1      25.736  15.867   4.447  0.00  0.00     0.177 C 
BRANCH   6   7
HETATM    7  N   UNK N   1      26.890  15.912   3.589  0.00  0.00    -0.346 N 
HETATM    8  C   UNK N   1      27.844  16.857   3.741  0.00  0.00     0.241 C 
HETATM    9  O   UNK N   1      28.812  16.848   3.000  0.00  0.00    -0.271 OA
HETATM   10  H   UNK N   1      26.986  15.240   2.875  0.00  0.00     0.163 HD
BRANCH   8  11
HETATM   11  C   UNK N   1      27.737  17.880   4.848  0.00  0.00     0.174 C 
BRANCH  11  12
HETATM   12  N   UNK N   1      28.981  18.021   5.555  0.00  0.00    -0.379 N 
HETATM   13  H   UNK N   1      29.609  18.735   5.303  0.00  0.00     0.160 HD
BRANCH  12  14
HETATM   14  C   UNK N   1      29.307  17.139   6.611  0.00  0.00     0.019 C 
HETATM   15  C   UNK N   1      28.453  17.013   7.626  0.00  0.00     0.040 C 
BRANCH  14  16
HETATM   16  C   UNK N   1      30.557  16.283   6.563  0.00  0.00     0.133 C 
BRANCH  16  17
HETATM   17  N   UNK N   1      30.885  15.912   5.207  0.00  0.00    -0.351 N 
HETATM   18  C   UNK N   1      30.872  14.626   4.785  0.00  0.00     0.214 C 
HETATM   19  C   UNK N   1      31.278  14.308   3.389  0.00  0.00     0.117 C 
HETATM   20  O   UNK N   1      30.541  13.723   5.539  0.00  0.00    -0.274 OA
HETATM   21  H   UNK N   1      31.126  16.619   4.566  0.00  0.00     0.163 HD
ENDBRANCH  16  17
BRANCH  16  22
HETATM   22  C   UNK N   1      31.771  17.015   7.134  0.00  0.00     0.042 C 
BRANCH  22  23
HETATM   23  C   UNK N   1      32.847  16.099   7.691  0.00  0.00     0.112 C 
BRANCH  23  24
HETATM   24  C   UNK N   1      32.229  15.151   8.666  0.00  0.00     0.139 C 
HETATM   25  O   UNK N   1      32.243  13.953   8.440  0.00  0.00    -0.650 OA
BRANCH  24  26
HETATM   26  O   UNK N   1      31.662  15.612   9.798  0.00  0.00    -0.776 OA
HETATM   27  H   UNK N   1      32.013  16.173  10.462  0.00  0.00     0.167 HD
ENDBRANCH  24  26
ENDBRANCH  23  24
ENDBRANCH  22  23
ENDBRANCH  16  22
ENDBRANCH  14  16
ENDBRANCH  12  14
ENDBRANCH  11  12
BRANCH  11  28
HETATM   28  C   UNK N   1      27.311  19.237   4.309  0.00  0.00     0.045 C 
BRANCH  28  29
HETATM   29  C   UNK N   1      27.892  20.333   5.186  0.00  0.00     0.112 C 
BRANCH  29  30
HETATM   30  C   UNK N   1      26.969  20.658   6.312  0.00  0.00     0.139 C 
HETATM   31  O   UNK N   1      26.120  21.523   6.177  0.00  0.00    -0.650 OA
BRANCH  30  32
HETATM   32  O   UNK N   1      27.096  20.022   7.492  0.00  0.00    -0.776 OA
HETATM   33  H   UNK N   1      26.807  20.394   8.303  0.00  0.00     0.167 HD
ENDBRANCH  30  32
ENDBRANCH  29  30
ENDBRANCH  28  29
ENDBRANCH  11  28
ENDBRANCH   8  11
ENDBRANCH   6   7
BRANCH   6  34
HETATM   34  C   UNK N   1      25.985  15.020   5.703  0.00  0.00     0.045 C 
BRANCH  34  35
HETATM   35  C   UNK N   1      26.796  13.757   5.458  0.00  0.00     0.076 C 
BRANCH  35  36
HETATM   36  S   UNK N   1      25.727  12.340   5.101  0.00  0.00    -0.173 SA
HETATM   37  C   UNK N   1      24.581  12.811   6.423  0.00  0.00     0.089 C 
ENDBRANCH  35  36
ENDBRANCH  34  35
ENDBRANCH   6  34
ENDBRANCH   3   6
ENDBRANCH   1   2
BRANCH   1  38
HETATM   38  C   UNK N   1      23.219  18.988   4.207  0.00  0.00     0.044 C 
BRANCH  38  39
HETATM   39  C   UNK N   1      21.916  19.223   3.447  0.00  0.00     0.105 C 
BRANCH  39  40
HETATM   40  C   UNK N   1      21.953  20.458   2.598  0.00  0.00     0.215 C 
HETATM   41  O   UNK N   1      23.013  20.889   2.174  0.00  0.00    -0.274 OA
HETATM   42  N   UNK N   1      20.812  21.122   2.340  0.00  0.00    -0.370 N 
HETATM   43  H   UNK N   1      20.024  20.969   1.770  0.00  0.00     0.159 HD
HETATM   44  H   UNK N   1      20.750  21.965   2.843  0.00  0.00     0.159 HD
ENDBRANCH  39  40
ENDBRANCH  38  39
ENDBRANCH   1  38
BRANCH   1  45
HETATM   45  C   UNK N   1      22.464  17.330   6.004  0.00  0.00     0.241 C 
HETATM   46  O   UNK N   1      21.888  18.260   6.558  0.00  0.00    -0.271 OA
HETATM   47  N   UNK N   1      22.277  16.063   6.435  0.00  0.00    -0.346 N 
HETATM   48  H   UNK N   1      22.852  15.348   6.077  0.00  0.00     0.163 HD
BRANCH  47  49
HETATM   49  C   UNK N   1      21.265  15.729   7.401  0.00  0.00     0.176 C 
BRANCH  49  50
HETATM   50  C   UNK N   1      21.758  14.604   8.297  0.00  0.00     0.036 C 
BRANCH  50  51
HETATM   51  C   UNK N   1      20.821  14.406   9.473  0.00  0.00     0.023 C 
BRANCH  51  52
HETATM   52  C   UNK N   1      21.242  13.161  10.229  0.00  0.00     0.138 C 
BRANCH  52  53
HETATM   53  N   UNK N   1      22.681  13.080  10.263  0.00  0.00    -0.227 N 
HETATM   54  C   UNK N   1      23.361  12.286  11.220  0.00  0.00     0.665 C 
HETATM   55  N   UNK N   1      22.706  11.572  12.059  0.00  0.00    -0.235 N 
HETATM   56  N   UNK N   1      24.771  12.298  11.265  0.00  0.00    -0.235 N 
HETATM   57  H   UNK N   1      23.071  10.716  12.382  0.00  0.00     0.174 HD
ATOM     58  HN  UNK N   1      21.798  11.892  12.395  1.00  0.00     0.174 HD
HETATM   59  H   UNK N   1      25.362  13.081  11.183  0.00  0.00     0.174 HD
HETATM   60  H   UNK N   1      25.212  11.427  11.392  0.00  0.00     0.174 HD
HETATM   61  H   UNK N   1      23.206  13.589   9.603  0.00  0.00     0.177 HD
ENDBRANCH  52  53
ENDBRANCH  51  52
ENDBRANCH  50  51
ENDBRANCH  49  50
BRANCH  49  62
HETATM   62  C   UNK N   1      20.113  15.234   6.605  0.00  0.00     0.241 C 
HETATM   63  O   UNK N   1      19.015  15.748   6.738  0.00  0.00    -0.271 OA
HETATM   64  N   UNK N   1      20.344  14.258   5.686  0.00  0.00    -0.346 N 
HETATM   65  H   UNK N   1      21.272  13.941   5.604  0.00  0.00     0.163 HD
BRANCH  64  66
HETATM   66  C   UNK N   1      19.371  13.638   4.816  0.00  0.00     0.176 C 
BRANCH  66  67
HETATM   67  C   UNK N   1      19.249  14.370   3.484  0.00  0.00     0.036 C 
BRANCH  67  68
HETATM   68  C   UNK N   1      20.429  15.263   3.171  0.00  0.00     0.023 C 
BRANCH  68  69
HETATM   69  C   UNK N   1      20.843  14.994   1.741  0.00  0.00     0.138 C 
BRANCH  69  70
HETATM   70  N   UNK N   1      19.736  15.155   0.831  0.00  0.00    -0.227 N 
HETATM   71  C   UNK N   1      19.341  16.422   0.326  0.00  0.00     0.665 C 
HETATM   72  N   UNK N   1      18.238  16.530  -0.312  0.00  0.00    -0.235 N 
HETATM   73  N   UNK N   1      20.141  17.569   0.541  0.00  0.00    -0.235 N 
HETATM   74  H   UNK N   1      17.989  16.794  -1.228  0.00  0.00     0.174 HD
ATOM     75  HN  UNK N   1      17.429  16.287   0.260  1.00  0.00     0.174 HD
HETATM   76  H   UNK N   1      21.002  17.864   0.915  0.00  0.00     0.174 HD
HETATM   77  H   UNK N   1      19.663  18.356   0.191  0.00  0.00     0.174 HD
HETATM   78  H   UNK N   1      19.235  14.356   0.551  0.00  0.00     0.177 HD
ENDBRANCH  69  70
ENDBRANCH  68  69
ENDBRANCH  67  68
ENDBRANCH  66  67
BRANCH  66  79
HETATM   79  C   UNK N   1      19.465  12.137   4.754  0.00  0.00     0.238 C 
HETATM   80  O   UNK N   1      20.299  11.531   5.407  0.00  0.00    -0.271 OA
HETATM   81  N   UNK N   1      18.621  11.456   3.957  0.00  0.00    -0.368 N 
HETATM   82  H   UNK N   1      18.831  11.158   3.042  0.00  0.00     0.159 HD
HETATM   83  H   UNK N   1      17.730  11.240   4.314  0.00  0.00     0.159 HD
ENDBRANCH  66  79
ENDBRANCH  64  66
ENDBRANCH  49  62
ENDBRANCH  47  49
ENDBRANCH   1  45
TORSDOF 35
ENDMDL
MODEL 3
REMARK VINA RESULT:      -7.3      2.915      9.960
REMARK WARNING: 32 MAX_TORS EXCEEDED!!!
REMARK  35 active torsions:
REMARK  status: ('A' for Active; 'I' for Inactive)
REMARK       I    between atoms: C_2  and  N_4 
REMARK    1  A    between atoms: C_5  and  N_4 
REMARK    2  A    between atoms: C_5  and  C_6 
REMARK    3  A    between atoms: C_5  and  C_11 
REMARK    4  A    between atoms: C_6  and  C_7 
REMARK    5  A    between atoms: C_7  and  C_8 
REMARK    6  A    between atoms: C_8  and  O_10 
REMARK    7  A    between atoms: C_11  and  N_13 
REMARK    8  A    between atoms: C_14  and  N_13 
REMARK    9  A    between atoms: C_14  and  C_15 
REMARK   10  A    between atoms: C_14  and  C_20 
REMARK   11  A    between atoms: C_15  and  C_16 
REMARK   12  A    between atoms: C_16  and  C_17 
REMARK   13  A    between atoms: C_17  and  O_19 
REMARK       I    between atoms: C_20  and  N_22 
REMARK   14  A    between atoms: C_23  and  N_22 
REMARK   15  A    between atoms: C_23  and  C_24 
REMARK   16  A    between atoms: C_23  and  C_28 
REMARK   17  A    between atoms: C_24  and  C_25 
REMARK   18  A    between atoms: C_25  and  S_26 
REMARK       I    between atoms: C_28  and  N_30 
REMARK   19  A    between atoms: C_31  and  N_30 
REMARK   20  A    between atoms: C_31  and  C_32 
REMARK   21  A    between atoms: C_31  and  C_37 
REMARK   22  A    between atoms: C_32  and  C_33 
REMARK   23  A    between atoms: C_33  and  C_34 
REMARK       I    between atoms: C_34  and  N_36 
REMARK       I    between atoms: C_37  and  N_39 
REMARK   24  A    between atoms: C_40  and  N_39 
REMARK   25  A    between atoms: C_40  and  C_41 
REMARK   26  A    between atoms: C_40  and  C_49 
REMARK   27  A    between atoms: C_41  and  C_42 
REMARK   28  A    between atoms: C_42  and  C_43 
REMARK   29  A    between atoms: C_43  and  N_44 
REMARK       I    between atoms: N_44  and  C_45 
REMARK       I    between atoms: C_45  and  N_48 
REMARK       I    between atoms: C_49  and  N_51 
REMARK   30  A    between atoms: C_52  and  N_51 
REMARK   31  A    between atoms: C_52  and  C_53 
REMARK   32  A    between atoms: C_52  and  C_61 
REMARK   33  A    between atoms: C_53  and  C_54 
REMARK   34  A    between atoms: C_54  and  C_55 
REMARK   35  A    between atoms: C_55  and  N_56 
REMARK       I    between atoms: N_56  and  C_57 
REMARK       I    between atoms: C_57  and  N_60 
REMARK       I    between atoms: C_61  and  N_63 
ROOT
HETATM    1  C   UNK N   1      25.435  13.611   5.854  0.00  0.00     0.177 C 
ENDROOT
BRANCH   1   2
HETATM    2  N   UNK N   1      25.527  12.193   5.599  0.00  0.00    -0.346 N 
HETATM    3  C   UNK N   1      24.473  11.454   5.182  0.00  0.00     0.241 C 
HETATM    4  O   UNK N   1      24.620  10.244   5.057  0.00  0.00    -0.271 OA
HETATM    5  H   UNK N   1      26.393  11.743   5.734  0.00  0.00     0.163 HD
BRANCH   3   6
HETATM    6  C   UNK N   1      23.096  12.048   4.950  0.00  0.00     0.177 C 
BRANCH   6   7
HETATM    7  N   UNK N   1      22.223  11.856   6.077  0.00  0.00    -0.346 N 
HETATM    8  C   UNK N   1      21.506  12.877   6.596  0.00  0.00     0.241 C 
HETATM    9  O   UNK N   1      20.768  12.665   7.542  0.00  0.00    -0.271 OA
HETATM   10  H   UNK N   1      22.146  10.960   6.478  0.00  0.00     0.163 HD
BRANCH   8  11
HETATM   11  C   UNK N   1      21.582  14.255   5.979  0.00  0.00     0.174 C 
BRANCH  11  12
HETATM   12  N   UNK N   1      20.287  14.715   5.558  0.00  0.00    -0.379 N 
HETATM   13  H   UNK N   1      19.651  15.061   6.224  0.00  0.00     0.160 HD
BRANCH  12  14
HETATM   14  C   UNK N   1      19.921  14.670   4.193  0.00  0.00     0.019 C 
HETATM   15  C   UNK N   1      19.228  13.622   3.750  0.00  0.00     0.040 C 
BRANCH  14  16
HETATM   16  C   UNK N   1      20.229  15.824   3.260  0.00  0.00     0.133 C 
BRANCH  16  17
HETATM   17  N   UNK N   1      19.374  15.797   2.096  0.00  0.00    -0.351 N 
HETATM   18  C   UNK N   1      19.848  16.000   0.844  0.00  0.00     0.214 C 
HETATM   19  C   UNK N   1      18.903  16.018  -0.304  0.00  0.00     0.117 C 
HETATM   20  O   UNK N   1      21.041  16.178   0.648  0.00  0.00    -0.274 OA
HETATM   21  H   UNK N   1      18.412  15.625   2.217  0.00  0.00     0.163 HD
ENDBRANCH  16  17
BRANCH  16  22
HETATM   22  C   UNK N   1      20.020  17.177   3.938  0.00  0.00     0.042 C 
BRANCH  22  23
HETATM   23  C   UNK N   1      21.165  18.155   3.746  0.00  0.00     0.112 C 
BRANCH  23  24
HETATM   24  C   UNK N   1      20.646  19.405   3.112  0.00  0.00     0.139 C 
HETATM   25  O   UNK N   1      20.402  19.424   1.918  0.00  0.00    -0.650 OA
BRANCH  24  26
HETATM   26  O   UNK N   1      20.439  20.509   3.855  0.00  0.00    -0.776 OA
HETATM   27  H   UNK N   1      19.999  21.308   3.639  0.00  0.00     0.167 HD
ENDBRANCH  24  26
ENDBRANCH  23  24
ENDBRANCH  22  23
ENDBRANCH  16  22
ENDBRANCH  14  16
ENDBRANCH  12  14
ENDBRANCH  11  12
BRANCH  11  28
HETATM   28  C   UNK N   1      22.181  15.264   6.948  0.00  0.00     0.045 C 
BRANCH  28  29
HETATM   29  C   UNK N   1      21.140  16.317   7.287  0.00  0.00     0.112 C 
BRANCH  29  30
HETATM   30  C   UNK N   1      20.547  16.063   8.632  0.00  0.00     0.139 C 
HETATM   31  O   UNK N   1      19.664  16.789   9.058  0.00  0.00    -0.650 OA
BRANCH  30  32
HETATM   32  O   UNK N   1      21.010  15.055   9.393  0.00  0.00    -0.776 OA
HETATM   33  H   UNK N   1      21.270  14.228   9.038  0.00  0.00     0.167 HD
ENDBRANCH  30  32
ENDBRANCH  29  30
ENDBRANCH  28  29
ENDBRANCH  11  28
ENDBRANCH   8  11
ENDBRANCH   6   7
BRANCH   6  34
HETATM   34  C   UNK N   1      22.364  11.855   3.614  0.00  0.00     0.045 C 
BRANCH  34  35
HETATM   35  C   UNK N   1      23.201  12.176   2.386  0.00  0.00     0.076 C 
BRANCH  35  36
HETATM   36  S   UNK N   1      23.395  13.962   2.162  0.00  0.00    -0.173 SA
HETATM   37  C   UNK N   1      23.674  13.757   0.384  0.00  0.00     0.089 C 
ENDBRANCH  35  36
ENDBRANCH  34  35
ENDBRANCH   6  34
ENDBRANCH   3   6
ENDBRANCH   1   2
BRANCH   1  38
HETATM   38  C   UNK N   1      25.335  13.904   7.350  0.00  0.00     0.044 C 
BRANCH  38  39
HETATM   39  C   UNK N   1      24.866  12.753   8.237  0.00  0.00     0.105 C 
BRANCH  39  40
HETATM   40  C   UNK N   1      24.505  13.198   9.622  0.00  0.00     0.215 C 
HETATM   41  O   UNK N   1      23.341  13.389   9.931  0.00  0.00    -0.274 OA
HETATM   42  N   UNK N   1      25.480  13.432  10.520  0.00  0.00    -0.370 N 
HETATM   43  H   UNK N   1      26.095  12.877  11.051  0.00  0.00     0.159 HD
HETATM   44  H   UNK N   1      25.609  14.394  10.687  0.00  0.00     0.159 HD
ENDBRANCH  39  40
ENDBRANCH  38  39
ENDBRANCH   1  38
BRANCH   1  45
HETATM   45  C   UNK N   1      26.484  14.394   5.117  0.00  0.00     0.241 C 
HETATM   46  O   UNK N   1      26.203  14.912   4.041  0.00  0.00    -0.271 OA
HETATM   47  N   UNK N   1      27.731  14.514   5.621  0.00  0.00    -0.346 N 
HETATM   48  H   UNK N   1      27.982  13.976   6.407  0.00  0.00     0.163 HD
BRANCH  47  49
HETATM   49  C   UNK N   1      28.704  15.403   5.044  0.00  0.00     0.176 C 
BRANCH  49  50
HETATM   50  C   UNK N   1      29.902  14.607   4.551  0.00  0.00     0.036 C 
BRANCH  50  51
HETATM   51  C   UNK N   1      30.320  15.069   3.168  0.00  0.00     0.023 C 
BRANCH  51  52
HETATM   52  C   UNK N   1      31.830  15.207   3.134  0.00  0.00     0.138 C 
BRANCH  52  53
HETATM   53  N   UNK N   1      32.298  15.705   4.404  0.00  0.00    -0.227 N 
HETATM   54  C   UNK N   1      32.475  17.092   4.640  0.00  0.00     0.665 C 
HETATM   55  N   UNK N   1      32.174  17.951   3.738  0.00  0.00    -0.235 N 
HETATM   56  N   UNK N   1      33.008  17.528   5.870  0.00  0.00    -0.235 N 
HETATM   57  H   UNK N   1      31.840  18.843   3.987  0.00  0.00     0.174 HD
ATOM     58  HN  UNK N   1      32.280  17.709   2.753  1.00  0.00     0.174 HD
HETATM   59  H   UNK N   1      33.759  17.132   6.368  0.00  0.00     0.174 HD
HETATM   60  H   UNK N   1      32.581  18.317   6.277  0.00  0.00     0.174 HD
HETATM   61  H   UNK N   1      32.497  15.066   5.126  0.00  0.00     0.177 HD
ENDBRANCH  52  53
ENDBRANCH  51  52
ENDBRANCH  50  51
ENDBRANCH  49  50
BRANCH  49  62
HETATM   62  C   UNK N   1      29.141  16.281   6.158  0.00  0.00     0.241 C 
HETATM   63  O   UNK N   1      30.214  16.083   6.705  0.00  0.00    -0.271 OA
HETATM   64  N   UNK N   1      28.351  17.338   6.487  0.00  0.00    -0.346 N 
HETATM   65  H   UNK N   1      27.531  17.457   5.956  0.00  0.00     0.163 HD
BRANCH  64  66
HETATM   66  C   UNK N   1      28.588  18.306   7.533  0.00  0.00     0.176 C 
BRANCH  66  67
HETATM   67  C   UNK N   1      27.779  19.582   7.324  0.00  0.00     0.036 C 
BRANCH  67  68
HETATM   68  C   UNK N   1      27.868  20.134   5.918  0.00  0.00     0.023 C 
BRANCH  68  69
HETATM   69  C   UNK N   1      26.457  20.384   5.433  0.00  0.00     0.138 C 
BRANCH  69  70
HETATM   70  N   UNK N   1      25.581  19.290   5.767  0.00  0.00    -0.227 N 
HETATM   71  C   UNK N   1      25.353  18.199   4.886  0.00  0.00     0.665 C 
HETATM   72  N   UNK N   1      24.419  17.363   5.146  0.00  0.00    -0.235 N 
HETATM   73  N   UNK N   1      26.128  18.040   3.713  0.00  0.00    -0.235 N 
HETATM   74  H   UNK N   1      24.385  16.398   5.334  0.00  0.00     0.174 HD
ATOM     75  HN  UNK N   1      23.497  17.799   5.162  1.00  0.00     0.174 HD
HETATM   76  H   UNK N   1      26.897  18.413   3.227  0.00  0.00     0.174 HD
HETATM   77  H   UNK N   1      25.767  17.282   3.198  0.00  0.00     0.174 HD
HETATM   78  H   UNK N   1      25.124  19.298   6.638  0.00  0.00     0.177 HD
ENDBRANCH  69  70
ENDBRANCH  68  69
ENDBRANCH  67  68
ENDBRANCH  66  67
BRANCH  66  79
HETATM   79  C   UNK N   1      28.585  17.728   8.924  0.00  0.00     0.238 C 
HETATM   80  O   UNK N   1      27.538  17.441   9.483  0.00  0.00    -0.271 OA
HETATM   81  N   UNK N   1      29.754  17.535   9.560  0.00  0.00    -0.368 N 
HETATM   82  H   UNK N   1      30.156  18.166  10.201  0.00  0.00     0.159 HD
HETATM   83  H   UNK N   1      30.244  16.702   9.372  0.00  0.00     0.159 HD
ENDBRANCH  66  79
ENDBRANCH  64  66
ENDBRANCH  49  62
ENDBRANCH  47  49
ENDBRANCH   1  45
TORSDOF 35
ENDMDL
MODEL 4
REMARK VINA RESULT:      -7.3      3.189      9.912
REMARK WARNING: 32 MAX_TORS EXCEEDED!!!
REMARK  35 active torsions:
REMARK  status: ('A' for Active; 'I' for Inactive)
REMARK       I    between atoms: C_2  and  N_4 
REMARK    1  A    between atoms: C_5  and  N_4 
REMARK    2  A    between atoms: C_5  and  C_6 
REMARK    3  A    between atoms: C_5  and  C_11 
REMARK    4  A    between atoms: C_6  and  C_7 
REMARK    5  A    between atoms: C_7  and  C_8 
REMARK    6  A    between atoms: C_8  and  O_10 
REMARK    7  A    between atoms: C_11  and  N_13 
REMARK    8  A    between atoms: C_14  and  N_13 
REMARK    9  A    between atoms: C_14  and  C_15 
REMARK   10  A    between atoms: C_14  and  C_20 
REMARK   11  A    between atoms: C_15  and  C_16 
REMARK   12  A    between atoms: C_16  and  C_17 
REMARK   13  A    between atoms: C_17  and  O_19 
REMARK       I    between atoms: C_20  and  N_22 
REMARK   14  A    between atoms: C_23  and  N_22 
REMARK   15  A    between atoms: C_23  and  C_24 
REMARK   16  A    between atoms: C_23  and  C_28 
REMARK   17  A    between atoms: C_24  and  C_25 
REMARK   18  A    between atoms: C_25  and  S_26 
REMARK       I    between atoms: C_28  and  N_30 
REMARK   19  A    between atoms: C_31  and  N_30 
REMARK   20  A    between atoms: C_31  and  C_32 
REMARK   21  A    between atoms: C_31  and  C_37 
REMARK   22  A    between atoms: C_32  and  C_33 
REMARK   23  A    between atoms: C_33  and  C_34 
REMARK       I    between atoms: C_34  and  N_36 
REMARK       I    between atoms: C_37  and  N_39 
REMARK   24  A    between atoms: C_40  and  N_39 
REMARK   25  A    between atoms: C_40  and  C_41 
REMARK   26  A    between atoms: C_40  and  C_49 
REMARK   27  A    between atoms: C_41  and  C_42 
REMARK   28  A    between atoms: C_42  and  C_43 
REMARK   29  A    between atoms: C_43  and  N_44 
REMARK       I    between atoms: N_44  and  C_45 
REMARK       I    between atoms: C_45  and  N_48 
REMARK       I    between atoms: C_49  and  N_51 
REMARK   30  A    between atoms: C_52  and  N_51 
REMARK   31  A    between atoms: C_52  and  C_53 
REMARK   32  A    between atoms: C_52  and  C_61 
REMARK   33  A    between atoms: C_53  and  C_54 
REMARK   34  A    between atoms: C_54  and  C_55 
REMARK   35  A    between atoms: C_55  and  N_56 
REMARK       I    between atoms: N_56  and  C_57 
REMARK       I    between atoms: C_57  and  N_60 
REMARK       I    between atoms: C_61  and  N_63 
ROOT
HETATM    1  C   UNK N   1      24.529  17.561   4.843  0.00  0.00     0.177 C 
ENDROOT
BRANCH   1   2
HETATM    2  N   UNK N   1      23.604  18.321   5.651  0.00  0.00    -0.346 N 
HETATM    3  C   UNK N   1      22.399  17.841   6.032  0.00  0.00     0.241 C 
HETATM    4  O   UNK N   1      21.647  18.579   6.658  0.00  0.00    -0.271 OA
HETATM    5  H   UNK N   1      23.863  19.228   5.937  0.00  0.00     0.163 HD
BRANCH   3   6
HETATM    6  C   UNK N   1      21.905  16.461   5.640  0.00  0.00     0.177 C 
BRANCH   6   7
HETATM    7  N   UNK N   1      20.496  16.449   5.347  0.00  0.00    -0.346 N 
HETATM    8  C   UNK N   1      20.034  16.684   4.099  0.00  0.00     0.241 C 
HETATM    9  O   UNK N   1      18.833  16.649   3.894  0.00  0.00    -0.271 OA
HETATM   10  H   UNK N   1      19.855  16.268   6.072  0.00  0.00     0.163 HD
BRANCH   8  11
HETATM   11  C   UNK N   1      20.997  16.935   2.962  0.00  0.00     0.174 C 
BRANCH  11  12
HETATM   12  N   UNK N   1      21.033  15.825   2.048  0.00  0.00    -0.379 N 
HETATM   13  H   UNK N   1      20.358  15.756   1.335  0.00  0.00     0.160 HD
BRANCH  12  14
HETATM   14  C   UNK N   1      22.031  14.831   2.169  0.00  0.00     0.019 C 
HETATM   15  C   UNK N   1      23.249  15.192   2.573  0.00  0.00     0.040 C 
BRANCH  14  16
HETATM   16  C   UNK N   1      21.716  13.368   1.932  0.00  0.00     0.133 C 
BRANCH  16  17
HETATM   17  N   UNK N   1      20.401  13.029   2.423  0.00  0.00    -0.351 N 
HETATM   18  C   UNK N   1      20.124  11.828   2.982  0.00  0.00     0.214 C 
HETATM   19  C   UNK N   1      18.733  11.523   3.413  0.00  0.00     0.117 C 
HETATM   20  O   UNK N   1      21.000  10.988   3.127  0.00  0.00    -0.274 OA
HETATM   21  H   UNK N   1      19.680  13.696   2.349  0.00  0.00     0.163 HD
ENDBRANCH  16  17
BRANCH  16  22
HETATM   22  C   UNK N   1      21.745  13.013   0.446  0.00  0.00     0.042 C 
BRANCH  22  23
HETATM   23  C   UNK N   1      23.094  12.528  -0.054  0.00  0.00     0.112 C 
BRANCH  23  24
HETATM   24  C   UNK N   1      23.272  11.093   0.321  0.00  0.00     0.139 C 
HETATM   25  O   UNK N   1      24.390  10.655   0.531  0.00  0.00    -0.650 OA
BRANCH  24  26
HETATM   26  O   UNK N   1      22.203  10.282   0.434  0.00  0.00    -0.776 OA
HETATM   27  H   UNK N   1      21.969   9.521  -0.060  0.00  0.00     0.167 HD
ENDBRANCH  24  26
ENDBRANCH  23  24
ENDBRANCH  22  23
ENDBRANCH  16  22
ENDBRANCH  14  16
ENDBRANCH  12  14
ENDBRANCH  11  12
BRANCH  11  28
HETATM   28  C   UNK N   1      20.637  18.200   2.198  0.00  0.00     0.045 C 
BRANCH  28  29
HETATM   29  C   UNK N   1      20.997  19.415   3.036  0.00  0.00     0.112 C 
BRANCH  29  30
HETATM   30  C   UNK N   1      21.408  20.556   2.167  0.00  0.00     0.139 C 
HETATM   31  O   UNK N   1      21.431  20.425   0.954  0.00  0.00    -0.650 OA
BRANCH  30  32
HETATM   32  O   UNK N   1      21.789  21.722   2.721  0.00  0.00    -0.776 OA
HETATM   33  H   UNK N   1      22.611  22.131   2.531  0.00  0.00     0.167 HD
ENDBRANCH  30  32
ENDBRANCH  29  30
ENDBRANCH  28  29
ENDBRANCH  11  28
ENDBRANCH   8  11
ENDBRANCH   6   7
BRANCH   6  34
HETATM   34  C   UNK N   1      22.341  15.211   6.418  0.00  0.00     0.045 C 
BRANCH  34  35
HETATM   35  C   UNK N   1      21.809  13.903   5.855  0.00  0.00     0.076 C 
BRANCH  35  36
HETATM   36  S   UNK N   1      23.149  12.737   5.505  0.00  0.00    -0.173 SA
HETATM   37  C   UNK N   1      23.979  13.149   7.062  0.00  0.00     0.089 C 
ENDBRANCH  35  36
ENDBRANCH  34  35
ENDBRANCH   6  34
ENDBRANCH   3   6
ENDBRANCH   1   2
BRANCH   1  38
HETATM   38  C   UNK N   1      24.856  18.285   3.538  0.00  0.00     0.044 C 
BRANCH  38  39
HETATM   39  C   UNK N   1      24.797  19.810   3.574  0.00  0.00     0.105 C 
BRANCH  39  40
HETATM   40  C   UNK N   1      26.036  20.452   3.029  0.00  0.00     0.215 C 
HETATM   41  O   UNK N   1      25.964  21.295   2.150  0.00  0.00    -0.274 OA
HETATM   42  N   UNK N   1      27.241  20.062   3.482  0.00  0.00    -0.370 N 
HETATM   43  H   UNK N   1      27.755  20.190   4.311  0.00  0.00     0.159 HD
HETATM   44  H   UNK N   1      27.727  19.516   2.823  0.00  0.00     0.159 HD
ENDBRANCH  39  40
ENDBRANCH  38  39
ENDBRANCH   1  38
BRANCH   1  45
HETATM   45  C   UNK N   1      25.719  17.087   5.628  0.00  0.00     0.241 C 
HETATM   46  O   UNK N   1      25.882  15.885   5.805  0.00  0.00    -0.271 OA
HETATM   47  N   UNK N   1      26.594  17.974   6.150  0.00  0.00    -0.346 N 
HETATM   48  H   UNK N   1      26.373  18.934   6.123  0.00  0.00     0.163 HD
BRANCH  47  49
HETATM   49  C   UNK N   1      27.837  17.558   6.744  0.00  0.00     0.176 C 
BRANCH  49  50
HETATM   50  C   UNK N   1      28.294  18.592   7.761  0.00  0.00     0.036 C 
BRANCH  50  51
HETATM   51  C   UNK N   1      28.268  18.014   9.162  0.00  0.00     0.023 C 
BRANCH  51  52
HETATM   52  C   UNK N   1      29.670  18.065   9.739  0.00  0.00     0.138 C 
BRANCH  52  53
HETATM   53  N   UNK N   1      30.343  16.816   9.481  0.00  0.00    -0.227 N 
HETATM   54  C   UNK N   1      31.399  16.719   8.541  0.00  0.00     0.665 C 
HETATM   55  N   UNK N   1      31.821  17.761   7.923  0.00  0.00    -0.235 N 
HETATM   56  N   UNK N   1      31.976  15.462   8.265  0.00  0.00    -0.235 N 
HETATM   57  H   UNK N   1      32.767  17.840   7.662  0.00  0.00     0.174 HD
ATOM     58  HN  UNK N   1      31.171  18.514   7.701  1.00  0.00     0.174 HD
HETATM   59  H   UNK N   1      31.507  14.605   8.144  0.00  0.00     0.174 HD
HETATM   60  H   UNK N   1      32.957  15.439   8.185  0.00  0.00     0.174 HD
HETATM   61  H   UNK N   1      30.063  16.010   9.973  0.00  0.00     0.177 HD
ENDBRANCH  52  53
ENDBRANCH  51  52
ENDBRANCH  50  51
ENDBRANCH  49  50
BRANCH  49  62
HETATM   62  C   UNK N   1      28.812  17.526   5.626  0.00  0.00     0.241 C 
HETATM   63  O   UNK N   1      29.118  18.559   5.053  0.00  0.00    -0.271 OA
HETATM   64  N   UNK N   1      29.398  16.336   5.322  0.00  0.00    -0.346 N 
HETATM   65  H   UNK N   1      29.136  15.564   5.872  0.00  0.00     0.163 HD
BRANCH  64  66
HETATM   66  C   UNK N   1      30.364  16.086   4.277  0.00  0.00     0.176 C 
BRANCH  66  67
HETATM   67  C   UNK N   1      29.754  16.242   2.888  0.00  0.00     0.036 C 
BRANCH  67  68
HETATM   68  C   UNK N   1      28.981  15.028   2.423  0.00  0.00     0.023 C 
BRANCH  68  69
HETATM   69  C   UNK N   1      27.507  15.355   2.523  0.00  0.00     0.138 C 
BRANCH  69  70
HETATM   70  N   UNK N   1      26.690  14.212   2.203  0.00  0.00    -0.227 N 
HETATM   71  C   UNK N   1      26.378  13.207   3.156  0.00  0.00     0.665 C 
HETATM   72  N   UNK N   1      25.821  12.121   2.768  0.00  0.00    -0.235 N 
HETATM   73  N   UNK N   1      26.696  13.379   4.524  0.00  0.00    -0.235 N 
HETATM   74  H   UNK N   1      24.963  11.676   2.956  0.00  0.00     0.174 HD
ATOM     75  HN  UNK N   1      26.400  11.597   2.112  1.00  0.00     0.174 HD
HETATM   76  H   UNK N   1      27.057  14.031   5.167  0.00  0.00     0.174 HD
HETATM   77  H   UNK N   1      26.479  12.548   5.005  0.00  0.00     0.174 HD
HETATM   78  H   UNK N   1      26.335  14.125   1.289  0.00  0.00     0.177 HD
ENDBRANCH  69  70
ENDBRANCH  68  69
ENDBRANCH  67  68
ENDBRANCH  66  67
BRANCH  66  79
HETATM   79  C   UNK N   1      31.702  16.739   4.503  0.00  0.00     0.238 C 
HETATM   80  O   UNK N   1      32.525  16.242   5.254  0.00  0.00    -0.271 OA
HETATM   81  N   UNK N   1      31.987  17.893   3.873  0.00  0.00    -0.368 N 
HETATM   82  H   UNK N   1      31.875  18.789   4.265  0.00  0.00     0.159 HD
HETATM   83  H   UNK N   1      32.332  17.837   2.953  0.00  0.00     0.159 HD
ENDBRANCH  66  79
ENDBRANCH  64  66
ENDBRANCH  49  62
ENDBRANCH  47  49
ENDBRANCH   1  45
TORSDOF 35
ENDMDL
MODEL 5
REMARK VINA RESULT:      -7.2      3.502      9.242
REMARK WARNING: 32 MAX_TORS EXCEEDED!!!
REMARK  35 active torsions:
REMARK  status: ('A' for Active; 'I' for Inactive)
REMARK       I    between atoms: C_2  and  N_4 
REMARK    1  A    between atoms: C_5  and  N_4 
REMARK    2  A    between atoms: C_5  and  C_6 
REMARK    3  A    between atoms: C_5  and  C_11 
REMARK    4  A    between atoms: C_6  and  C_7 
REMARK    5  A    between atoms: C_7  and  C_8 
REMARK    6  A    between atoms: C_8  and  O_10 
REMARK    7  A    between atoms: C_11  and  N_13 
REMARK    8  A    between atoms: C_14  and  N_13 
REMARK    9  A    between atoms: C_14  and  C_15 
REMARK   10  A    between atoms: C_14  and  C_20 
REMARK   11  A    between atoms: C_15  and  C_16 
REMARK   12  A    between atoms: C_16  and  C_17 
REMARK   13  A    between atoms: C_17  and  O_19 
REMARK       I    between atoms: C_20  and  N_22 
REMARK   14  A    between atoms: C_23  and  N_22 
REMARK   15  A    between atoms: C_23  and  C_24 
REMARK   16  A    between atoms: C_23  and  C_28 
REMARK   17  A    between atoms: C_24  and  C_25 
REMARK   18  A    between atoms: C_25  and  S_26 
REMARK       I    between atoms: C_28  and  N_30 
REMARK   19  A    between atoms: C_31  and  N_30 
REMARK   20  A    between atoms: C_31  and  C_32 
REMARK   21  A    between atoms: C_31  and  C_37 
REMARK   22  A    between atoms: C_32  and  C_33 
REMARK   23  A    between atoms: C_33  and  C_34 
REMARK       I    between atoms: C_34  and  N_36 
REMARK       I    between atoms: C_37  and  N_39 
REMARK   24  A    between atoms: C_40  and  N_39 
REMARK   25  A    between atoms: C_40  and  C_41 
REMARK   26  A    between atoms: C_40  and  C_49 
REMARK   27  A    between atoms: C_41  and  C_42 
REMARK   28  A    between atoms: C_42  and  C_43 
REMARK   29  A    between atoms: C_43  and  N_44 
REMARK       I    between atoms: N_44  and  C_45 
REMARK       I    between atoms: C_45  and  N_48 
REMARK       I    between atoms: C_49  and  N_51 
REMARK   30  A    between atoms: C_52  and  N_51 
REMARK   31  A    between atoms: C_52  and  C_53 
REMARK   32  A    between atoms: C_52  and  C_61 
REMARK   33  A    between atoms: C_53  and  C_54 
REMARK   34  A    between atoms: C_54  and  C_55 
REMARK   35  A    between atoms: C_55  and  N_56 
REMARK       I    between atoms: N_56  and  C_57 
REMARK       I    between atoms: C_57  and  N_60 
REMARK       I    between atoms: C_61  and  N_63 
ROOT
HETATM    1  C   UNK N   1      23.138  17.514   4.881  0.00  0.00     0.177 C 
ENDROOT
BRANCH   1   2
HETATM    2  N   UNK N   1      22.394  18.300   5.837  0.00  0.00    -0.346 N 
HETATM    3  C   UNK N   1      21.404  17.782   6.599  0.00  0.00     0.241 C 
HETATM    4  O   UNK N   1      20.777  18.536   7.334  0.00  0.00    -0.271 OA
HETATM    5  H   UNK N   1      22.617  19.254   5.939  0.00  0.00     0.163 HD
BRANCH   3   6
HETATM    6  C   UNK N   1      20.980  16.328   6.515  0.00  0.00     0.177 C 
BRANCH   6   7
HETATM    7  N   UNK N   1      19.551  16.180   6.440  0.00  0.00    -0.346 N 
HETATM    8  C   UNK N   1      18.936  15.841   5.285  0.00  0.00     0.241 C 
HETATM    9  O   UNK N   1      17.724  15.713   5.273  0.00  0.00    -0.271 OA
HETATM   10  H   UNK N   1      19.009  16.330   7.249  0.00  0.00     0.163 HD
BRANCH   8  11
HETATM   11  C   UNK N   1      19.747  15.575   4.038  0.00  0.00     0.174 C 
BRANCH  11  12
HETATM   12  N   UNK N   1      19.226  14.456   3.302  0.00  0.00    -0.379 N 
HETATM   13  H   UNK N   1      18.680  14.610   2.497  0.00  0.00     0.160 HD
BRANCH  12  14
HETATM   14  C   UNK N   1      19.493  13.134   3.727  0.00  0.00     0.019 C 
HETATM   15  C   UNK N   1      18.513  12.436   4.300  0.00  0.00     0.040 C 
BRANCH  14  16
HETATM   16  C   UNK N   1      20.834  12.480   3.464  0.00  0.00     0.133 C 
BRANCH  16  17
HETATM   17  N   UNK N   1      21.479  13.055   2.307  0.00  0.00    -0.351 N 
HETATM   18  C   UNK N   1      22.048  12.294   1.342  0.00  0.00     0.214 C 
HETATM   19  C   UNK N   1      22.748  12.953   0.206  0.00  0.00     0.117 C 
HETATM   20  O   UNK N   1      22.001  11.075   1.398  0.00  0.00    -0.274 OA
HETATM   21  H   UNK N   1      21.506  14.035   2.216  0.00  0.00     0.163 HD
ENDBRANCH  16  17
BRANCH  16  22
HETATM   22  C   UNK N   1      21.792  12.651   4.642  0.00  0.00     0.042 C 
BRANCH  22  23
HETATM   23  C   UNK N   1      22.915  13.643   4.394  0.00  0.00     0.112 C 
BRANCH  23  24
HETATM   24  C   UNK N   1      24.206  13.052   4.862  0.00  0.00     0.139 C 
HETATM   25  O   UNK N   1      24.696  12.113   4.260  0.00  0.00    -0.650 OA
BRANCH  24  26
HETATM   26  O   UNK N   1      24.833  13.557   5.942  0.00  0.00    -0.776 OA
HETATM   27  H   UNK N   1      25.514  13.189   6.470  0.00  0.00     0.167 HD
ENDBRANCH  24  26
ENDBRANCH  23  24
ENDBRANCH  22  23
ENDBRANCH  16  22
ENDBRANCH  14  16
ENDBRANCH  12  14
ENDBRANCH  11  12
BRANCH  11  28
HETATM   28  C   UNK N   1      19.786  16.796   3.131  0.00  0.00     0.045 C 
BRANCH  28  29
HETATM   29  C   UNK N   1      20.572  16.466   1.874  0.00  0.00     0.112 C 
BRANCH  29  30
HETATM   30  C   UNK N   1      19.893  17.013   0.664  0.00  0.00     0.139 C 
HETATM   31  O   UNK N   1      20.499  17.749  -0.098  0.00  0.00    -0.650 OA
BRANCH  30  32
HETATM   32  O   UNK N   1      18.599  16.727   0.429  0.00  0.00    -0.776 OA
HETATM   33  H   UNK N   1      17.895  17.258   0.746  0.00  0.00     0.167 HD
ENDBRANCH  30  32
ENDBRANCH  29  30
ENDBRANCH  28  29
ENDBRANCH  11  28
ENDBRANCH   8  11
ENDBRANCH   6   7
BRANCH   6  34
HETATM   34  C   UNK N   1      21.623  15.261   7.412  0.00  0.00     0.045 C 
BRANCH  34  35
HETATM   35  C   UNK N   1      20.660  14.193   7.908  0.00  0.00     0.076 C 
BRANCH  35  36
HETATM   36  S   UNK N   1      20.749  14.002   9.706  0.00  0.00    -0.173 SA
HETATM   37  C   UNK N   1      22.487  13.500   9.615  0.00  0.00     0.089 C 
ENDBRANCH  35  36
ENDBRANCH  34  35
ENDBRANCH   6  34
ENDBRANCH   3   6
ENDBRANCH   1   2
BRANCH   1  38
HETATM   38  C   UNK N   1      23.090  18.137   3.487  0.00  0.00     0.044 C 
BRANCH  38  39
HETATM   39  C   UNK N   1      22.899  19.650   3.427  0.00  0.00     0.105 C 
BRANCH  39  40
HETATM   40  C   UNK N   1      21.488  20.045   3.108  0.00  0.00     0.215 C 
HETATM   41  O   UNK N   1      20.664  20.177   3.998  0.00  0.00    -0.274 OA
HETATM   42  N   UNK N   1      21.118  20.210   1.825  0.00  0.00    -0.370 N 
HETATM   43  H   UNK N   1      21.276  20.888   1.130  0.00  0.00     0.159 HD
HETATM   44  H   UNK N   1      20.551  19.472   1.505  0.00  0.00     0.159 HD
ENDBRANCH  39  40
ENDBRANCH  38  39
ENDBRANCH   1  38
BRANCH   1  45
HETATM   45  C   UNK N   1      24.510  17.158   5.378  0.00  0.00     0.241 C 
HETATM   46  O   UNK N   1      24.633  16.300   6.245  0.00  0.00    -0.271 OA
HETATM   47  N   UNK N   1      25.601  17.787   4.889  0.00  0.00    -0.346 N 
HETATM   48  H   UNK N   1      25.478  18.569   4.303  0.00  0.00     0.163 HD
BRANCH  47  49
HETATM   49  C   UNK N   1      26.936  17.350   5.199  0.00  0.00     0.176 C 
BRANCH  49  50
HETATM   50  C   UNK N   1      27.940  18.403   4.758  0.00  0.00     0.036 C 
BRANCH  50  51
HETATM   51  C   UNK N   1      27.249  19.728   4.502  0.00  0.00     0.023 C 
BRANCH  51  52
HETATM   52  C   UNK N   1      27.865  20.783   5.399  0.00  0.00     0.138 C 
BRANCH  52  53
HETATM   53  N   UNK N   1      26.847  21.348   6.250  0.00  0.00    -0.227 N 
HETATM   54  C   UNK N   1      26.573  20.819   7.536  0.00  0.00     0.665 C 
HETATM   55  N   UNK N   1      27.264  19.844   8.001  0.00  0.00    -0.235 N 
HETATM   56  N   UNK N   1      25.517  21.354   8.301  0.00  0.00    -0.235 N 
HETATM   57  H   UNK N   1      27.435  19.768   8.968  0.00  0.00     0.174 HD
ATOM     58  HN  UNK N   1      27.640  19.143   7.365  1.00  0.00     0.174 HD
HETATM   59  H   UNK N   1      24.620  21.609   7.983  0.00  0.00     0.174 HD
HETATM   60  H   UNK N   1      25.695  21.488   9.260  0.00  0.00     0.174 HD
HETATM   61  H   UNK N   1      26.331  22.123   5.930  0.00  0.00     0.177 HD
ENDBRANCH  52  53
ENDBRANCH  51  52
ENDBRANCH  50  51
ENDBRANCH  49  50
BRANCH  49  62
HETATM   62  C   UNK N   1      27.144  16.124   4.388  0.00  0.00     0.241 C 
HETATM   63  O   UNK N   1      27.208  15.035   4.934  0.00  0.00    -0.271 OA
HETATM   64  N   UNK N   1      27.183  16.253   3.034  0.00  0.00    -0.346 N 
HETATM   65  H   UNK N   1      27.065  17.161   2.675  0.00  0.00     0.163 HD
BRANCH  64  66
HETATM   66  C   UNK N   1      27.377  15.196   2.067  0.00  0.00     0.176 C 
BRANCH  66  67
HETATM   67  C   UNK N   1      28.754  14.554   2.194  0.00  0.00     0.036 C 
BRANCH  67  68
HETATM   68  C   UNK N   1      29.873  15.551   2.403  0.00  0.00     0.023 C 
BRANCH  68  69
HETATM   69  C   UNK N   1      30.816  14.974   3.436  0.00  0.00     0.138 C 
BRANCH  69  70
HETATM   70  N   UNK N   1      30.316  15.168   4.773  0.00  0.00    -0.227 N 
HETATM   71  C   UNK N   1      30.757  16.232   5.605  0.00  0.00     0.665 C 
HETATM   72  N   UNK N   1      30.434  16.240   6.843  0.00  0.00    -0.235 N 
HETATM   73  N   UNK N   1      31.568  17.269   5.087  0.00  0.00    -0.235 N 
HETATM   74  H   UNK N   1      29.915  16.845   7.421  0.00  0.00     0.174 HD
ATOM     75  HN  UNK N   1      30.799  15.432   7.348  1.00  0.00     0.174 HD
HETATM   76  H   UNK N   1      31.961  17.613   4.253  0.00  0.00     0.174 HD
HETATM   77  H   UNK N   1      31.835  17.860   5.828  0.00  0.00     0.174 HD
HETATM   78  H   UNK N   1      29.645  14.540   5.124  0.00  0.00     0.177 HD
ENDBRANCH  69  70
ENDBRANCH  68  69
ENDBRANCH  67  68
ENDBRANCH  66  67
BRANCH  66  79
HETATM   79  C   UNK N   1      26.206  14.258   1.932  0.00  0.00     0.238 C 
HETATM   80  O   UNK N   1      25.066  14.684   1.849  0.00  0.00    -0.271 OA
HETATM   81  N   UNK N   1      26.424  12.931   1.914  0.00  0.00    -0.368 N 
HETATM   82  H   UNK N   1      26.359  12.340   2.700  0.00  0.00     0.159 HD
HETATM   83  H   UNK N   1      26.666  12.520   1.053  0.00  0.00     0.159 HD
ENDBRANCH  66  79
ENDBRANCH  64  66
ENDBRANCH  49  62
ENDBRANCH  47  49
ENDBRANCH   1  45
TORSDOF 35
ENDMDL
MODEL 6
REMARK VINA RESULT:      -7.2      2.594      8.483
REMARK WARNING: 32 MAX_TORS EXCEEDED!!!
REMARK  35 active torsions:
REMARK  status: ('A' for Active; 'I' for Inactive)
REMARK       I    between atoms: C_2  and  N_4 
REMARK    1  A    between atoms: C_5  and  N_4 
REMARK    2  A    between atoms: C_5  and  C_6 
REMARK    3  A    between atoms: C_5  and  C_11 
REMARK    4  A    between atoms: C_6  and  C_7 
REMARK    5  A    between atoms: C_7  and  C_8 
REMARK    6  A    between atoms: C_8  and  O_10 
REMARK    7  A    between atoms: C_11  and  N_13 
REMARK    8  A    between atoms: C_14  and  N_13 
REMARK    9  A    between atoms: C_14  and  C_15 
REMARK   10  A    between atoms: C_14  and  C_20 
REMARK   11  A    between atoms: C_15  and  C_16 
REMARK   12  A    between atoms: C_16  and  C_17 
REMARK   13  A    between atoms: C_17  and  O_19 
REMARK       I    between atoms: C_20  and  N_22 
REMARK   14  A    between atoms: C_23  and  N_22 
REMARK   15  A    between atoms: C_23  and  C_24 
REMARK   16  A    between atoms: C_23  and  C_28 
REMARK   17  A    between atoms: C_24  and  C_25 
REMARK   18  A    between atoms: C_25  and  S_26 
REMARK       I    between atoms: C_28  and  N_30 
REMARK   19  A    between atoms: C_31  and  N_30 
REMARK   20  A    between atoms: C_31  and  C_32 
REMARK   21  A    between atoms: C_31  and  C_37 
REMARK   22  A    between atoms: C_32  and  C_33 
REMARK   23  A    between atoms: C_33  and  C_34 
REMARK       I    between atoms: C_34  and  N_36 
REMARK       I    between atoms: C_37  and  N_39 
REMARK   24  A    between atoms: C_40  and  N_39 
REMARK   25  A    between atoms: C_40  and  C_41 
REMARK   26  A    between atoms: C_40  and  C_49 
REMARK   27  A    between atoms: C_41  and  C_42 
REMARK   28  A    between atoms: C_42  and  C_43 
REMARK   29  A    between atoms: C_43  and  N_44 
REMARK       I    between atoms: N_44  and  C_45 
REMARK       I    between atoms: C_45  and  N_48 
REMARK       I    between atoms: C_49  and  N_51 
REMARK   30  A    between atoms: C_52  and  N_51 
REMARK   31  A    between atoms: C_52  and  C_53 
REMARK   32  A    between atoms: C_52  and  C_61 
REMARK   33  A    between atoms: C_53  and  C_54 
REMARK   34  A    between atoms: C_54  and  C_55 
REMARK   35  A    between atoms: C_55  and  N_56 
REMARK       I    between atoms: N_56  and  C_57 
REMARK       I    between atoms: C_57  and  N_60 
REMARK       I    between atoms: C_61  and  N_63 
ROOT
HETATM    1  C   UNK N   1      25.949  15.372   2.674  0.00  0.00     0.177 C 
ENDROOT
BRANCH   1   2
HETATM    2  N   UNK N   1      24.901  14.982   1.759  0.00  0.00    -0.346 N 
HETATM    3  C   UNK N   1      23.816  14.275   2.147  0.00  0.00     0.241 C 
HETATM    4  O   UNK N   1      23.010  13.926   1.292  0.00  0.00    -0.271 OA
HETATM    5  H   UNK N   1      24.980  15.243   0.812  0.00  0.00     0.163 HD
BRANCH   3   6
HETATM    6  C   UNK N   1      23.602  13.821   3.579  0.00  0.00     0.177 C 
BRANCH   6   7
HETATM    7  N   UNK N   1      23.483  14.928   4.489  0.00  0.00    -0.346 N 
HETATM    8  C   UNK N   1      22.282  15.320   4.970  0.00  0.00     0.241 C 
HETATM    9  O   UNK N   1      22.231  16.254   5.751  0.00  0.00    -0.271 OA
HETATM   10  H   UNK N   1      24.295  15.411   4.768  0.00  0.00     0.163 HD
BRANCH   8  11
HETATM   11  C   UNK N   1      21.025  14.577   4.582  0.00  0.00     0.174 C 
BRANCH  11  12
HETATM   12  N   UNK N   1      20.364  14.025   5.734  0.00  0.00    -0.379 N 
HETATM   13  H   UNK N   1      19.509  14.407   6.037  0.00  0.00     0.160 HD
BRANCH  12  14
HETATM   14  C   UNK N   1      20.936  12.937   6.433  0.00  0.00     0.019 C 
HETATM   15  C   UNK N   1      21.019  11.756   5.822  0.00  0.00     0.040 C 
BRANCH  14  16
HETATM   16  C   UNK N   1      21.526  13.116   7.817  0.00  0.00     0.133 C 
BRANCH  16  17
HETATM   17  N   UNK N   1      22.791  13.810   7.761  0.00  0.00    -0.351 N 
HETATM   18  C   UNK N   1      23.977  13.161   7.843  0.00  0.00     0.214 C 
HETATM   19  C   UNK N   1      25.243  13.944   7.838  0.00  0.00     0.117 C 
HETATM   20  O   UNK N   1      24.020  11.944   7.930  0.00  0.00    -0.274 OA
HETATM   21  H   UNK N   1      22.792  14.789   7.660  0.00  0.00     0.163 HD
ENDBRANCH  16  17
BRANCH  16  22
HETATM   22  C   UNK N   1      20.608  13.931   8.727  0.00  0.00     0.042 C 
BRANCH  22  23
HETATM   23  C   UNK N   1      21.113  15.331   9.030  0.00  0.00     0.112 C 
BRANCH  23  24
HETATM   24  C   UNK N   1      20.140  16.332   8.496  0.00  0.00     0.139 C 
HETATM   25  O   UNK N   1      20.244  17.505   8.808  0.00  0.00    -0.650 OA
BRANCH  24  26
HETATM   26  O   UNK N   1      19.151  15.944   7.668  0.00  0.00    -0.776 OA
HETATM   27  H   UNK N   1      18.795  16.370   6.913  0.00  0.00     0.167 HD
ENDBRANCH  24  26
ENDBRANCH  23  24
ENDBRANCH  22  23
ENDBRANCH  16  22
ENDBRANCH  14  16
ENDBRANCH  12  14
ENDBRANCH  11  12
BRANCH  11  28
HETATM   28  C   UNK N   1      20.055  15.479   3.834  0.00  0.00     0.045 C 
BRANCH  28  29
HETATM   29  C   UNK N   1      20.225  15.273   2.338  0.00  0.00     0.112 C 
BRANCH  29  30
HETATM   30  C   UNK N   1      20.090  16.565   1.605  0.00  0.00     0.139 C 
HETATM   31  O   UNK N   1      20.461  16.653   0.446  0.00  0.00    -0.650 OA
BRANCH  30  32
HETATM   32  O   UNK N   1      19.590  17.646   2.232  0.00  0.00    -0.776 OA
HETATM   33  H   UNK N   1      19.630  17.758   3.161  0.00  0.00     0.167 HD
ENDBRANCH  30  32
ENDBRANCH  29  30
ENDBRANCH  28  29
ENDBRANCH  11  28
ENDBRANCH   8  11
ENDBRANCH   6   7
BRANCH   6  34
HETATM   34  C   UNK N   1      24.423  12.669   4.177  0.00  0.00     0.045 C 
BRANCH  34  35
HETATM   35  C   UNK N   1      25.093  11.774   3.147  0.00  0.00     0.076 C 
BRANCH  35  36
HETATM   36  S   UNK N   1      24.929  10.024   3.582  0.00  0.00    -0.173 SA
HETATM   37  C   UNK N   1      25.719   9.516   2.033  0.00  0.00     0.089 C 
ENDBRANCH  35  36
ENDBRANCH  34  35
ENDBRANCH   6  34
ENDBRANCH   3   6
ENDBRANCH   1   2
BRANCH   1  38
HETATM   38  C   UNK N   1      27.333  15.125   2.076  0.00  0.00     0.044 C 
BRANCH  38  39
HETATM   39  C   UNK N   1      28.197  14.077   2.773  0.00  0.00     0.105 C 
BRANCH  39  40
HETATM   40  C   UNK N   1      28.476  14.416   4.206  0.00  0.00     0.215 C 
HETATM   41  O   UNK N   1      29.205  15.351   4.493  0.00  0.00    -0.274 OA
HETATM   42  N   UNK N   1      27.953  13.654   5.184  0.00  0.00    -0.370 N 
HETATM   43  H   UNK N   1      27.058  13.527   5.574  0.00  0.00     0.159 HD
HETATM   44  H   UNK N   1      28.631  13.084   5.613  0.00  0.00     0.159 HD
ENDBRANCH  39  40
ENDBRANCH  38  39
ENDBRANCH   1  38
BRANCH   1  45
HETATM   45  C   UNK N   1      25.731  16.746   3.241  0.00  0.00     0.241 C 
HETATM   46  O   UNK N   1      24.605  17.232   3.222  0.00  0.00    -0.271 OA
HETATM   47  N   UNK N   1      26.765  17.448   3.752  0.00  0.00    -0.346 N 
HETATM   48  H   UNK N   1      27.681  17.107   3.630  0.00  0.00     0.163 HD
BRANCH  47  49
HETATM   49  C   UNK N   1      26.568  18.680   4.468  0.00  0.00     0.176 C 
BRANCH  49  50
HETATM   50  C   UNK N   1      27.025  19.852   3.614  0.00  0.00     0.036 C 
BRANCH  50  51
HETATM   51  C   UNK N   1      25.850  20.476   2.886  0.00  0.00     0.023 C 
BRANCH  51  52
HETATM   52  C   UNK N   1      24.610  20.337   3.749  0.00  0.00     0.138 C 
BRANCH  52  53
HETATM   53  N   UNK N   1      23.443  20.676   2.974  0.00  0.00    -0.227 N 
HETATM   54  C   UNK N   1      22.265  19.889   3.017  0.00  0.00     0.665 C 
HETATM   55  N   UNK N   1      22.189  18.870   3.793  0.00  0.00    -0.235 N 
HETATM   56  N   UNK N   1      21.175  20.214   2.184  0.00  0.00    -0.235 N 
HETATM   57  H   UNK N   1      21.329  18.609   4.194  0.00  0.00     0.174 HD
ATOM     58  HN  UNK N   1      23.027  18.327   3.997  1.00  0.00     0.174 HD
HETATM   59  H   UNK N   1      21.209  20.489   1.239  0.00  0.00     0.174 HD
HETATM   60  H   UNK N   1      20.281  20.160   2.591  0.00  0.00     0.174 HD
HETATM   61  H   UNK N   1      23.463  21.476   2.400  0.00  0.00     0.177 HD
ENDBRANCH  52  53
ENDBRANCH  51  52
ENDBRANCH  50  51
ENDBRANCH  49  50
BRANCH  49  62
HETATM   62  C   UNK N   1      27.450  18.586   5.659  0.00  0.00     0.241 C 
HETATM   63  O   UNK N   1      27.960  19.593   6.121  0.00  0.00    -0.271 OA
HETATM   64  N   UNK N   1      27.603  17.368   6.246  0.00  0.00    -0.346 N 
HETATM   65  H   UNK N   1      27.109  16.619   5.841  0.00  0.00     0.163 HD
BRANCH  64  66
HETATM   66  C   UNK N   1      28.412  17.058   7.402  0.00  0.00     0.176 C 
BRANCH  66  67
HETATM   67  C   UNK N   1      29.878  17.417   7.185  0.00  0.00     0.036 C 
BRANCH  67  68
HETATM   68  C   UNK N   1      30.732  17.264   8.424  0.00  0.00     0.023 C 
BRANCH  68  69
HETATM   69  C   UNK N   1      32.165  17.080   7.975  0.00  0.00     0.138 C 
BRANCH  69  70
HETATM   70  N   UNK N   1      33.096  17.504   8.990  0.00  0.00    -0.227 N 
HETATM   71  C   UNK N   1      34.267  16.766   9.308  0.00  0.00     0.665 C 
HETATM   72  N   UNK N   1      34.946  17.078  10.347  0.00  0.00    -0.235 N 
HETATM   73  N   UNK N   1      34.677  15.676   8.505  0.00  0.00    -0.235 N 
HETATM   74  H   UNK N   1      35.866  17.392  10.506  0.00  0.00     0.174 HD
ATOM     75  HN  UNK N   1      34.411  16.977  11.209  1.00  0.00     0.174 HD
HETATM   76  H   UNK N   1      34.466  15.192   7.675  0.00  0.00     0.174 HD
HETATM   77  H   UNK N   1      35.454  15.246   8.930  0.00  0.00     0.174 HD
HETATM   78  H   UNK N   1      32.912  18.336   9.483  0.00  0.00     0.177 HD
ENDBRANCH  69  70
ENDBRANCH  68  69
ENDBRANCH  67  68
ENDBRANCH  66  67
BRANCH  66  79
HETATM   79  C   UNK N   1      27.803  17.477   8.714  0.00  0.00     0.238 C 
HETATM   80  O   UNK N   1      27.434  16.648   9.530  0.00  0.00    -0.271 OA
HETATM   81  N   UNK N   1      27.656  18.787   8.983  0.00  0.00    -0.368 N 
HETATM   82  H   UNK N   1      26.829  19.302   8.835  0.00  0.00     0.159 HD
HETATM   83  H   UNK N   1      28.431  19.266   9.356  0.00  0.00     0.159 HD
ENDBRANCH  66  79
ENDBRANCH  64  66
ENDBRANCH  49  62
ENDBRANCH  47  49
ENDBRANCH   1  45
TORSDOF 35
ENDMDL
MODEL 7
REMARK VINA RESULT:      -7.2      3.245     10.514
REMARK WARNING: 32 MAX_TORS EXCEEDED!!!
REMARK  35 active torsions:
REMARK  status: ('A' for Active; 'I' for Inactive)
REMARK       I    between atoms: C_2  and  N_4 
REMARK    1  A    between atoms: C_5  and  N_4 
REMARK    2  A    between atoms: C_5  and  C_6 
REMARK    3  A    between atoms: C_5  and  C_11 
REMARK    4  A    between atoms: C_6  and  C_7 
REMARK    5  A    between atoms: C_7  and  C_8 
REMARK    6  A    between atoms: C_8  and  O_10 
REMARK    7  A    between atoms: C_11  and  N_13 
REMARK    8  A    between atoms: C_14  and  N_13 
REMARK    9  A    between atoms: C_14  and  C_15 
REMARK   10  A    between atoms: C_14  and  C_20 
REMARK   11  A    between atoms: C_15  and  C_16 
REMARK   12  A    between atoms: C_16  and  C_17 
REMARK   13  A    between atoms: C_17  and  O_19 
REMARK       I    between atoms: C_20  and  N_22 
REMARK   14  A    between atoms: C_23  and  N_22 
REMARK   15  A    between atoms: C_23  and  C_24 
REMARK   16  A    between atoms: C_23  and  C_28 
REMARK   17  A    between atoms: C_24  and  C_25 
REMARK   18  A    between atoms: C_25  and  S_26 
REMARK       I    between atoms: C_28  and  N_30 
REMARK   19  A    between atoms: C_31  and  N_30 
REMARK   20  A    between atoms: C_31  and  C_32 
REMARK   21  A    between atoms: C_31  and  C_37 
REMARK   22  A    between atoms: C_32  and  C_33 
REMARK   23  A    between atoms: C_33  and  C_34 
REMARK       I    between atoms: C_34  and  N_36 
REMARK       I    between atoms: C_37  and  N_39 
REMARK   24  A    between atoms: C_40  and  N_39 
REMARK   25  A    between atoms: C_40  and  C_41 
REMARK   26  A    between atoms: C_40  and  C_49 
REMARK   27  A    between atoms: C_41  and  C_42 
REMARK   28  A    between atoms: C_42  and  C_43 
REMARK   29  A    between atoms: C_43  and  N_44 
REMARK       I    between atoms: N_44  and  C_45 
REMARK       I    between atoms: C_45  and  N_48 
REMARK       I    between atoms: C_49  and  N_51 
REMARK   30  A    between atoms: C_52  and  N_51 
REMARK   31  A    between atoms: C_52  and  C_53 
REMARK   32  A    between atoms: C_52  and  C_61 
REMARK   33  A    between atoms: C_53  and  C_54 
REMARK   34  A    between atoms: C_54  and  C_55 
REMARK   35  A    between atoms: C_55  and  N_56 
REMARK       I    between atoms: N_56  and  C_57 
REMARK       I    between atoms: C_57  and  N_60 
REMARK       I    between atoms: C_61  and  N_63 
ROOT
HETATM    1  C   UNK N   1      24.602  17.268   4.770  0.00  0.00     0.177 C 
ENDROOT
BRANCH   1   2
HETATM    2  N   UNK N   1      23.697  18.055   5.574  0.00  0.00    -0.346 N 
HETATM    3  C   UNK N   1      22.462  17.625   5.920  0.00  0.00     0.241 C 
HETATM    4  O   UNK N   1      21.732  18.385   6.546  0.00  0.00    -0.271 OA
HETATM    5  H   UNK N   1      23.991  18.942   5.886  0.00  0.00     0.163 HD
BRANCH   3   6
HETATM    6  C   UNK N   1      21.911  16.279   5.487  0.00  0.00     0.177 C 
BRANCH   6   7
HETATM    7  N   UNK N   1      20.487  16.188   5.670  0.00  0.00    -0.346 N 
HETATM    8  C   UNK N   1      19.627  16.512   4.678  0.00  0.00     0.241 C 
HETATM    9  O   UNK N   1      18.429  16.406   4.873  0.00  0.00    -0.271 OA
HETATM   10  H   UNK N   1      20.131  15.884   6.536  0.00  0.00     0.163 HD
BRANCH   8  11
HETATM   11  C   UNK N   1      20.147  16.952   3.330  0.00  0.00     0.174 C 
BRANCH  11  12
HETATM   12  N   UNK N   1      19.495  16.247   2.259  0.00  0.00    -0.379 N 
HETATM   13  H   UNK N   1      18.561  15.955   2.364  0.00  0.00     0.160 HD
BRANCH  12  14
HETATM   14  C   UNK N   1      20.188  15.970   1.058  0.00  0.00     0.019 C 
HETATM   15  C   UNK N   1      20.124  16.855   0.064  0.00  0.00     0.040 C 
BRANCH  14  16
HETATM   16  C   UNK N   1      21.061  14.739   0.920  0.00  0.00     0.133 C 
BRANCH  16  17
HETATM   17  N   UNK N   1      22.303  14.895   1.640  0.00  0.00    -0.351 N 
HETATM   18  C   UNK N   1      23.483  14.445   1.153  0.00  0.00     0.214 C 
HETATM   19  C   UNK N   1      24.716  14.586   1.974  0.00  0.00     0.117 C 
HETATM   20  O   UNK N   1      23.546  13.917   0.054  0.00  0.00    -0.274 OA
HETATM   21  H   UNK N   1      22.291  15.345   2.516  0.00  0.00     0.163 HD
ENDBRANCH  16  17
BRANCH  16  22
HETATM   22  C   UNK N   1      20.376  13.491   1.474  0.00  0.00     0.042 C 
BRANCH  22  23
HETATM   23  C   UNK N   1      19.797  12.573   0.411  0.00  0.00     0.112 C 
BRANCH  23  24
HETATM   24  C   UNK N   1      18.315  12.752   0.359  0.00  0.00     0.139 C 
HETATM   25  O   UNK N   1      17.623  11.923  -0.207  0.00  0.00    -0.650 OA
BRANCH  24  26
HETATM   26  O   UNK N   1      17.738  13.821   0.940  0.00  0.00    -0.776 OA
HETATM   27  H   UNK N   1      18.013  14.327   1.680  0.00  0.00     0.167 HD
ENDBRANCH  24  26
ENDBRANCH  23  24
ENDBRANCH  22  23
ENDBRANCH  16  22
ENDBRANCH  14  16
ENDBRANCH  12  14
ENDBRANCH  11  12
BRANCH  11  28
HETATM   28  C   UNK N   1      19.967  18.449   3.126  0.00  0.00     0.045 C 
BRANCH  28  29
HETATM   29  C   UNK N   1      21.327  19.103   2.956  0.00  0.00     0.112 C 
BRANCH  29  30
HETATM   30  C   UNK N   1      21.232  20.306   2.079  0.00  0.00     0.139 C 
HETATM   31  O   UNK N   1      21.009  20.179   0.887  0.00  0.00    -0.650 OA
BRANCH  30  32
HETATM   32  O   UNK N   1      21.429  21.533   2.596  0.00  0.00    -0.776 OA
HETATM   33  H   UNK N   1      20.950  21.857   3.333  0.00  0.00     0.167 HD
ENDBRANCH  30  32
ENDBRANCH  29  30
ENDBRANCH  28  29
ENDBRANCH  11  28
ENDBRANCH   8  11
ENDBRANCH   6   7
BRANCH   6  34
HETATM   34  C   UNK N   1      22.624  14.972   5.864  0.00  0.00     0.045 C 
BRANCH  34  35
HETATM   35  C   UNK N   1      22.538  14.612   7.338  0.00  0.00     0.076 C 
BRANCH  35  36
HETATM   36  S   UNK N   1      21.482  13.165   7.608  0.00  0.00    -0.173 SA
HETATM   37  C   UNK N   1      22.826  12.040   7.148  0.00  0.00     0.089 C 
ENDBRANCH  35  36
ENDBRANCH  34  35
ENDBRANCH   6  34
ENDBRANCH   3   6
ENDBRANCH   1   2
BRANCH   1  38
HETATM   38  C   UNK N   1      24.973  17.993   3.477  0.00  0.00     0.044 C 
BRANCH  38  39
HETATM   39  C   UNK N   1      24.978  19.519   3.532  0.00  0.00     0.105 C 
BRANCH  39  40
HETATM   40  C   UNK N   1      26.188  20.070   4.225  0.00  0.00     0.215 C 
HETATM   41  O   UNK N   1      26.104  20.525   5.354  0.00  0.00    -0.274 OA
HETATM   42  N   UNK N   1      27.367  20.105   3.577  0.00  0.00    -0.370 N 
HETATM   43  H   UNK N   1      28.042  19.441   3.311  0.00  0.00     0.159 HD
HETATM   44  H   UNK N   1      27.613  21.018   3.304  0.00  0.00     0.159 HD
ENDBRANCH  39  40
ENDBRANCH  38  39
ENDBRANCH   1  38
BRANCH   1  45
HETATM   45  C   UNK N   1      25.762  16.740   5.564  0.00  0.00     0.241 C 
HETATM   46  O   UNK N   1      25.913  15.528   5.675  0.00  0.00    -0.271 OA
HETATM   47  N   UNK N   1      26.623  17.588   6.167  0.00  0.00    -0.346 N 
HETATM   48  H   UNK N   1      26.409  18.549   6.190  0.00  0.00     0.163 HD
BRANCH  47  49
HETATM   49  C   UNK N   1      27.843  17.128   6.776  0.00  0.00     0.176 C 
BRANCH  49  50
HETATM   50  C   UNK N   1      28.516  18.276   7.512  0.00  0.00     0.036 C 
BRANCH  50  51
HETATM   51  C   UNK N   1      28.400  18.091   9.013  0.00  0.00     0.023 C 
BRANCH  51  52
HETATM   52  C   UNK N   1      29.587  17.282   9.500  0.00  0.00     0.138 C 
BRANCH  52  53
HETATM   53  N   UNK N   1      30.805  18.005   9.233  0.00  0.00    -0.227 N 
HETATM   54  C   UNK N   1      31.818  17.474   8.395  0.00  0.00     0.665 C 
HETATM   55  N   UNK N   1      31.654  16.347   7.807  0.00  0.00    -0.235 N 
HETATM   56  N   UNK N   1      33.026  18.182   8.224  0.00  0.00    -0.235 N 
HETATM   57  H   UNK N   1      32.057  16.179   6.925  0.00  0.00     0.174 HD
ATOM     58  HN  UNK N   1      31.101  15.618   8.256  1.00  0.00     0.174 HD
HETATM   59  H   UNK N   1      33.549  18.644   8.919  0.00  0.00     0.174 HD
HETATM   60  H   UNK N   1      33.387  18.217   7.309  0.00  0.00     0.174 HD
HETATM   61  H   UNK N   1      30.937  18.891   9.641  0.00  0.00     0.177 HD
ENDBRANCH  52  53
ENDBRANCH  51  52
ENDBRANCH  50  51
ENDBRANCH  49  50
BRANCH  49  62
HETATM   62  C   UNK N   1      28.712  16.713   5.646  0.00  0.00     0.241 C 
HETATM   63  O   UNK N   1      29.339  17.550   5.019  0.00  0.00    -0.271 OA
HETATM   64  N   UNK N   1      28.837  15.382   5.391  0.00  0.00    -0.346 N 
HETATM   65  H   UNK N   1      28.341  14.772   5.983  0.00  0.00     0.163 HD
BRANCH  64  66
HETATM   66  C   UNK N   1      29.623  14.769   4.346  0.00  0.00     0.176 C 
BRANCH  66  67
HETATM   67  C   UNK N   1      30.754  13.914   4.909  0.00  0.00     0.036 C 
BRANCH  67  68
HETATM   68  C   UNK N   1      31.715  13.406   3.857  0.00  0.00     0.023 C 
BRANCH  68  69
HETATM   69  C   UNK N   1      32.351  14.609   3.195  0.00  0.00     0.138 C 
BRANCH  69  70
HETATM   70  N   UNK N   1      32.898  15.519   4.169  0.00  0.00    -0.227 N 
HETATM   71  C   UNK N   1      32.691  16.922   4.103  0.00  0.00     0.665 C 
HETATM   72  N   UNK N   1      33.361  17.696   4.871  0.00  0.00    -0.235 N 
HETATM   73  N   UNK N   1      31.772  17.477   3.181  0.00  0.00    -0.235 N 
HETATM   74  H   UNK N   1      33.131  18.334   5.585  0.00  0.00     0.174 HD
ATOM     75  HN  UNK N   1      34.366  17.638   4.705  1.00  0.00     0.174 HD
HETATM   76  H   UNK N   1      31.096  17.235   2.509  0.00  0.00     0.174 HD
HETATM   77  H   UNK N   1      31.831  18.458   3.229  0.00  0.00     0.174 HD
HETATM   78  H   UNK N   1      33.436  15.155   4.908  0.00  0.00     0.177 HD
ENDBRANCH  69  70
ENDBRANCH  68  69
ENDBRANCH  67  68
ENDBRANCH  66  67
BRANCH  66  79
HETATM   79  C   UNK N   1      28.809  14.160   3.235  0.00  0.00     0.238 C 
HETATM   80  O   UNK N   1      28.205  13.112   3.399  0.00  0.00    -0.271 OA
HETATM   81  N   UNK N   1      28.756  14.779   2.041  0.00  0.00    -0.368 N 
HETATM   82  H   UNK N   1      29.327  14.560   1.270  0.00  0.00     0.159 HD
HETATM   83  H   UNK N   1      28.098  15.502   1.931  0.00  0.00     0.159 HD
ENDBRANCH  66  79
ENDBRANCH  64  66
ENDBRANCH  49  62
ENDBRANCH  47  49
ENDBRANCH   1  45
TORSDOF 35
ENDMDL
MODEL 8
REMARK VINA RESULT:      -7.1      2.923      9.042
REMARK WARNING: 32 MAX_TORS EXCEEDED!!!
REMARK  35 active torsions:
REMARK  status: ('A' for Active; 'I' for Inactive)
REMARK       I    between atoms: C_2  and  N_4 
REMARK    1  A    between atoms: C_5  and  N_4 
REMARK    2  A    between atoms: C_5  and  C_6 
REMARK    3  A    between atoms: C_5  and  C_11 
REMARK    4  A    between atoms: C_6  and  C_7 
REMARK    5  A    between atoms: C_7  and  C_8 
REMARK    6  A    between atoms: C_8  and  O_10 
REMARK    7  A    between atoms: C_11  and  N_13 
REMARK    8  A    between atoms: C_14  and  N_13 
REMARK    9  A    between atoms: C_14  and  C_15 
REMARK   10  A    between atoms: C_14  and  C_20 
REMARK   11  A    between atoms: C_15  and  C_16 
REMARK   12  A    between atoms: C_16  and  C_17 
REMARK   13  A    between atoms: C_17  and  O_19 
REMARK       I    between atoms: C_20  and  N_22 
REMARK   14  A    between atoms: C_23  and  N_22 
REMARK   15  A    between atoms: C_23  and  C_24 
REMARK   16  A    between atoms: C_23  and  C_28 
REMARK   17  A    between atoms: C_24  and  C_25 
REMARK   18  A    between atoms: C_25  and  S_26 
REMARK       I    between atoms: C_28  and  N_30 
REMARK   19  A    between atoms: C_31  and  N_30 
REMARK   20  A    between atoms: C_31  and  C_32 
REMARK   21  A    between atoms: C_31  and  C_37 
REMARK   22  A    between atoms: C_32  and  C_33 
REMARK   23  A    between atoms: C_33  and  C_34 
REMARK       I    between atoms: C_34  and  N_36 
REMARK       I    between atoms: C_37  and  N_39 
REMARK   24  A    between atoms: C_40  and  N_39 
REMARK   25  A    between atoms: C_40  and  C_41 
REMARK   26  A    between atoms: C_40  and  C_49 
REMARK   27  A    between atoms: C_41  and  C_42 
REMARK   28  A    between atoms: C_42  and  C_43 
REMARK   29  A    between atoms: C_43  and  N_44 
REMARK       I    between atoms: N_44  and  C_45 
REMARK       I    between atoms: C_45  and  N_48 
REMARK       I    between atoms: C_49  and  N_51 
REMARK   30  A    between atoms: C_52  and  N_51 
REMARK   31  A    between atoms: C_52  and  C_53 
REMARK   32  A    between atoms: C_52  and  C_61 
REMARK   33  A    between atoms: C_53  and  C_54 
REMARK   34  A    between atoms: C_54  and  C_55 
REMARK   35  A    between atoms: C_55  and  N_56 
REMARK       I    between atoms: N_56  and  C_57 
REMARK       I    between atoms: C_57  and  N_60 
REMARK       I    between atoms: C_61  and  N_63 
ROOT
HETATM    1  C   UNK N   1      22.977  17.714   4.914  0.00  0.00     0.177 C 
ENDROOT
BRANCH   1   2
HETATM    2  N   UNK N   1      22.223  18.252   6.022  0.00  0.00    -0.346 N 
HETATM    3  C   UNK N   1      21.395  17.497   6.780  0.00  0.00     0.241 C 
HETATM    4  O   UNK N   1      20.740  18.048   7.656  0.00  0.00    -0.271 OA
HETATM    5  H   UNK N   1      22.315  19.209   6.236  0.00  0.00     0.163 HD
BRANCH   3   6
HETATM    6  C   UNK N   1      21.179  16.016   6.530  0.00  0.00     0.177 C 
BRANCH   6   7
HETATM    7  N   UNK N   1      19.795  15.699   6.298  0.00  0.00    -0.346 N 
HETATM    8  C   UNK N   1      19.420  14.858   5.309  0.00  0.00     0.241 C 
HETATM    9  O   UNK N   1      18.237  14.607   5.158  0.00  0.00    -0.271 OA
HETATM   10  H   UNK N   1      19.105  16.104   6.874  0.00  0.00     0.163 HD
BRANCH   8  11
HETATM   11  C   UNK N   1      20.460  14.199   4.432  0.00  0.00     0.174 C 
BRANCH  11  12
HETATM   12  N   UNK N   1      20.721  12.849   4.852  0.00  0.00    -0.379 N 
HETATM   13  H   UNK N   1      20.300  12.500   5.670  0.00  0.00     0.160 HD
BRANCH  12  14
HETATM   14  C   UNK N   1      21.582  12.019   4.096  0.00  0.00     0.019 C 
HETATM   15  C   UNK N   1      21.063  10.967   3.463  0.00  0.00     0.040 C 
BRANCH  14  16
HETATM   16  C   UNK N   1      23.050  12.355   3.928  0.00  0.00     0.133 C 
BRANCH  16  17
HETATM   17  N   UNK N   1      23.712  12.457   5.207  0.00  0.00    -0.351 N 
HETATM   18  C   UNK N   1      24.581  13.455   5.494  0.00  0.00     0.214 C 
HETATM   19  C   UNK N   1      25.275  13.467   6.811  0.00  0.00     0.117 C 
HETATM   20  O   UNK N   1      24.810  14.339   4.683  0.00  0.00    -0.274 OA
HETATM   21  H   UNK N   1      23.526  11.778   5.895  0.00  0.00     0.163 HD
ENDBRANCH  16  17
BRANCH  16  22
HETATM   22  C   UNK N   1      23.790  11.287   3.124  0.00  0.00     0.042 C 
BRANCH  22  23
HETATM   23  C   UNK N   1      24.146  11.707   1.709  0.00  0.00     0.112 C 
BRANCH  23  24
HETATM   24  C   UNK N   1      25.362  12.574   1.743  0.00  0.00     0.139 C 
HETATM   25  O   UNK N   1      26.469  12.065   1.777  0.00  0.00    -0.650 OA
BRANCH  24  26
HETATM   26  O   UNK N   1      25.241  13.915   1.731  0.00  0.00    -0.776 OA
HETATM   27  H   UNK N   1      25.847  14.577   2.003  0.00  0.00     0.167 HD
ENDBRANCH  24  26
ENDBRANCH  23  24
ENDBRANCH  22  23
ENDBRANCH  16  22
ENDBRANCH  14  16
ENDBRANCH  12  14
ENDBRANCH  11  12
BRANCH  11  28
HETATM   28  C   UNK N   1      20.033  14.195   2.972  0.00  0.00     0.045 C 
BRANCH  28  29
HETATM   29  C   UNK N   1      21.016  15.018   2.157  0.00  0.00     0.112 C 
BRANCH  29  30
HETATM   30  C   UNK N   1      21.589  14.208   1.042  0.00  0.00     0.139 C 
HETATM   31  O   UNK N   1      22.629  14.554   0.506  0.00  0.00    -0.650 OA
BRANCH  30  32
HETATM   32  O   UNK N   1      20.940  13.115   0.600  0.00  0.00    -0.776 OA
HETATM   33  H   UNK N   1      20.185  12.764   1.031  0.00  0.00     0.167 HD
ENDBRANCH  30  32
ENDBRANCH  29  30
ENDBRANCH  28  29
ENDBRANCH  11  28
ENDBRANCH   8  11
ENDBRANCH   6   7
BRANCH   6  34
HETATM   34  C   UNK N   1      21.875  14.955   7.396  0.00  0.00     0.045 C 
BRANCH  34  35
HETATM   35  C   UNK N   1      21.159  14.641   8.700  0.00  0.00     0.076 C 
BRANCH  35  36
HETATM   36  S   UNK N   1      22.095  13.458   9.702  0.00  0.00    -0.173 SA
HETATM   37  C   UNK N   1      20.594  12.933  10.570  0.00  0.00     0.089 C 
ENDBRANCH  35  36
ENDBRANCH  34  35
ENDBRANCH   6  34
ENDBRANCH   3   6
ENDBRANCH   1   2
BRANCH   1  38
HETATM   38  C   UNK N   1      22.168  17.750   3.618  0.00  0.00     0.044 C 
BRANCH  38  39
HETATM   39  C   UNK N   1      21.075  18.813   3.530  0.00  0.00     0.105 C 
BRANCH  39  40
HETATM   40  C   UNK N   1      21.386  19.882   2.526  0.00  0.00     0.215 C 
HETATM   41  O   UNK N   1      20.656  20.063   1.565  0.00  0.00    -0.274 OA
HETATM   42  N   UNK N   1      22.504  20.617   2.662  0.00  0.00    -0.370 N 
HETATM   43  H   UNK N   1      22.801  21.341   3.260  0.00  0.00     0.159 HD
HETATM   44  H   UNK N   1      23.193  20.371   2.004  0.00  0.00     0.159 HD
ENDBRANCH  39  40
ENDBRANCH  38  39
ENDBRANCH   1  38
BRANCH   1  45
HETATM   45  C   UNK N   1      24.357  18.300   4.824  0.00  0.00     0.241 C 
HETATM   46  O   UNK N   1      24.498  19.452   4.430  0.00  0.00    -0.271 OA
HETATM   47  N   UNK N   1      25.438  17.561   5.158  0.00  0.00    -0.346 N 
HETATM   48  H   UNK N   1      25.323  16.599   5.333  0.00  0.00     0.163 HD
BRANCH  47  49
HETATM   49  C   UNK N   1      26.752  18.139   5.264  0.00  0.00     0.176 C 
BRANCH  49  50
HETATM   50  C   UNK N   1      27.512  17.934   3.963  0.00  0.00     0.036 C 
BRANCH  50  51
HETATM   51  C   UNK N   1      27.011  16.700   3.238  0.00  0.00     0.023 C 
BRANCH  51  52
HETATM   52  C   UNK N   1      28.184  15.776   2.975  0.00  0.00     0.138 C 
BRANCH  52  53
HETATM   53  N   UNK N   1      27.794  14.413   3.242  0.00  0.00    -0.227 N 
HETATM   54  C   UNK N   1      28.255  13.717   4.387  0.00  0.00     0.665 C 
HETATM   55  N   UNK N   1      28.999  14.303   5.252  0.00  0.00    -0.235 N 
HETATM   56  N   UNK N   1      27.911  12.361   4.567  0.00  0.00    -0.235 N 
HETATM   57  H   UNK N   1      28.947  14.059   6.204  0.00  0.00     0.174 HD
ATOM     58  HN  UNK N   1      29.649  15.027   4.950  1.00  0.00     0.174 HD
HETATM   59  H   UNK N   1      27.898  11.654   3.881  0.00  0.00     0.174 HD
HETATM   60  H   UNK N   1      27.654  12.092   5.478  0.00  0.00     0.174 HD
HETATM   61  H   UNK N   1      27.191  13.955   2.613  0.00  0.00     0.177 HD
ENDBRANCH  52  53
ENDBRANCH  51  52
ENDBRANCH  50  51
ENDBRANCH  49  50
BRANCH  49  62
HETATM   62  C   UNK N   1      27.430  17.372   6.338  0.00  0.00     0.241 C 
HETATM   63  O   UNK N   1      27.011  16.273   6.661  0.00  0.00    -0.271 OA
HETATM   64  N   UNK N   1      28.560  17.898   6.884  0.00  0.00    -0.346 N 
HETATM   65  H   UNK N   1      28.861  18.763   6.524  0.00  0.00     0.163 HD
BRANCH  64  66
HETATM   66  C   UNK N   1      29.366  17.321   7.935  0.00  0.00     0.176 C 
BRANCH  66  67
HETATM   67  C   UNK N   1      30.857  17.434   7.638  0.00  0.00     0.036 C 
BRANCH  67  68
HETATM   68  C   UNK N   1      31.434  16.220   6.943  0.00  0.00     0.023 C 
BRANCH  68  69
HETATM   69  C   UNK N   1      32.217  15.432   7.970  0.00  0.00     0.138 C 
BRANCH  69  70
HETATM   70  N   UNK N   1      33.335  16.187   8.475  0.00  0.00    -0.227 N 
HETATM   71  C   UNK N   1      33.797  16.064   9.812  0.00  0.00     0.665 C 
HETATM   72  N   UNK N   1      34.658  16.898  10.261  0.00  0.00    -0.235 N 
HETATM   73  N   UNK N   1      33.300  15.047  10.660  0.00  0.00    -0.235 N 
HETATM   74  H   UNK N   1      35.577  16.828  10.606  0.00  0.00     0.174 HD
ATOM     75  HN  UNK N   1      34.311  17.857  10.261  1.00  0.00     0.174 HD
HETATM   76  H   UNK N   1      32.714  14.257  10.675  0.00  0.00     0.174 HD
HETATM   77  H   UNK N   1      33.675  15.177  11.561  0.00  0.00     0.174 HD
HETATM   78  H   UNK N   1      33.796  16.812   7.870  0.00  0.00     0.177 HD
ENDBRANCH  69  70
ENDBRANCH  68  69
ENDBRANCH  67  68
ENDBRANCH  66  67
BRANCH  66  79
HETATM   79  C   UNK N   1      28.927  17.693   9.327  0.00  0.00     0.238 C 
HETATM   80  O   UNK N   1      27.820  17.386   9.740  0.00  0.00    -0.271 OA
HETATM   81  N   UNK N   1      29.765  18.384  10.120  0.00  0.00    -0.368 N 
HETATM   82  H   UNK N   1      29.755  19.363  10.232  0.00  0.00     0.159 HD
HETATM   83  H   UNK N   1      30.438  17.874  10.626  0.00  0.00     0.159 HD
ENDBRANCH  66  79
ENDBRANCH  64  66
ENDBRANCH  49  62
ENDBRANCH  47  49
ENDBRANCH   1  45
TORSDOF 35
ENDMDL
MODEL 9
REMARK VINA RESULT:      -7.1      3.371      9.533
REMARK WARNING: 32 MAX_TORS EXCEEDED!!!
REMARK  35 active torsions:
REMARK  status: ('A' for Active; 'I' for Inactive)
REMARK       I    between atoms: C_2  and  N_4 
REMARK    1  A    between atoms: C_5  and  N_4 
REMARK    2  A    between atoms: C_5  and  C_6 
REMARK    3  A    between atoms: C_5  and  C_11 
REMARK    4  A    between atoms: C_6  and  C_7 
REMARK    5  A    between atoms: C_7  and  C_8 
REMARK    6  A    between atoms: C_8  and  O_10 
REMARK    7  A    between atoms: C_11  and  N_13 
REMARK    8  A    between atoms: C_14  and  N_13 
REMARK    9  A    between atoms: C_14  and  C_15 
REMARK   10  A    between atoms: C_14  and  C_20 
REMARK   11  A    between atoms: C_15  and  C_16 
REMARK   12  A    between atoms: C_16  and  C_17 
REMARK   13  A    between atoms: C_17  and  O_19 
REMARK       I    between atoms: C_20  and  N_22 
REMARK   14  A    between atoms: C_23  and  N_22 
REMARK   15  A    between atoms: C_23  and  C_24 
REMARK   16  A    between atoms: C_23  and  C_28 
REMARK   17  A    between atoms: C_24  and  C_25 
REMARK   18  A    between atoms: C_25  and  S_26 
REMARK       I    between atoms: C_28  and  N_30 
REMARK   19  A    between atoms: C_31  and  N_30 
REMARK   20  A    between atoms: C_31  and  C_32 
REMARK   21  A    between atoms: C_31  and  C_37 
REMARK   22  A    between atoms: C_32  and  C_33 
REMARK   23  A    between atoms: C_33  and  C_34 
REMARK       I    between atoms: C_34  and  N_36 
REMARK       I    between atoms: C_37  and  N_39 
REMARK   24  A    between atoms: C_40  and  N_39 
REMARK   25  A    between atoms: C_40  and  C_41 
REMARK   26  A    between atoms: C_40  and  C_49 
REMARK   27  A    between atoms: C_41  and  C_42 
REMARK   28  A    between atoms: C_42  and  C_43 
REMARK   29  A    between atoms: C_43  and  N_44 
REMARK       I    between atoms: N_44  and  C_45 
REMARK       I    between atoms: C_45  and  N_48 
REMARK       I    between atoms: C_49  and  N_51 
REMARK   30  A    between atoms: C_52  and  N_51 
REMARK   31  A    between atoms: C_52  and  C_53 
REMARK   32  A    between atoms: C_52  and  C_61 
REMARK   33  A    between atoms: C_53  and  C_54 
REMARK   34  A    between atoms: C_54  and  C_55 
REMARK   35  A    between atoms: C_55  and  N_56 
REMARK       I    between atoms: N_56  and  C_57 
REMARK       I    between atoms: C_57  and  N_60 
REMARK       I    between atoms: C_61  and  N_63 
ROOT
HETATM    1  C   UNK N   1      22.810  17.747   4.931  0.00  0.00     0.177 C 
ENDROOT
BRANCH   1   2
HETATM    2  N   UNK N   1      21.968  18.179   6.022  0.00  0.00    -0.346 N 
HETATM    3  C   UNK N   1      21.219  17.322   6.752  0.00  0.00     0.241 C 
HETATM    4  O   UNK N   1      20.479  17.782   7.614  0.00  0.00    -0.271 OA
HETATM    5  H   UNK N   1      21.939  19.139   6.245  0.00  0.00     0.163 HD
BRANCH   3   6
HETATM    6  C   UNK N   1      21.189  15.828   6.487  0.00  0.00     0.177 C 
BRANCH   6   7
HETATM    7  N   UNK N   1      19.853  15.340   6.272  0.00  0.00    -0.346 N 
HETATM    8  C   UNK N   1      19.411  15.016   5.036  0.00  0.00     0.241 C 
HETATM    9  O   UNK N   1      18.277  14.592   4.904  0.00  0.00    -0.271 OA
HETATM   10  H   UNK N   1      19.248  15.240   7.042  0.00  0.00     0.163 HD
BRANCH   8  11
HETATM   11  C   UNK N   1      20.330  15.131   3.842  0.00  0.00     0.174 C 
BRANCH  11  12
HETATM   12  N   UNK N   1      20.455  13.876   3.152  0.00  0.00    -0.379 N 
HETATM   13  H   UNK N   1      20.086  13.778   2.245  0.00  0.00     0.160 HD
BRANCH  12  14
HETATM   14  C   UNK N   1      21.103  12.781   3.770  0.00  0.00     0.019 C 
HETATM   15  C   UNK N   1      20.459  11.617   3.848  0.00  0.00     0.040 C 
BRANCH  14  16
HETATM   16  C   UNK N   1      22.533  12.889   4.259  0.00  0.00     0.133 C 
BRANCH  16  17
HETATM   17  N   UNK N   1      23.105  11.584   4.492  0.00  0.00    -0.351 N 
HETATM   18  C   UNK N   1      23.884  11.316   5.567  0.00  0.00     0.214 C 
HETATM   19  C   UNK N   1      24.491   9.966   5.714  0.00  0.00     0.117 C 
HETATM   20  O   UNK N   1      24.102  12.172   6.411  0.00  0.00    -0.274 OA
HETATM   21  H   UNK N   1      22.924  10.863   3.847  0.00  0.00     0.163 HD
ENDBRANCH  16  17
BRANCH  16  22
HETATM   22  C   UNK N   1      23.430  13.598   3.246  0.00  0.00     0.042 C 
BRANCH  22  23
HETATM   23  C   UNK N   1      23.740  12.778   2.006  0.00  0.00     0.112 C 
BRANCH  23  24
HETATM   24  C   UNK N   1      23.265  13.514   0.796  0.00  0.00     0.139 C 
HETATM   25  O   UNK N   1      22.137  13.326   0.375  0.00  0.00    -0.650 OA
BRANCH  24  26
HETATM   26  O   UNK N   1      24.075  14.391   0.171  0.00  0.00    -0.776 OA
HETATM   27  H   UNK N   1      24.881  14.775   0.456  0.00  0.00     0.167 HD
ENDBRANCH  24  26
ENDBRANCH  23  24
ENDBRANCH  22  23
ENDBRANCH  16  22
ENDBRANCH  14  16
ENDBRANCH  12  14
ENDBRANCH  11  12
BRANCH  11  28
HETATM   28  C   UNK N   1      19.843  16.192   2.867  0.00  0.00     0.045 C 
BRANCH  28  29
HETATM   29  C   UNK N   1      20.685  16.141   1.604  0.00  0.00     0.112 C 
BRANCH  29  30
HETATM   30  C   UNK N   1      19.947  16.734   0.450  0.00  0.00     0.139 C 
HETATM   31  O   UNK N   1      19.010  16.135  -0.051  0.00  0.00    -0.650 OA
BRANCH  30  32
HETATM   32  O   UNK N   1      20.338  17.915  -0.065  0.00  0.00    -0.776 OA
HETATM   33  H   UNK N   1      19.765  18.653  -0.135  0.00  0.00     0.167 HD
ENDBRANCH  30  32
ENDBRANCH  29  30
ENDBRANCH  28  29
ENDBRANCH  11  28
ENDBRANCH   8  11
ENDBRANCH   6   7
BRANCH   6  34
HETATM   34  C   UNK N   1      22.029  14.857   7.328  0.00  0.00     0.045 C 
BRANCH  34  35
HETATM   35  C   UNK N   1      21.246  13.690   7.910  0.00  0.00     0.076 C 
BRANCH  35  36
HETATM   36  S   UNK N   1      21.083  13.830   9.707  0.00  0.00    -0.173 SA
HETATM   37  C   UNK N   1      22.770  13.217   9.956  0.00  0.00     0.089 C 
ENDBRANCH  35  36
ENDBRANCH  34  35
ENDBRANCH   6  34
ENDBRANCH   3   6
ENDBRANCH   1   2
BRANCH   1  38
HETATM   38  C   UNK N   1      22.595  18.606   3.686  0.00  0.00     0.044 C 
BRANCH  38  39
HETATM   39  C   UNK N   1      21.280  19.379   3.613  0.00  0.00     0.105 C 
BRANCH  39  40
HETATM   40  C   UNK N   1      21.295  20.452   2.567  0.00  0.00     0.215 C 
HETATM   41  O   UNK N   1      22.077  21.384   2.644  0.00  0.00    -0.274 OA
HETATM   42  N   UNK N   1      20.405  20.409   1.559  0.00  0.00    -0.370 N 
HETATM   43  H   UNK N   1      20.289  19.866   0.746  0.00  0.00     0.159 HD
HETATM   44  H   UNK N   1      19.698  21.086   1.659  0.00  0.00     0.159 HD
ENDBRANCH  39  40
ENDBRANCH  38  39
ENDBRANCH   1  38
BRANCH   1  45
HETATM   45  C   UNK N   1      24.242  17.571   5.349  0.00  0.00     0.241 C 
HETATM   46  O   UNK N   1      24.656  16.450   5.621  0.00  0.00    -0.271 OA
HETATM   47  N   UNK N   1      25.066  18.638   5.440  0.00  0.00    -0.346 N 
HETATM   48  H   UNK N   1      24.686  19.543   5.359  0.00  0.00     0.163 HD
BRANCH  47  49
HETATM   49  C   UNK N   1      26.481  18.491   5.654  0.00  0.00     0.176 C 
BRANCH  49  50
HETATM   50  C   UNK N   1      27.101  19.846   5.957  0.00  0.00     0.036 C 
BRANCH  50  51
HETATM   51  C   UNK N   1      28.164  19.722   7.031  0.00  0.00     0.023 C 
BRANCH  51  52
HETATM   52  C   UNK N   1      28.107  18.325   7.617  0.00  0.00     0.138 C 
BRANCH  52  53
HETATM   53  N   UNK N   1      29.444  17.806   7.759  0.00  0.00    -0.227 N 
HETATM   54  C   UNK N   1      30.172  17.941   8.968  0.00  0.00     0.665 C 
HETATM   55  N   UNK N   1      29.635  18.492   9.994  0.00  0.00    -0.235 N 
HETATM   56  N   UNK N   1      31.505  17.487   9.037  0.00  0.00    -0.235 N 
HETATM   57  H   UNK N   1      29.878  18.201  10.903  0.00  0.00     0.174 HD
ATOM     58  HN  UNK N   1      28.949  19.235   9.868  1.00  0.00     0.174 HD
HETATM   59  H   UNK N   1      32.207  17.596   8.356  0.00  0.00     0.174 HD
HETATM   60  H   UNK N   1      31.762  17.006   9.857  0.00  0.00     0.174 HD
HETATM   61  H   UNK N   1      29.863  17.343   6.997  0.00  0.00     0.177 HD
ENDBRANCH  52  53
ENDBRANCH  51  52
ENDBRANCH  50  51
ENDBRANCH  49  50
BRANCH  49  62
HETATM   62  C   UNK N   1      27.022  17.999   4.362  0.00  0.00     0.241 C 
HETATM   63  O   UNK N   1      27.244  18.784   3.455  0.00  0.00    -0.271 OA
HETATM   64  N   UNK N   1      27.327  16.676   4.259  0.00  0.00    -0.346 N 
HETATM   65  H   UNK N   1      27.171  16.126   5.059  0.00  0.00     0.163 HD
BRANCH  64  66
HETATM   66  C   UNK N   1      27.857  15.996   3.100  0.00  0.00     0.176 C 
BRANCH  66  67
HETATM   67  C   UNK N   1      29.096  15.174   3.438  0.00  0.00     0.036 C 
BRANCH  67  68
HETATM   68  C   UNK N   1      30.324  15.570   2.648  0.00  0.00     0.023 C 
BRANCH  68  69
HETATM   69  C   UNK N   1      31.535  15.046   3.387  0.00  0.00     0.138 C 
BRANCH  69  70
HETATM   70  N   UNK N   1      32.296  16.117   3.979  0.00  0.00    -0.227 N 
HETATM   71  C   UNK N   1      32.305  16.362   5.378  0.00  0.00     0.665 C 
HETATM   72  N   UNK N   1      32.832  17.439   5.826  0.00  0.00    -0.235 N 
HETATM   73  N   UNK N   1      31.719  15.443   6.280  0.00  0.00    -0.235 N 
HETATM   74  H   UNK N   1      33.586  17.646   6.424  0.00  0.00     0.174 HD
ATOM     75  HN  UNK N   1      32.362  18.277   5.483  1.00  0.00     0.174 HD
HETATM   76  H   UNK N   1      31.289  14.559   6.327  0.00  0.00     0.174 HD
HETATM   77  H   UNK N   1      31.752  15.826   7.186  0.00  0.00     0.174 HD
HETATM   78  H   UNK N   1      32.828  16.700   3.393  0.00  0.00     0.177 HD
ENDBRANCH  69  70
ENDBRANCH  68  69
ENDBRANCH  67  68
ENDBRANCH  66  67
BRANCH  66  79
HETATM   79  C   UNK N   1      26.814  15.323   2.247  0.00  0.00     0.238 C 
HETATM   80  O   UNK N   1      25.809  15.919   1.895  0.00  0.00    -0.271 OA
HETATM   81  N   UNK N   1      26.992  14.042   1.878  0.00  0.00    -0.368 N 
HETATM   82  H   UNK N   1      26.609  13.264   2.345  0.00  0.00     0.159 HD
HETATM   83  H   UNK N   1      27.545  13.869   1.082  0.00  0.00     0.159 HD
ENDBRANCH  66  79
ENDBRANCH  64  66
ENDBRANCH  49  62
ENDBRANCH  47  49
ENDBRANCH   1  45
TORSDOF 35
ENDMDL
