REMARK  11 active torsions:
REMARK  status: ('A' for Active; 'I' for Inactive)
REMARK    1  A    between atoms: C_2  and  O_3 
REMARK    2  A    between atoms: O_3  and  C_4 
REMARK    3  A    between atoms: C_9  and  N_10 
REMARK       I    between atoms: N_10  and  C_11 
REMARK    4  A    between atoms: C_11  and  C_13 
REMARK    5  A    between atoms: C_14  and  C_15 
REMARK    6  A    between atoms: C_15  and  N_16 
REMARK    7  A    between atoms: C_19  and  N_26 
REMARK    8  A    between atoms: N_26  and  C_27 
REMARK    9  A    between atoms: C_30  and  O_34 
REMARK   10  A    between atoms: O_34  and  C_35 
REMARK   11  A    between atoms: C_35  and  C_36 
ROOT
HETATM    1  C   UNK N   1      -1.640  -2.363   0.270  0.00  0.00     0.097 C 
HETATM    2  C   UNK N   1      -0.499  -3.156   0.512  0.00  0.00     0.069 C 
HETATM    3  C   UNK N   1       0.761  -2.625   0.382  0.00  0.00     0.047 A 
HETATM    4  C   UNK N   1       0.879  -1.313  -0.023  0.00  0.00     0.021 A 
HETATM    5  C   UNK N   1      -0.221  -0.481  -0.041  0.00  0.00     0.048 C 
HETATM    6  C   UNK N   1      -1.496  -0.938   0.147  0.00  0.00     0.069 C 
HETATM    7  C   UNK N   1       2.078  -0.851  -0.492  0.00  0.00     0.067 A 
HETATM    8  C   UNK N   1       3.224  -1.677  -0.419  0.00  0.00     0.087 A 
HETATM    9  C   UNK N   1       3.091  -2.964   0.110  0.00  0.00     0.113 A 
HETATM   10  N   UNK N   1       1.857  -3.421   0.462  0.00  0.00    -0.364 N 
ATOM     11  HN  UNK N   1       1.755  -4.381   0.792  1.00  0.00     0.165 HD
HETATM   12  C   UNK N   1       4.490  -1.216  -0.929  0.00  0.00     0.103 C 
HETATM   13  N   UNK N   1       5.437  -0.735  -1.371  0.00  0.00    -0.191 NA
ENDROOT
BRANCH   7  14
HETATM   14  N   UNK N   1       2.057   0.420  -1.108  0.00  0.00    -0.354 N 
HETATM   15  H   UNK N   1       1.751   0.510  -2.040  0.00  0.00     0.166 HD
BRANCH  14  16
HETATM   16  C   UNK N   1       2.466   1.536  -0.403  0.00  0.00     0.034 A 
HETATM   17  C   UNK N   1       2.116   2.807  -0.848  0.00  0.00     0.032 A 
HETATM   18  C   UNK N   1       2.708   3.898  -0.242  0.00  0.00     0.041 A 
HETATM   19  C   UNK N   1       3.649   3.699   0.791  0.00  0.00     0.091 A 
HETATM   20  C   UNK N   1       3.913   2.417   1.280  0.00  0.00     0.069 A 
HETATM   21  C   UNK N   1       3.318   1.350   0.676  0.00  0.00     0.056 A 
HETATM   22 Cl   UNK N   1       5.053   2.108   2.580  0.00  0.00    -0.081 Cl
BRANCH  19  23
HETATM   23  O   UNK N   1       4.359   4.726   1.260  0.00  0.00    -0.344 OA
BRANCH  23  24
HETATM   24  C   UNK N   1       4.732   5.722   0.395  0.00  0.00     0.232 C 
BRANCH  24  25
HETATM   25  C   UNK N   1       6.191   5.604   0.082  0.00  0.00     0.033 A 
HETATM   26  C   UNK N   1       6.918   6.769  -0.143  0.00  0.00     0.027 A 
HETATM   27  C   UNK N   1       8.279   6.687  -0.431  0.00  0.00     0.003 A 
HETATM   28  C   UNK N   1       8.904   5.441  -0.486  0.00  0.00     0.017 A 
HETATM   29  C   UNK N   1       8.145   4.288  -0.270  0.00  0.00     0.088 A 
HETATM   30  N   UNK N   1       6.813   4.388   0.003  0.00  0.00    -0.367 N 
ATOM     31  HN  UNK N   1       6.268   3.538   0.151  1.00  0.00     0.165 HD
ENDBRANCH  24  25
ENDBRANCH  23  24
ENDBRANCH  19  23
ENDBRANCH  14  16
ENDBRANCH   7  14
BRANCH   6  32
HETATM   32  N   UNK N   1      -2.450   0.111  -0.013  0.00  0.00    -0.321 N 
HETATM   33  C   UNK N   1      -3.737   0.461  -0.237  0.00  0.00     0.245 C 
HETATM   34  O   UNK N   1      -3.991   1.649  -0.355  0.00  0.00    -0.268 OA
HETATM   35  H   UNK N   1      -1.949   0.954   0.081  0.00  0.00     0.169 HD
BRANCH  33  36
HETATM   36  C   UNK N   1      -4.811  -0.488  -0.471  0.00  0.00     0.072 C 
HETATM   37  C   UNK N   1      -4.878  -1.625   0.180  0.00  0.00     0.008 C 
BRANCH  37  38
HETATM   38  C   UNK N   1      -5.858  -2.656  -0.226  0.00  0.00     0.299 C 
BRANCH  38  39
HETATM   39  N   UNK N   1      -5.759  -3.790   0.674  0.00  0.00     0.083 N 
HETATM   40  C   UNK N   1      -5.273  -4.928  -0.081  0.00  0.00     0.309 C 
HETATM   41  C   UNK N   1      -7.114  -4.125   1.049  0.00  0.00     0.309 C 
ENDBRANCH  38  39
ENDBRANCH  37  38
ENDBRANCH  33  36
ENDBRANCH   6  32
BRANCH   1  42
HETATM   42  O   UNK N   1      -2.768  -3.013  -0.027  0.00  0.00    -0.349 OA
BRANCH  42  43
HETATM   43  C   UNK N   1      -2.723  -4.002  -1.006  0.00  0.00     0.171 C 
HETATM   44  C   UNK N   1      -2.167  -5.315  -0.470  0.00  0.00     0.034 C 
ENDBRANCH  42  43
ENDBRANCH   1  42
TORSDOF 11
