MODEL 1
REMARK VINA RESULT:      -8.0      0.000      0.000
REMARK  9 active torsions:
REMARK  status: ('A' for Active; 'I' for Inactive)
REMARK    1  A    between atoms: O_2  and  C_3 
REMARK    2  A    between atoms: C_3  and  C_4 
REMARK    3  A    between atoms: C_4  and  O_5 
REMARK    4  A    between atoms: O_5  and  C_6 
REMARK    5  A    between atoms: C_9  and  N_12 
REMARK       I    between atoms: N_12  and  C_13 
REMARK    6  A    between atoms: C_18  and  N_21 
REMARK    7  A    between atoms: N_21  and  C_22 
REMARK    8  A    between atoms: C_26  and  N_28 
REMARK       I    between atoms: N_28  and  C_29 
REMARK    9  A    between atoms: C_29  and  C_31 
ROOT
HETATM    1  N   UNK N   1      29.448  17.731   8.517  0.00  0.00    -0.192 N 
HETATM    2  C   UNK N   1      30.807  17.567   8.095  0.00  0.00     0.684 A 
HETATM    3  N   UNK N   1      31.065  17.474   6.771  0.00  0.00    -0.199 N 
ATOM      4  HN  UNK N   1      30.289  17.531   6.112  1.00  0.00     0.183 HD
HETATM    5  C   UNK N   1      32.307  17.309   6.299  0.00  0.00     0.152 A 
HETATM    6  C   UNK N   1      33.368  17.211   7.162  0.00  0.00     0.176 A 
HETATM    7  C   UNK N   1      33.135  17.283   8.572  0.00  0.00     0.162 A 
HETATM    8  N   UNK N   1      31.833  17.458   8.994  0.00  0.00    -0.173 N 
ATOM      9  HN  UNK N   1      31.633  17.509   9.992  1.00  0.00     0.186 HD
HETATM   10  F   UNK N   1      34.553  17.032   6.563  0.00  0.00    -0.201 F 
HETATM   11  H   UNK N   1      29.212  17.645   9.469  0.00  0.00     0.184 HD
ENDROOT
BRANCH   7  12
HETATM   12  N   UNK N   1      34.165  17.165   9.586  0.00  0.00    -0.339 N 
HETATM   13  H   UNK N   1      34.359  18.003  10.064  0.00  0.00     0.167 HD
BRANCH  12  14
HETATM   14  C   UNK N   1      34.953  16.040  10.017  0.00  0.00     0.035 A 
HETATM   15  C   UNK N   1      35.252  14.983   9.167  0.00  0.00     0.029 A 
HETATM   16  C   UNK N   1      35.989  13.884   9.572  0.00  0.00     0.004 A 
HETATM   17  C   UNK N   1      36.469  13.830  10.864  0.00  0.00     0.029 A 
HETATM   18  C   UNK N   1      36.221  14.875  11.765  0.00  0.00     0.037 A 
HETATM   19  C   UNK N   1      35.456  15.986  11.338  0.00  0.00     0.059 A 
BRANCH  18  20
HETATM   20  N   UNK N   1      36.737  14.821  13.097  0.00  0.00    -0.324 N 
HETATM   21  C   UNK N   1      36.150  14.155  14.137  0.00  0.00     0.244 C 
HETATM   22  O   UNK N   1      35.100  13.543  13.987  0.00  0.00    -0.268 OA
HETATM   23  H   UNK N   1      37.579  15.300  13.279  0.00  0.00     0.169 HD
BRANCH  21  24
HETATM   24  C   UNK N   1      36.792  14.171  15.462  0.00  0.00     0.064 C 
HETATM   25  C   UNK N   1      37.363  15.279  15.940  0.00  0.00     0.017 C 
ENDBRANCH  21  24
ENDBRANCH  18  20
ENDBRANCH  12  14
ENDBRANCH   7  12
BRANCH   1  26
HETATM   26  C   UNK N   1      28.432  18.023   7.549  0.00  0.00     0.049 A 
HETATM   27  C   UNK N   1      28.106  19.357   7.250  0.00  0.00     0.033 A 
HETATM   28  C   UNK N   1      27.263  19.677   6.197  0.00  0.00     0.039 A 
HETATM   29  C   UNK N   1      26.718  18.673   5.409  0.00  0.00     0.069 A 
HETATM   30  C   UNK N   1      26.983  17.322   5.725  0.00  0.00     0.039 A 
HETATM   31  C   UNK N   1      27.838  16.999   6.797  0.00  0.00     0.033 A 
BRANCH  29  32
HETATM   32  O   UNK N   1      25.975  19.040   4.342  0.00  0.00    -0.349 OA
BRANCH  32  33
HETATM   33  C   UNK N   1      26.262  20.109   3.530  0.00  0.00     0.201 C 
BRANCH  33  34
HETATM   34  C   UNK N   1      25.050  20.408   2.672  0.00  0.00     0.193 C 
BRANCH  34  35
HETATM   35  O   UNK N   1      23.986  20.801   3.481  0.00  0.00    -0.394 OA
HETATM   36  C   UNK N   1      22.853  20.390   2.778  0.00  0.00     0.201 C 
ENDBRANCH  34  35
ENDBRANCH  33  34
ENDBRANCH  32  33
ENDBRANCH  29  32
ENDBRANCH   1  26
TORSDOF 9
ENDMDL
MODEL 2
REMARK VINA RESULT:      -8.0      2.384      4.547
REMARK  9 active torsions:
REMARK  status: ('A' for Active; 'I' for Inactive)
REMARK    1  A    between atoms: O_2  and  C_3 
REMARK    2  A    between atoms: C_3  and  C_4 
REMARK    3  A    between atoms: C_4  and  O_5 
REMARK    4  A    between atoms: O_5  and  C_6 
REMARK    5  A    between atoms: C_9  and  N_12 
REMARK       I    between atoms: N_12  and  C_13 
REMARK    6  A    between atoms: C_18  and  N_21 
REMARK    7  A    between atoms: N_21  and  C_22 
REMARK    8  A    between atoms: C_26  and  N_28 
REMARK       I    between atoms: N_28  and  C_29 
REMARK    9  A    between atoms: C_29  and  C_31 
ROOT
HETATM    1  N   UNK N   1      26.983  18.195   4.266  0.00  0.00    -0.192 N 
HETATM    2  C   UNK N   1      27.612  18.298   5.548  0.00  0.00     0.684 A 
HETATM    3  N   UNK N   1      27.194  19.266   6.396  0.00  0.00    -0.199 N 
ATOM      4  HN  UNK N   1      26.440  19.887   6.103  1.00  0.00     0.183 HD
HETATM    5  C   UNK N   1      27.740  19.433   7.607  0.00  0.00     0.152 A 
HETATM    6  C   UNK N   1      28.767  18.624   8.021  0.00  0.00     0.176 A 
HETATM    7  C   UNK N   1      29.253  17.602   7.145  0.00  0.00     0.162 A 
HETATM    8  N   UNK N   1      28.645  17.479   5.913  0.00  0.00    -0.173 N 
ATOM      9  HN  UNK N   1      28.972  16.764   5.263  1.00  0.00     0.186 HD
HETATM   10  F   UNK N   1      29.233  18.906   9.245  0.00  0.00    -0.201 F 
HETATM   11  H   UNK N   1      27.366  17.610   3.573  0.00  0.00     0.184 HD
ENDROOT
BRANCH   7  12
HETATM   12  N   UNK N   1      30.349  16.704   7.452  0.00  0.00    -0.339 N 
HETATM   13  H   UNK N   1      30.072  15.778   7.640  0.00  0.00     0.167 HD
BRANCH  12  14
HETATM   14  C   UNK N   1      31.769  16.926   7.532  0.00  0.00     0.035 A 
HETATM   15  C   UNK N   1      32.525  17.260   6.415  0.00  0.00     0.029 A 
HETATM   16  C   UNK N   1      33.894  17.454   6.470  0.00  0.00     0.004 A 
HETATM   17  C   UNK N   1      34.546  17.333   7.680  0.00  0.00     0.029 A 
HETATM   18  C   UNK N   1      33.838  17.019   8.848  0.00  0.00     0.037 A 
HETATM   19  C   UNK N   1      32.440  16.813   8.772  0.00  0.00     0.059 A 
BRANCH  18  20
HETATM   20  N   UNK N   1      34.518  16.914  10.101  0.00  0.00    -0.324 N 
HETATM   21  C   UNK N   1      35.016  15.753  10.625  0.00  0.00     0.244 C 
HETATM   22  O   UNK N   1      34.902  14.688  10.032  0.00  0.00    -0.268 OA
HETATM   23  H   UNK N   1      34.635  17.739  10.626  0.00  0.00     0.169 HD
BRANCH  21  24
HETATM   24  C   UNK N   1      35.706  15.783  11.925  0.00  0.00     0.064 C 
HETATM   25  C   UNK N   1      36.043  14.655  12.555  0.00  0.00     0.017 C 
ENDBRANCH  21  24
ENDBRANCH  18  20
ENDBRANCH  12  14
ENDBRANCH   7  12
BRANCH   1  26
HETATM   26  C   UNK N   1      25.792  18.945   3.994  0.00  0.00     0.049 A 
HETATM   27  C   UNK N   1      25.870  20.166   3.302  0.00  0.00     0.033 A 
HETATM   28  C   UNK N   1      24.731  20.824   2.866  0.00  0.00     0.039 A 
HETATM   29  C   UNK N   1      23.475  20.283   3.108  0.00  0.00     0.069 A 
HETATM   30  C   UNK N   1      23.367  19.087   3.852  0.00  0.00     0.039 A 
HETATM   31  C   UNK N   1      24.526  18.421   4.297  0.00  0.00     0.033 A 
BRANCH  29  32
HETATM   32  O   UNK N   1      22.403  20.917   2.585  0.00  0.00    -0.349 OA
BRANCH  32  33
HETATM   33  C   UNK N   1      21.306  20.280   2.064  0.00  0.00     0.201 C 
BRANCH  33  34
HETATM   34  C   UNK N   1      20.245  20.175   3.140  0.00  0.00     0.193 C 
BRANCH  34  35
HETATM   35  O   UNK N   1      19.233  19.315   2.722  0.00  0.00    -0.394 OA
HETATM   36  C   UNK N   1      19.709  18.045   3.047  0.00  0.00     0.201 C 
ENDBRANCH  34  35
ENDBRANCH  33  34
ENDBRANCH  32  33
ENDBRANCH  29  32
ENDBRANCH   1  26
TORSDOF 9
ENDMDL
MODEL 3
REMARK VINA RESULT:      -7.5      2.260      3.422
REMARK  9 active torsions:
REMARK  status: ('A' for Active; 'I' for Inactive)
REMARK    1  A    between atoms: O_2  and  C_3 
REMARK    2  A    between atoms: C_3  and  C_4 
REMARK    3  A    between atoms: C_4  and  O_5 
REMARK    4  A    between atoms: O_5  and  C_6 
REMARK    5  A    between atoms: C_9  and  N_12 
REMARK       I    between atoms: N_12  and  C_13 
REMARK    6  A    between atoms: C_18  and  N_21 
REMARK    7  A    between atoms: N_21  and  C_22 
REMARK    8  A    between atoms: C_26  and  N_28 
REMARK       I    between atoms: N_28  and  C_29 
REMARK    9  A    between atoms: C_29  and  C_31 
ROOT
HETATM    1  N   UNK N   1      32.026  17.149   8.860  0.00  0.00    -0.192 N 
HETATM    2  C   UNK N   1      32.765  15.948   9.110  0.00  0.00     0.684 A 
HETATM    3  N   UNK N   1      32.304  14.787   8.589  0.00  0.00    -0.199 N 
ATOM      4  HN  UNK N   1      31.452  14.801   8.029  1.00  0.00     0.183 HD
HETATM    5  C   UNK N   1      32.931  13.621   8.787  0.00  0.00     0.152 A 
HETATM    6  C   UNK N   1      34.070  13.569   9.551  0.00  0.00     0.176 A 
HETATM    7  C   UNK N   1      34.578  14.772  10.137  0.00  0.00     0.162 A 
HETATM    8  N   UNK N   1      33.888  15.940   9.891  0.00  0.00    -0.173 N 
ATOM      9  HN  UNK N   1      34.221  16.814  10.298  1.00  0.00     0.186 HD
HETATM   10  F   UNK N   1      34.590  12.342   9.683  0.00  0.00    -0.201 F 
HETATM   11  H   UNK N   1      32.245  17.975   9.349  0.00  0.00     0.184 HD
ENDROOT
BRANCH   7  12
HETATM   12  N   UNK N   1      35.752  14.844  10.985  0.00  0.00    -0.339 N 
HETATM   13  H   UNK N   1      36.298  15.653  10.851  0.00  0.00     0.167 HD
BRANCH  12  14
HETATM   14  C   UNK N   1      36.261  13.945  11.988  0.00  0.00     0.035 A 
HETATM   15  C   UNK N   1      36.986  12.808  11.654  0.00  0.00     0.029 A 
HETATM   16  C   UNK N   1      37.464  11.922  12.604  0.00  0.00     0.004 A 
HETATM   17  C   UNK N   1      37.234  12.174  13.941  0.00  0.00     0.029 A 
HETATM   18  C   UNK N   1      36.527  13.316  14.344  0.00  0.00     0.037 A 
HETATM   19  C   UNK N   1      36.037  14.206  13.359  0.00  0.00     0.059 A 
BRANCH  18  20
HETATM   20  N   UNK N   1      36.309  13.581  15.731  0.00  0.00    -0.324 N 
HETATM   21  C   UNK N   1      35.140  13.338  16.399  0.00  0.00     0.244 C 
HETATM   22  O   UNK N   1      34.167  12.865  15.825  0.00  0.00    -0.268 OA
HETATM   23  H   UNK N   1      37.055  13.967  16.244  0.00  0.00     0.169 HD
BRANCH  21  24
HETATM   24  C   UNK N   1      35.048  13.648  17.835  0.00  0.00     0.064 C 
HETATM   25  C   UNK N   1      35.250  12.707  18.760  0.00  0.00     0.017 C 
ENDBRANCH  21  24
ENDBRANCH  18  20
ENDBRANCH  12  14
ENDBRANCH   7  12
BRANCH   1  26
HETATM   26  C   UNK N   1      30.968  17.147   7.893  0.00  0.00     0.049 A 
HETATM   27  C   UNK N   1      29.637  17.333   8.305  0.00  0.00     0.033 A 
HETATM   28  C   UNK N   1      28.615  17.517   7.387  0.00  0.00     0.039 A 
HETATM   29  C   UNK N   1      28.890  17.520   6.027  0.00  0.00     0.069 A 
HETATM   30  C   UNK N   1      30.209  17.276   5.585  0.00  0.00     0.039 A 
HETATM   31  C   UNK N   1      31.247  17.087   6.520  0.00  0.00     0.033 A 
BRANCH  29  32
HETATM   32  O   UNK N   1      27.875  17.791   5.178  0.00  0.00    -0.349 OA
BRANCH  32  33
HETATM   33  C   UNK N   1      27.044  18.878   5.286  0.00  0.00     0.201 C 
BRANCH  33  34
HETATM   34  C   UNK N   1      27.805  20.117   4.860  0.00  0.00     0.193 C 
BRANCH  34  35
HETATM   35  O   UNK N   1      27.129  21.255   5.291  0.00  0.00    -0.394 OA
HETATM   36  C   UNK N   1      26.919  21.033   6.652  0.00  0.00     0.201 C 
ENDBRANCH  34  35
ENDBRANCH  33  34
ENDBRANCH  32  33
ENDBRANCH  29  32
ENDBRANCH   1  26
TORSDOF 9
ENDMDL
MODEL 4
REMARK VINA RESULT:      -7.3      4.851     11.831
REMARK  9 active torsions:
REMARK  status: ('A' for Active; 'I' for Inactive)
REMARK    1  A    between atoms: O_2  and  C_3 
REMARK    2  A    between atoms: C_3  and  C_4 
REMARK    3  A    between atoms: C_4  and  O_5 
REMARK    4  A    between atoms: O_5  and  C_6 
REMARK    5  A    between atoms: C_9  and  N_12 
REMARK       I    between atoms: N_12  and  C_13 
REMARK    6  A    between atoms: C_18  and  N_21 
REMARK    7  A    between atoms: N_21  and  C_22 
REMARK    8  A    between atoms: C_26  and  N_28 
REMARK       I    between atoms: N_28  and  C_29 
REMARK    9  A    between atoms: C_29  and  C_31 
ROOT
HETATM    1  N   UNK N   1      27.443  17.716   6.925  0.00  0.00    -0.192 N 
HETATM    2  C   UNK N   1      26.969  18.439   5.784  0.00  0.00     0.684 A 
HETATM    3  N   UNK N   1      27.777  19.372   5.230  0.00  0.00    -0.199 N 
ATOM      4  HN  UNK N   1      28.700  19.528   5.634  1.00  0.00     0.183 HD
HETATM    5  C   UNK N   1      27.402  20.098   4.169  0.00  0.00     0.152 A 
HETATM    6  C   UNK N   1      26.159  19.922   3.615  0.00  0.00     0.176 A 
HETATM    7  C   UNK N   1      25.266  18.960   4.185  0.00  0.00     0.162 A 
HETATM    8  N   UNK N   1      25.715  18.243   5.274  0.00  0.00    -0.173 N 
ATOM      9  HN  UNK N   1      25.101  17.553   5.707  1.00  0.00     0.186 HD
HETATM   10  F   UNK N   1      25.904  20.719   2.569  0.00  0.00    -0.201 F 
HETATM   11  H   UNK N   1      26.826  17.149   7.442  0.00  0.00     0.184 HD
ENDROOT
BRANCH   7  12
HETATM   12  N   UNK N   1      23.920  18.702   3.712  0.00  0.00    -0.339 N 
HETATM   13  H   UNK N   1      23.638  19.278   2.964  0.00  0.00     0.167 HD
BRANCH  12  14
HETATM   14  C   UNK N   1      22.924  17.754   4.139  0.00  0.00     0.035 A 
HETATM   15  C   UNK N   1      22.748  16.535   3.497  0.00  0.00     0.029 A 
HETATM   16  C   UNK N   1      21.780  15.622   3.880  0.00  0.00     0.004 A 
HETATM   17  C   UNK N   1      20.964  15.913   4.953  0.00  0.00     0.029 A 
HETATM   18  C   UNK N   1      21.105  17.117   5.657  0.00  0.00     0.037 A 
HETATM   19  C   UNK N   1      22.092  18.044   5.245  0.00  0.00     0.059 A 
BRANCH  18  20
HETATM   20  N   UNK N   1      20.268  17.404   6.780  0.00  0.00    -0.324 N 
HETATM   21  C   UNK N   1      20.347  16.778   7.993  0.00  0.00     0.244 C 
HETATM   22  O   UNK N   1      21.169  15.894   8.199  0.00  0.00    -0.268 OA
HETATM   23  H   UNK N   1      19.584  18.104   6.671  0.00  0.00     0.169 HD
BRANCH  21  24
HETATM   24  C   UNK N   1      19.430  17.175   9.073  0.00  0.00     0.064 C 
HETATM   25  C   UNK N   1      18.105  17.123   8.909  0.00  0.00     0.017 C 
ENDBRANCH  21  24
ENDBRANCH  18  20
ENDBRANCH  12  14
ENDBRANCH   7  12
BRANCH   1  26
HETATM   26  C   UNK N   1      28.819  17.819   7.313  0.00  0.00     0.049 A 
HETATM   27  C   UNK N   1      29.179  18.571   8.445  0.00  0.00     0.033 A 
HETATM   28  C   UNK N   1      30.468  18.545   8.951  0.00  0.00     0.039 A 
HETATM   29  C   UNK N   1      31.442  17.765   8.342  0.00  0.00     0.069 A 
HETATM   30  C   UNK N   1      31.122  17.046   7.170  0.00  0.00     0.039 A 
HETATM   31  C   UNK N   1      29.811  17.076   6.655  0.00  0.00     0.033 A 
BRANCH  29  32
HETATM   32  O   UNK N   1      32.659  17.705   8.926  0.00  0.00    -0.349 OA
BRANCH  32  33
HETATM   33  C   UNK N   1      33.848  17.794   8.247  0.00  0.00     0.201 C 
BRANCH  33  34
HETATM   34  C   UNK N   1      34.858  16.882   8.912  0.00  0.00     0.193 C 
BRANCH  34  35
HETATM   35  O   UNK N   1      35.379  17.503  10.044  0.00  0.00    -0.394 OA
HETATM   36  C   UNK N   1      35.488  16.473  10.979  0.00  0.00     0.201 C 
ENDBRANCH  34  35
ENDBRANCH  33  34
ENDBRANCH  32  33
ENDBRANCH  29  32
ENDBRANCH   1  26
TORSDOF 9
ENDMDL
MODEL 5
REMARK VINA RESULT:      -7.1      2.938      4.226
REMARK  9 active torsions:
REMARK  status: ('A' for Active; 'I' for Inactive)
REMARK    1  A    between atoms: O_2  and  C_3 
REMARK    2  A    between atoms: C_3  and  C_4 
REMARK    3  A    between atoms: C_4  and  O_5 
REMARK    4  A    between atoms: O_5  and  C_6 
REMARK    5  A    between atoms: C_9  and  N_12 
REMARK       I    between atoms: N_12  and  C_13 
REMARK    6  A    between atoms: C_18  and  N_21 
REMARK    7  A    between atoms: N_21  and  C_22 
REMARK    8  A    between atoms: C_26  and  N_28 
REMARK       I    between atoms: N_28  and  C_29 
REMARK    9  A    between atoms: C_29  and  C_31 
ROOT
HETATM    1  N   UNK N   1      32.917  17.199   9.060  0.00  0.00    -0.192 N 
HETATM    2  C   UNK N   1      33.473  15.893   9.244  0.00  0.00     0.684 A 
HETATM    3  N   UNK N   1      32.807  14.831   8.735  0.00  0.00    -0.199 N 
ATOM      4  HN  UNK N   1      31.936  14.991   8.230  1.00  0.00     0.183 HD
HETATM    5  C   UNK N   1      33.256  13.577   8.874  0.00  0.00     0.152 A 
HETATM    6  C   UNK N   1      34.417  13.331   9.563  0.00  0.00     0.176 A 
HETATM    7  C   UNK N   1      35.140  14.425  10.136  0.00  0.00     0.162 A 
HETATM    8  N   UNK N   1      34.626  15.692   9.953  0.00  0.00    -0.173 N 
ATOM      9  HN  UNK N   1      35.114  16.493  10.352  1.00  0.00     0.186 HD
HETATM   10  F   UNK N   1      34.746  12.034   9.642  0.00  0.00    -0.201 F 
HETATM   11  H   UNK N   1      33.291  17.969   9.548  0.00  0.00     0.184 HD
ENDROOT
BRANCH   7  12
HETATM   12  N   UNK N   1      36.359  14.293  10.909  0.00  0.00    -0.339 N 
HETATM   13  H   UNK N   1      37.069  14.926  10.654  0.00  0.00     0.167 HD
BRANCH  12  14
HETATM   14  C   UNK N   1      36.716  13.404  11.983  0.00  0.00     0.035 A 
HETATM   15  C   UNK N   1      37.396  12.214  11.756  0.00  0.00     0.029 A 
HETATM   16  C   UNK N   1      37.727  11.336  12.773  0.00  0.00     0.004 A 
HETATM   17  C   UNK N   1      37.391  11.651  14.074  0.00  0.00     0.029 A 
HETATM   18  C   UNK N   1      36.723  12.847  14.373  0.00  0.00     0.037 A 
HETATM   19  C   UNK N   1      36.382  13.728  13.319  0.00  0.00     0.059 A 
BRANCH  18  20
HETATM   20  N   UNK N   1      36.395  13.176  15.724  0.00  0.00    -0.324 N 
HETATM   21  C   UNK N   1      35.139  13.105  16.263  0.00  0.00     0.244 C 
HETATM   22  O   UNK N   1      34.180  12.746  15.592  0.00  0.00    -0.268 OA
HETATM   23  H   UNK N   1      37.127  13.476  16.311  0.00  0.00     0.169 HD
BRANCH  21  24
HETATM   24  C   UNK N   1      34.937  13.464  17.676  0.00  0.00     0.064 C 
HETATM   25  C   UNK N   1      35.464  14.579  18.189  0.00  0.00     0.017 C 
ENDBRANCH  21  24
ENDBRANCH  18  20
ENDBRANCH  12  14
ENDBRANCH   7  12
BRANCH   1  26
HETATM   26  C   UNK N   1      31.815  17.386   8.162  0.00  0.00     0.049 A 
HETATM   27  C   UNK N   1      31.985  17.171   6.783  0.00  0.00     0.033 A 
HETATM   28  C   UNK N   1      30.906  17.166   5.914  0.00  0.00     0.039 A 
HETATM   29  C   UNK N   1      29.621  17.375   6.395  0.00  0.00     0.069 A 
HETATM   30  C   UNK N   1      29.430  17.652   7.766  0.00  0.00     0.039 A 
HETATM   31  C   UNK N   1      30.528  17.659   8.649  0.00  0.00     0.033 A 
BRANCH  29  32
HETATM   32  O   UNK N   1      28.595  17.272   5.521  0.00  0.00    -0.349 OA
BRANCH  32  33
HETATM   33  C   UNK N   1      28.317  16.149   4.783  0.00  0.00     0.201 C 
BRANCH  33  34
HETATM   34  C   UNK N   1      28.207  16.540   3.324  0.00  0.00     0.193 C 
BRANCH  34  35
HETATM   35  O   UNK N   1      29.457  16.446   2.716  0.00  0.00    -0.394 OA
HETATM   36  C   UNK N   1      29.841  15.122   2.927  0.00  0.00     0.201 C 
ENDBRANCH  34  35
ENDBRANCH  33  34
ENDBRANCH  32  33
ENDBRANCH  29  32
ENDBRANCH   1  26
TORSDOF 9
ENDMDL
MODEL 6
REMARK VINA RESULT:      -7.0      2.252     11.901
REMARK  9 active torsions:
REMARK  status: ('A' for Active; 'I' for Inactive)
REMARK    1  A    between atoms: O_2  and  C_3 
REMARK    2  A    between atoms: C_3  and  C_4 
REMARK    3  A    between atoms: C_4  and  O_5 
REMARK    4  A    between atoms: O_5  and  C_6 
REMARK    5  A    between atoms: C_9  and  N_12 
REMARK       I    between atoms: N_12  and  C_13 
REMARK    6  A    between atoms: C_18  and  N_21 
REMARK    7  A    between atoms: N_21  and  C_22 
REMARK    8  A    between atoms: C_26  and  N_28 
REMARK       I    between atoms: N_28  and  C_29 
REMARK    9  A    between atoms: C_29  and  C_31 
ROOT
HETATM    1  N   UNK N   1      34.022  13.799  10.902  0.00  0.00    -0.192 N 
HETATM    2  C   UNK N   1      34.071  15.031  10.173  0.00  0.00     0.684 A 
HETATM    3  N   UNK N   1      35.088  15.887  10.423  0.00  0.00    -0.199 N 
ATOM      4  HN  UNK N   1      35.792  15.629  11.114  1.00  0.00     0.183 HD
HETATM    5  C   UNK N   1      35.198  17.063   9.791  0.00  0.00     0.152 A 
HETATM    6  C   UNK N   1      34.255  17.444   8.870  0.00  0.00     0.176 A 
HETATM    7  C   UNK N   1      33.152  16.575   8.593  0.00  0.00     0.162 A 
HETATM    8  N   UNK N   1      33.100  15.377   9.274  0.00  0.00    -0.173 N 
ATOM      9  HN  UNK N   1      32.324  14.738   9.104  1.00  0.00     0.186 HD
HETATM   10  F   UNK N   1      34.474  18.647   8.323  0.00  0.00    -0.201 F 
HETATM   11  H   UNK N   1      33.218  13.231  10.858  0.00  0.00     0.184 HD
ENDROOT
BRANCH   7  12
HETATM   12  N   UNK N   1      32.079  16.875   7.666  0.00  0.00    -0.339 N 
HETATM   13  H   UNK N   1      32.260  16.604   6.737  0.00  0.00     0.167 HD
BRANCH  12  14
HETATM   14  C   UNK N   1      30.796  17.498   7.861  0.00  0.00     0.035 A 
HETATM   15  C   UNK N   1      30.447  18.100   9.064  0.00  0.00     0.029 A 
HETATM   16  C   UNK N   1      29.210  18.683   9.276  0.00  0.00     0.004 A 
HETATM   17  C   UNK N   1      28.283  18.693   8.255  0.00  0.00     0.029 A 
HETATM   18  C   UNK N   1      28.581  18.122   7.010  0.00  0.00     0.037 A 
HETATM   19  C   UNK N   1      29.846  17.519   6.813  0.00  0.00     0.059 A 
BRANCH  18  20
HETATM   20  N   UNK N   1      27.622  18.152   5.950  0.00  0.00    -0.324 N 
HETATM   21  C   UNK N   1      27.479  19.176   5.055  0.00  0.00     0.244 C 
HETATM   22  O   UNK N   1      28.188  20.173   5.111  0.00  0.00    -0.268 OA
HETATM   23  H   UNK N   1      27.020  17.378   5.858  0.00  0.00     0.169 HD
BRANCH  21  24
HETATM   24  C   UNK N   1      26.455  19.078   4.001  0.00  0.00     0.064 C 
HETATM   25  C   UNK N   1      25.951  20.172   3.424  0.00  0.00     0.017 C 
ENDBRANCH  21  24
ENDBRANCH  18  20
ENDBRANCH  12  14
ENDBRANCH   7  12
BRANCH   1  26
HETATM   26  C   UNK N   1      35.145  13.393  11.693  0.00  0.00     0.049 A 
HETATM   27  C   UNK N   1      35.256  13.815  13.030  0.00  0.00     0.033 A 
HETATM   28  C   UNK N   1      36.227  13.300  13.873  0.00  0.00     0.039 A 
HETATM   29  C   UNK N   1      37.121  12.344  13.408  0.00  0.00     0.069 A 
HETATM   30  C   UNK N   1      37.068  11.947  12.054  0.00  0.00     0.039 A 
HETATM   31  C   UNK N   1      36.082  12.474  11.197  0.00  0.00     0.033 A 
BRANCH  29  32
HETATM   32  O   UNK N   1      37.990  11.809  14.293  0.00  0.00    -0.349 OA
BRANCH  32  33
HETATM   33  C   UNK N   1      38.085  10.469  14.570  0.00  0.00     0.201 C 
BRANCH  33  34
HETATM   34  C   UNK N   1      36.821  10.028  15.278  0.00  0.00     0.193 C 
BRANCH  34  35
HETATM   35  O   UNK N   1      36.791  10.562  16.564  0.00  0.00    -0.394 OA
HETATM   36  C   UNK N   1      35.450  10.888  16.767  0.00  0.00     0.201 C 
ENDBRANCH  34  35
ENDBRANCH  33  34
ENDBRANCH  32  33
ENDBRANCH  29  32
ENDBRANCH   1  26
TORSDOF 9
ENDMDL
MODEL 7
REMARK VINA RESULT:      -7.0      5.891     11.218
REMARK  9 active torsions:
REMARK  status: ('A' for Active; 'I' for Inactive)
REMARK    1  A    between atoms: O_2  and  C_3 
REMARK    2  A    between atoms: C_3  and  C_4 
REMARK    3  A    between atoms: C_4  and  O_5 
REMARK    4  A    between atoms: O_5  and  C_6 
REMARK    5  A    between atoms: C_9  and  N_12 
REMARK       I    between atoms: N_12  and  C_13 
REMARK    6  A    between atoms: C_18  and  N_21 
REMARK    7  A    between atoms: N_21  and  C_22 
REMARK    8  A    between atoms: C_26  and  N_28 
REMARK       I    between atoms: N_28  and  C_29 
REMARK    9  A    between atoms: C_29  and  C_31 
ROOT
HETATM    1  N   UNK N   1      27.177  17.874   5.728  0.00  0.00    -0.192 N 
HETATM    2  C   UNK N   1      26.169  16.897   5.440  0.00  0.00     0.684 A 
HETATM    3  N   UNK N   1      26.554  15.705   4.929  0.00  0.00    -0.199 N 
ATOM      4  HN  UNK N   1      27.547  15.533   4.771  1.00  0.00     0.183 HD
HETATM    5  C   UNK N   1      25.673  14.745   4.624  0.00  0.00     0.152 A 
HETATM    6  C   UNK N   1      24.329  14.955   4.810  0.00  0.00     0.176 A 
HETATM    7  C   UNK N   1      23.880  16.210   5.328  0.00  0.00     0.162 A 
HETATM    8  N   UNK N   1      24.839  17.155   5.626  0.00  0.00    -0.173 N 
ATOM      9  HN  UNK N   1      24.551  18.063   5.993  1.00  0.00     0.186 HD
HETATM   10  F   UNK N   1      23.555  13.922   4.451  0.00  0.00    -0.201 F 
HETATM   11  H   UNK N   1      26.919  18.798   5.950  0.00  0.00     0.184 HD
ENDROOT
BRANCH   7  12
HETATM   12  N   UNK N   1      22.490  16.564   5.542  0.00  0.00    -0.339 N 
HETATM   13  H   UNK N   1      22.088  17.082   4.807  0.00  0.00     0.167 HD
BRANCH  12  14
HETATM   14  C   UNK N   1      21.595  16.295   6.636  0.00  0.00     0.035 A 
HETATM   15  C   UNK N   1      20.344  16.894   6.727  0.00  0.00     0.029 A 
HETATM   16  C   UNK N   1      19.480  16.663   7.783  0.00  0.00     0.004 A 
HETATM   17  C   UNK N   1      19.854  15.790   8.784  0.00  0.00     0.029 A 
HETATM   18  C   UNK N   1      21.094  15.137   8.741  0.00  0.00     0.037 A 
HETATM   19  C   UNK N   1      21.970  15.393   7.659  0.00  0.00     0.059 A 
BRANCH  18  20
HETATM   20  N   UNK N   1      21.466  14.219   9.771  0.00  0.00    -0.324 N 
HETATM   21  C   UNK N   1      21.466  12.858   9.643  0.00  0.00     0.244 C 
HETATM   22  O   UNK N   1      21.127  12.318   8.597  0.00  0.00    -0.268 OA
HETATM   23  H   UNK N   1      21.744  14.596  10.638  0.00  0.00     0.169 HD
BRANCH  21  24
HETATM   24  C   UNK N   1      21.883  12.023  10.782  0.00  0.00     0.064 C 
HETATM   25  C   UNK N   1      23.109  12.126  11.302  0.00  0.00     0.017 C 
ENDBRANCH  21  24
ENDBRANCH  18  20
ENDBRANCH  12  14
ENDBRANCH   7  12
BRANCH   1  26
HETATM   26  C   UNK N   1      28.560  17.502   5.693  0.00  0.00     0.049 A 
HETATM   27  C   UNK N   1      29.293  17.622   4.499  0.00  0.00     0.033 A 
HETATM   28  C   UNK N   1      30.667  17.446   4.472  0.00  0.00     0.039 A 
HETATM   29  C   UNK N   1      31.355  17.143   5.640  0.00  0.00     0.069 A 
HETATM   30  C   UNK N   1      30.635  16.959   6.841  0.00  0.00     0.039 A 
HETATM   31  C   UNK N   1      29.238  17.136   6.865  0.00  0.00     0.033 A 
BRANCH  29  32
HETATM   32  O   UNK N   1      32.702  17.069   5.577  0.00  0.00    -0.349 OA
BRANCH  32  33
HETATM   33  C   UNK N   1      33.441  16.010   6.041  0.00  0.00     0.201 C 
BRANCH  33  34
HETATM   34  C   UNK N   1      34.407  16.514   7.093  0.00  0.00     0.193 C 
BRANCH  34  35
HETATM   35  O   UNK N   1      34.610  17.882   6.929  0.00  0.00    -0.394 OA
HETATM   36  C   UNK N   1      34.521  18.398   8.222  0.00  0.00     0.201 C 
ENDBRANCH  34  35
ENDBRANCH  33  34
ENDBRANCH  32  33
ENDBRANCH  29  32
ENDBRANCH   1  26
TORSDOF 9
ENDMDL
MODEL 8
REMARK VINA RESULT:      -7.0      3.044      5.853
REMARK  9 active torsions:
REMARK  status: ('A' for Active; 'I' for Inactive)
REMARK    1  A    between atoms: O_2  and  C_3 
REMARK    2  A    between atoms: C_3  and  C_4 
REMARK    3  A    between atoms: C_4  and  O_5 
REMARK    4  A    between atoms: O_5  and  C_6 
REMARK    5  A    between atoms: C_9  and  N_12 
REMARK       I    between atoms: N_12  and  C_13 
REMARK    6  A    between atoms: C_18  and  N_21 
REMARK    7  A    between atoms: N_21  and  C_22 
REMARK    8  A    between atoms: C_26  and  N_28 
REMARK       I    between atoms: N_28  and  C_29 
REMARK    9  A    between atoms: C_29  and  C_31 
ROOT
HETATM    1  N   UNK N   1      34.370  16.839  10.105  0.00  0.00    -0.192 N 
HETATM    2  C   UNK N   1      34.863  15.606  10.641  0.00  0.00     0.684 A 
HETATM    3  N   UNK N   1      34.459  14.448  10.071  0.00  0.00    -0.199 N 
ATOM      4  HN  UNK N   1      33.824  14.485   9.275  1.00  0.00     0.183 HD
HETATM    5  C   UNK N   1      34.867  13.255  10.521  0.00  0.00     0.152 A 
HETATM    6  C   UNK N   1      35.708  13.173  11.602  0.00  0.00     0.176 A 
HETATM    7  C   UNK N   1      36.141  14.375  12.247  0.00  0.00     0.162 A 
HETATM    8  N   UNK N   1      35.688  15.572  11.732  0.00  0.00    -0.173 N 
ATOM      9  HN  UNK N   1      35.974  16.446  12.172  1.00  0.00     0.186 HD
HETATM   10  F   UNK N   1      36.027  11.922  11.960  0.00  0.00    -0.201 F 
HETATM   11  H   UNK N   1      34.518  17.683  10.590  0.00  0.00     0.184 HD
ENDROOT
BRANCH   7  12
HETATM   12  N   UNK N   1      37.002  14.422  13.412  0.00  0.00    -0.339 N 
HETATM   13  H   UNK N   1      37.963  14.480  13.202  0.00  0.00     0.167 HD
BRANCH  12  14
HETATM   14  C   UNK N   1      36.704  14.398  14.820  0.00  0.00     0.035 A 
HETATM   15  C   UNK N   1      37.109  15.417  15.674  0.00  0.00     0.029 A 
HETATM   16  C   UNK N   1      36.850  15.400  17.033  0.00  0.00     0.004 A 
HETATM   17  C   UNK N   1      36.146  14.343  17.574  0.00  0.00     0.029 A 
HETATM   18  C   UNK N   1      35.692  13.294  16.764  0.00  0.00     0.037 A 
HETATM   19  C   UNK N   1      35.974  13.323  15.377  0.00  0.00     0.059 A 
BRANCH  18  20
HETATM   20  N   UNK N   1      34.947  12.212  17.328  0.00  0.00    -0.324 N 
HETATM   21  C   UNK N   1      35.425  10.943  17.505  0.00  0.00     0.244 C 
HETATM   22  O   UNK N   1      36.564  10.641  17.171  0.00  0.00    -0.268 OA
HETATM   23  H   UNK N   1      34.021  12.395  17.610  0.00  0.00     0.169 HD
BRANCH  21  24
HETATM   24  C   UNK N   1      34.556   9.920  18.108  0.00  0.00     0.064 C 
HETATM   25  C   UNK N   1      34.911   8.633  18.123  0.00  0.00     0.017 C 
ENDBRANCH  21  24
ENDBRANCH  18  20
ENDBRANCH  12  14
ENDBRANCH   7  12
BRANCH   1  26
HETATM   26  C   UNK N   1      33.661  16.842   8.860  0.00  0.00     0.049 A 
HETATM   27  C   UNK N   1      32.303  16.481   8.820  0.00  0.00     0.033 A 
HETATM   28  C   UNK N   1      31.544  16.645   7.673  0.00  0.00     0.039 A 
HETATM   29  C   UNK N   1      32.118  17.177   6.526  0.00  0.00     0.069 A 
HETATM   30  C   UNK N   1      33.494  17.492   6.521  0.00  0.00     0.039 A 
HETATM   31  C   UNK N   1      34.265  17.322   7.688  0.00  0.00     0.033 A 
BRANCH  29  32
HETATM   32  O   UNK N   1      31.314  17.399   5.462  0.00  0.00    -0.349 OA
BRANCH  32  33
HETATM   33  C   UNK N   1      29.985  17.062   5.413  0.00  0.00     0.201 C 
BRANCH  33  34
HETATM   34  C   UNK N   1      29.536  17.062   3.967  0.00  0.00     0.193 C 
BRANCH  34  35
HETATM   35  O   UNK N   1      28.252  17.594   3.873  0.00  0.00    -0.394 OA
HETATM   36  C   UNK N   1      28.290  18.723   4.691  0.00  0.00     0.201 C 
ENDBRANCH  34  35
ENDBRANCH  33  34
ENDBRANCH  32  33
ENDBRANCH  29  32
ENDBRANCH   1  26
TORSDOF 9
ENDMDL
MODEL 9
REMARK VINA RESULT:      -7.0      3.117      5.569
REMARK  9 active torsions:
REMARK  status: ('A' for Active; 'I' for Inactive)
REMARK    1  A    between atoms: O_2  and  C_3 
REMARK    2  A    between atoms: C_3  and  C_4 
REMARK    3  A    between atoms: C_4  and  O_5 
REMARK    4  A    between atoms: O_5  and  C_6 
REMARK    5  A    between atoms: C_9  and  N_12 
REMARK       I    between atoms: N_12  and  C_13 
REMARK    6  A    between atoms: C_18  and  N_21 
REMARK    7  A    between atoms: N_21  and  C_22 
REMARK    8  A    between atoms: C_26  and  N_28 
REMARK       I    between atoms: N_28  and  C_29 
REMARK    9  A    between atoms: C_29  and  C_31 
ROOT
HETATM    1  N   UNK N   1      24.658  15.825   5.941  0.00  0.00    -0.192 N 
HETATM    2  C   UNK N   1      25.732  16.771   6.005  0.00  0.00     0.684 A 
HETATM    3  N   UNK N   1      25.635  17.906   5.276  0.00  0.00    -0.199 N 
ATOM      4  HN  UNK N   1      24.800  18.060   4.710  1.00  0.00     0.183 HD
HETATM    5  C   UNK N   1      26.601  18.834   5.274  0.00  0.00     0.152 A 
HETATM    6  C   UNK N   1      27.742  18.645   6.011  0.00  0.00     0.176 A 
HETATM    7  C   UNK N   1      27.893  17.447   6.779  0.00  0.00     0.162 A 
HETATM    8  N   UNK N   1      26.860  16.534   6.741  0.00  0.00    -0.173 N 
ATOM      9  HN  UNK N   1      26.938  15.667   7.273  1.00  0.00     0.186 HD
HETATM   10  F   UNK N   1      28.635  19.640   5.909  0.00  0.00    -0.201 F 
HETATM   11  H   UNK N   1      24.767  14.927   6.331  0.00  0.00     0.184 HD
ENDROOT
BRANCH   7  12
HETATM   12  N   UNK N   1      29.060  17.118   7.573  0.00  0.00    -0.339 N 
HETATM   13  H   UNK N   1      28.853  16.768   8.470  0.00  0.00     0.167 HD
BRANCH  12  14
HETATM   14  C   UNK N   1      30.467  17.211   7.284  0.00  0.00     0.035 A 
HETATM   15  C   UNK N   1      30.951  17.214   5.982  0.00  0.00     0.029 A 
HETATM   16  C   UNK N   1      32.302  17.280   5.687  0.00  0.00     0.004 A 
HETATM   17  C   UNK N   1      33.215  17.366   6.717  0.00  0.00     0.029 A 
HETATM   18  C   UNK N   1      32.791  17.388   8.053  0.00  0.00     0.037 A 
HETATM   19  C   UNK N   1      31.407  17.309   8.337  0.00  0.00     0.059 A 
BRANCH  18  20
HETATM   20  N   UNK N   1      33.742  17.496   9.114  0.00  0.00    -0.324 N 
HETATM   21  C   UNK N   1      34.417  16.444   9.668  0.00  0.00     0.244 C 
HETATM   22  O   UNK N   1      34.237  15.297   9.278  0.00  0.00    -0.268 OA
HETATM   23  H   UNK N   1      33.924  18.395   9.473  0.00  0.00     0.169 HD
BRANCH  21  24
HETATM   24  C   UNK N   1      35.380  16.692  10.754  0.00  0.00     0.064 C 
HETATM   25  C   UNK N   1      36.116  15.702  11.265  0.00  0.00     0.017 C 
ENDBRANCH  21  24
ENDBRANCH  18  20
ENDBRANCH  12  14
ENDBRANCH   7  12
BRANCH   1  26
HETATM   26  C   UNK N   1      23.424  16.188   5.309  0.00  0.00     0.049 A 
HETATM   27  C   UNK N   1      22.437  16.876   6.036  0.00  0.00     0.033 A 
HETATM   28  C   UNK N   1      21.314  17.399   5.413  0.00  0.00     0.039 A 
HETATM   29  C   UNK N   1      21.142  17.252   4.044  0.00  0.00     0.069 A 
HETATM   30  C   UNK N   1      22.090  16.514   3.301  0.00  0.00     0.039 A 
HETATM   31  C   UNK N   1      23.230  15.981   3.936  0.00  0.00     0.033 A 
BRANCH  29  32
HETATM   32  O   UNK N   1      20.077  17.856   3.472  0.00  0.00    -0.349 OA
BRANCH  32  33
HETATM   33  C   UNK N   1      20.160  18.933   2.627  0.00  0.00     0.201 C 
BRANCH  33  34
HETATM   34  C   UNK N   1      20.324  20.191   3.455  0.00  0.00     0.193 C 
BRANCH  34  35
HETATM   35  O   UNK N   1      21.177  21.077   2.802  0.00  0.00    -0.394 OA
HETATM   36  C   UNK N   1      22.386  20.386   2.717  0.00  0.00     0.201 C 
ENDBRANCH  34  35
ENDBRANCH  33  34
ENDBRANCH  32  33
ENDBRANCH  29  32
ENDBRANCH   1  26
TORSDOF 9
ENDMDL
