MODEL 1
REMARK VINA RESULT:      -7.0      0.000      0.000
REMARK  2 active torsions:
REMARK  status: ('A' for Active; 'I' for Inactive)
REMARK    1  A    between atoms: C_2  and  O_18 
REMARK    2  A    between atoms: C_17  and  C_20 
ROOT
HETATM    1  C   UNK N   1      31.956  21.505  -2.515  0.00  0.00     0.032 C 
HETATM    2  C   UNK N   1      32.709  21.073  -3.771  0.00  0.00     0.118 C 
HETATM    3  C   UNK N   1      31.767  20.521  -4.847  0.00  0.00     0.037 C 
HETATM    4  C   UNK N   1      30.432  21.284  -4.945  0.00  0.00    -0.004 C 
HETATM    5  C   UNK N   1      30.510  22.704  -4.310  0.00  0.00    -0.036 C 
HETATM    6  C   UNK N   1      30.856  22.544  -2.813  0.00  0.00     0.012 C 
HETATM    7  C   UNK N   1      29.989  21.336  -6.412  0.00  0.00     0.006 C 
HETATM    8  C   UNK N   1      28.658  22.076  -6.569  0.00  0.00     0.006 C 
HETATM    9  C   UNK N   1      28.769  23.489  -5.991  0.00  0.00    -0.005 C 
HETATM   10  C   UNK N   1      29.139  23.420  -4.480  0.00  0.00    -0.002 C 
HETATM   11  C   UNK N   1      27.502  24.333  -6.228  0.00  0.00    -0.001 C 
HETATM   12  C   UNK N   1      27.622  25.761  -5.616  0.00  0.00    -0.030 C 
HETATM   13  C   UNK N   1      28.900  25.965  -4.785  0.00  0.00     0.011 C 
HETATM   14  C   UNK N   1      29.130  24.811  -3.805  0.00  0.00     0.006 C 
HETATM   15  C   UNK N   1      26.226  23.738  -5.636  0.00  0.00     0.006 C 
HETATM   16  C   UNK N   1      25.362  24.945  -5.331  0.00  0.00     0.013 C 
HETATM   17  C   UNK N   1      26.383  25.875  -4.719  0.00  0.00     0.063 C 
HETATM   18  C   UNK N   1      27.612  26.800  -6.736  0.00  0.00     0.016 C 
HETATM   19  C   UNK N   1      31.612  23.547  -4.973  0.00  0.00     0.016 C 
ENDROOT
BRANCH  17  20
HETATM   20  C   UNK N   1      25.928  27.276  -4.387  0.00  0.00     0.128 C 
HETATM   21  C   UNK N   1      26.570  28.060  -3.290  0.00  0.00     0.091 C 
HETATM   22  O   UNK N   1      25.021  27.782  -5.028  0.00  0.00    -0.298 OA
ENDBRANCH  17  20
BRANCH   2  23
HETATM   23  O   UNK N   1      33.692  20.136  -3.460  0.00  0.00    -0.396 OA
HETATM   24  H   UNK N   1      33.621  19.226  -3.789  0.00  0.00     0.210 HD
ENDBRANCH   2  23
TORSDOF 2
ENDMDL
MODEL 2
REMARK VINA RESULT:      -7.0     11.023     13.482
REMARK  2 active torsions:
REMARK  status: ('A' for Active; 'I' for Inactive)
REMARK    1  A    between atoms: C_2  and  O_18 
REMARK    2  A    between atoms: C_17  and  C_20 
ROOT
HETATM    1  C   UNK N   1      25.498  19.502   5.004  0.00  0.00     0.032 C 
HETATM    2  C   UNK N   1      24.672  18.258   4.691  0.00  0.00     0.118 C 
HETATM    3  C   UNK N   1      25.257  17.456   3.522  0.00  0.00     0.037 C 
HETATM    4  C   UNK N   1      26.797  17.407   3.521  0.00  0.00    -0.004 C 
HETATM    5  C   UNK N   1      27.404  17.739   4.916  0.00  0.00    -0.036 C 
HETATM    6  C   UNK N   1      26.975  19.173   5.300  0.00  0.00     0.012 C 
HETATM    7  C   UNK N   1      27.256  16.037   3.006  0.00  0.00     0.006 C 
HETATM    8  C   UNK N   1      28.783  15.935   2.974  0.00  0.00     0.006 C 
HETATM    9  C   UNK N   1      29.360  16.208   4.366  0.00  0.00    -0.005 C 
HETATM   10  C   UNK N   1      28.955  17.634   4.840  0.00  0.00    -0.002 C 
HETATM   11  C   UNK N   1      30.885  15.999   4.431  0.00  0.00    -0.001 C 
HETATM   12  C   UNK N   1      31.460  16.300   5.848  0.00  0.00    -0.030 C 
HETATM   13  C   UNK N   1      30.421  16.882   6.819  0.00  0.00     0.011 C 
HETATM   14  C   UNK N   1      29.622  18.022   6.180  0.00  0.00     0.006 C 
HETATM   15  C   UNK N   1      31.686  16.873   3.468  0.00  0.00     0.006 C 
HETATM   16  C   UNK N   1      33.020  17.061   4.162  0.00  0.00     0.013 C 
HETATM   17  C   UNK N   1      32.566  17.328   5.578  0.00  0.00     0.063 C 
HETATM   18  C   UNK N   1      32.015  15.014   6.459  0.00  0.00     0.016 C 
HETATM   19  C   UNK N   1      26.879  16.773   5.991  0.00  0.00     0.016 C 
ENDROOT
BRANCH  17  20
HETATM   20  C   UNK N   1      33.638  17.446   6.634  0.00  0.00     0.128 C 
HETATM   21  C   UNK N   1      33.398  18.199   7.902  0.00  0.00     0.091 C 
HETATM   22  O   UNK N   1      34.722  16.915   6.454  0.00  0.00    -0.298 OA
ENDBRANCH  17  20
BRANCH   2  23
HETATM   23  O   UNK N   1      23.346  18.598   4.429  0.00  0.00    -0.396 OA
HETATM   24  H   UNK N   1      22.723  17.925   4.112  0.00  0.00     0.210 HD
ENDBRANCH   2  23
TORSDOF 2
ENDMDL
MODEL 3
REMARK VINA RESULT:      -6.9     11.245     13.501
REMARK  2 active torsions:
REMARK  status: ('A' for Active; 'I' for Inactive)
REMARK    1  A    between atoms: C_2  and  O_18 
REMARK    2  A    between atoms: C_17  and  C_20 
ROOT
HETATM    1  C   UNK N   1      33.196  15.183   9.514  0.00  0.00     0.032 C 
HETATM    2  C   UNK N   1      34.258  16.272   9.390  0.00  0.00     0.118 C 
HETATM    3  C   UNK N   1      34.700  16.483   7.937  0.00  0.00     0.037 C 
HETATM    4  C   UNK N   1      33.544  16.381   6.923  0.00  0.00    -0.004 C 
HETATM    5  C   UNK N   1      32.150  16.576   7.587  0.00  0.00    -0.036 C 
HETATM    6  C   UNK N   1      31.957  15.462   8.640  0.00  0.00     0.012 C 
HETATM    7  C   UNK N   1      33.783  17.383   5.786  0.00  0.00     0.006 C 
HETATM    8  C   UNK N   1      32.668  17.318   4.740  0.00  0.00     0.006 C 
HETATM    9  C   UNK N   1      31.309  17.568   5.400  0.00  0.00    -0.005 C 
HETATM   10  C   UNK N   1      31.044  16.494   6.496  0.00  0.00    -0.002 C 
HETATM   11  C   UNK N   1      30.155  17.641   4.382  0.00  0.00    -0.001 C 
HETATM   12  C   UNK N   1      28.777  17.875   5.072  0.00  0.00    -0.030 C 
HETATM   13  C   UNK N   1      28.844  17.829   6.607  0.00  0.00     0.011 C 
HETATM   14  C   UNK N   1      29.627  16.611   7.105  0.00  0.00     0.006 C 
HETATM   15  C   UNK N   1      29.981  16.384   3.533  0.00  0.00     0.006 C 
HETATM   16  C   UNK N   1      28.502  16.362   3.204  0.00  0.00     0.013 C 
HETATM   17  C   UNK N   1      27.909  16.725   4.545  0.00  0.00     0.063 C 
HETATM   18  C   UNK N   1      28.224  19.239   4.661  0.00  0.00     0.016 C 
HETATM   19  C   UNK N   1      32.063  17.935   8.302  0.00  0.00     0.016 C 
ENDROOT
BRANCH  17  20
HETATM   20  C   UNK N   1      26.416  16.936   4.605  0.00  0.00     0.128 C 
HETATM   21  C   UNK N   1      25.640  17.337   3.393  0.00  0.00     0.091 C 
HETATM   22  O   UNK N   1      25.826  16.774   5.661  0.00  0.00    -0.298 OA
ENDBRANCH  17  20
BRANCH   2  23
HETATM   23  O   UNK N   1      35.359  15.984  10.194  0.00  0.00    -0.396 OA
HETATM   24  H   UNK N   1      35.732  15.089  10.208  0.00  0.00     0.210 HD
ENDBRANCH   2  23
TORSDOF 2
ENDMDL
MODEL 4
REMARK VINA RESULT:      -6.8     23.868     27.977
REMARK  2 active torsions:
REMARK  status: ('A' for Active; 'I' for Inactive)
REMARK    1  A    between atoms: C_2  and  O_18 
REMARK    2  A    between atoms: C_17  and  C_20 
ROOT
HETATM    1  C   UNK N   1      34.031  10.761  13.812  0.00  0.00     0.032 C 
HETATM    2  C   UNK N   1      34.873  12.005  13.540  0.00  0.00     0.118 C 
HETATM    3  C   UNK N   1      34.711  13.063  14.639  0.00  0.00     0.037 C 
HETATM    4  C   UNK N   1      34.613  12.465  16.056  0.00  0.00    -0.004 C 
HETATM    5  C   UNK N   1      35.175  11.015  16.131  0.00  0.00    -0.036 C 
HETATM    6  C   UNK N   1      34.342  10.125  15.182  0.00  0.00     0.012 C 
HETATM    7  C   UNK N   1      35.312  13.404  17.046  0.00  0.00     0.006 C 
HETATM    8  C   UNK N   1      35.236  12.864  18.477  0.00  0.00     0.006 C 
HETATM    9  C   UNK N   1      35.845  11.460  18.545  0.00  0.00    -0.005 C 
HETATM   10  C   UNK N   1      35.072  10.498  17.595  0.00  0.00    -0.002 C 
HETATM   11  C   UNK N   1      35.913  10.908  19.981  0.00  0.00    -0.001 C 
HETATM   12  C   UNK N   1      36.515   9.472  20.031  0.00  0.00    -0.030 C 
HETATM   13  C   UNK N   1      36.764   8.863  18.641  0.00  0.00     0.011 C 
HETATM   14  C   UNK N   1      35.551   9.034  17.722  0.00  0.00     0.006 C 
HETATM   15  C   UNK N   1      34.563  10.813  20.687  0.00  0.00     0.006 C 
HETATM   16  C   UNK N   1      34.733   9.660  21.657  0.00  0.00     0.013 C 
HETATM   17  C   UNK N   1      35.452   8.660  20.782  0.00  0.00     0.063 C 
HETATM   18  C   UNK N   1      37.846   9.500  20.782  0.00  0.00     0.016 C 
HETATM   19  C   UNK N   1      36.642  10.966  15.674  0.00  0.00     0.016 C 
ENDROOT
BRANCH  17  20
HETATM   20  C   UNK N   1      35.927   7.386  21.438  0.00  0.00     0.128 C 
HETATM   21  C   UNK N   1      36.070   7.285  22.922  0.00  0.00     0.091 C 
HETATM   22  O   UNK N   1      36.197   6.417  20.747  0.00  0.00    -0.298 OA
ENDBRANCH  17  20
BRANCH   2  23
HETATM   23  O   UNK N   1      34.562  12.549  12.295  0.00  0.00    -0.396 OA
HETATM   24  H   UNK N   1      34.573  13.511  12.166  0.00  0.00     0.210 HD
ENDBRANCH   2  23
TORSDOF 2
ENDMDL
MODEL 5
REMARK VINA RESULT:      -6.6     15.310     17.208
REMARK  2 active torsions:
REMARK  status: ('A' for Active; 'I' for Inactive)
REMARK    1  A    between atoms: C_2  and  O_18 
REMARK    2  A    between atoms: C_17  and  C_20 
ROOT
HETATM    1  C   UNK N   1      24.318  12.243  11.366  0.00  0.00     0.032 C 
HETATM    2  C   UNK N   1      22.901  11.675  11.397  0.00  0.00     0.118 C 
HETATM    3  C   UNK N   1      21.863  12.685  10.894  0.00  0.00     0.037 C 
HETATM    4  C   UNK N   1      22.356  13.527   9.701  0.00  0.00    -0.004 C 
HETATM    5  C   UNK N   1      23.558  12.868   8.962  0.00  0.00    -0.036 C 
HETATM    6  C   UNK N   1      24.726  12.737   9.964  0.00  0.00     0.012 C 
HETATM    7  C   UNK N   1      21.178  13.795   8.755  0.00  0.00     0.006 C 
HETATM    8  C   UNK N   1      21.607  14.639   7.553  0.00  0.00     0.006 C 
HETATM    9  C   UNK N   1      22.751  13.950   6.805  0.00  0.00    -0.005 C 
HETATM   10  C   UNK N   1      23.970  13.759   7.755  0.00  0.00    -0.002 C 
HETATM   11  C   UNK N   1      23.148  14.686   5.511  0.00  0.00    -0.001 C 
HETATM   12  C   UNK N   1      24.327  13.984   4.772  0.00  0.00    -0.030 C 
HETATM   13  C   UNK N   1      24.934  12.812   5.562  0.00  0.00     0.011 C 
HETATM   14  C   UNK N   1      25.208  13.192   7.020  0.00  0.00     0.006 C 
HETATM   15  C   UNK N   1      23.595  16.132   5.717  0.00  0.00     0.006 C 
HETATM   16  C   UNK N   1      24.566  16.384   4.581  0.00  0.00     0.013 C 
HETATM   17  C   UNK N   1      25.364  15.101   4.602  0.00  0.00     0.063 C 
HETATM   18  C   UNK N   1      23.841  13.448   3.426  0.00  0.00     0.016 C 
HETATM   19  C   UNK N   1      23.193  11.462   8.458  0.00  0.00     0.016 C 
ENDROOT
BRANCH  17  20
HETATM   20  C   UNK N   1      26.382  14.904   3.505  0.00  0.00     0.128 C 
HETATM   21  C   UNK N   1      26.302  15.672   2.226  0.00  0.00     0.091 C 
HETATM   22  O   UNK N   1      27.291  14.105   3.662  0.00  0.00    -0.298 OA
ENDBRANCH  17  20
BRANCH   2  23
HETATM   23  O   UNK N   1      22.571  11.240  12.679  0.00  0.00    -0.396 OA
HETATM   24  H   UNK N   1      23.257  10.890  13.269  0.00  0.00     0.210 HD
ENDBRANCH   2  23
TORSDOF 2
ENDMDL
MODEL 6
REMARK VINA RESULT:      -6.4     15.846     17.122
REMARK  2 active torsions:
REMARK  status: ('A' for Active; 'I' for Inactive)
REMARK    1  A    between atoms: C_2  and  O_18 
REMARK    2  A    between atoms: C_17  and  C_20 
ROOT
HETATM    1  C   UNK N   1      25.230  13.089   9.738  0.00  0.00     0.032 C 
HETATM    2  C   UNK N   1      24.326  12.160  10.544  0.00  0.00     0.118 C 
HETATM    3  C   UNK N   1      22.981  12.814  10.882  0.00  0.00     0.037 C 
HETATM    4  C   UNK N   1      22.415  13.678   9.738  0.00  0.00    -0.004 C 
HETATM    5  C   UNK N   1      23.042  13.324   8.357  0.00  0.00    -0.036 C 
HETATM    6  C   UNK N   1      24.563  13.583   8.438  0.00  0.00     0.012 C 
HETATM    7  C   UNK N   1      20.886  13.552   9.723  0.00  0.00     0.006 C 
HETATM    8  C   UNK N   1      20.266  14.400   8.611  0.00  0.00     0.006 C 
HETATM    9  C   UNK N   1      20.852  14.001   7.253  0.00  0.00    -0.005 C 
HETATM   10  C   UNK N   1      22.394  14.212   7.256  0.00  0.00    -0.002 C 
HETATM   11  C   UNK N   1      20.179  14.730   6.075  0.00  0.00    -0.001 C 
HETATM   12  C   UNK N   1      20.800  14.329   4.703  0.00  0.00    -0.030 C 
HETATM   13  C   UNK N   1      22.035  13.422   4.831  0.00  0.00     0.011 C 
HETATM   14  C   UNK N   1      23.027  13.957   5.868  0.00  0.00     0.006 C 
HETATM   15  C   UNK N   1      20.272  16.253   6.138  0.00  0.00     0.006 C 
HETATM   16  C   UNK N   1      20.252  16.685   4.685  0.00  0.00     0.013 C 
HETATM   17  C   UNK N   1      21.193  15.673   4.077  0.00  0.00     0.063 C 
HETATM   18  C   UNK N   1      19.756  13.594   3.864  0.00  0.00     0.016 C 
HETATM   19  C   UNK N   1      22.821  11.842   8.014  0.00  0.00     0.016 C 
ENDROOT
BRANCH  17  20
HETATM   20  C   UNK N   1      21.346  15.689   2.575  0.00  0.00     0.128 C 
HETATM   21  C   UNK N   1      20.340  16.362   1.700  0.00  0.00     0.091 C 
HETATM   22  O   UNK N   1      22.311  15.145   2.062  0.00  0.00    -0.298 OA
ENDBRANCH  17  20
BRANCH   2  23
HETATM   23  O   UNK N   1      24.964  11.736  11.708  0.00  0.00    -0.396 OA
HETATM   24  H   UNK N   1      25.663  12.278  12.107  0.00  0.00     0.210 HD
ENDBRANCH   2  23
TORSDOF 2
ENDMDL
MODEL 7
REMARK VINA RESULT:      -6.4     22.301     26.148
REMARK  2 active torsions:
REMARK  status: ('A' for Active; 'I' for Inactive)
REMARK    1  A    between atoms: C_2  and  O_18 
REMARK    2  A    between atoms: C_17  and  C_20 
ROOT
HETATM    1  C   UNK N   1      36.857   9.427  20.225  0.00  0.00     0.032 C 
HETATM    2  C   UNK N   1      35.610  10.098  20.796  0.00  0.00     0.118 C 
HETATM    3  C   UNK N   1      35.457  11.543  20.306  0.00  0.00     0.037 C 
HETATM    4  C   UNK N   1      35.858  11.736  18.830  0.00  0.00    -0.004 C 
HETATM    5  C   UNK N   1      35.856  10.398  18.033  0.00  0.00    -0.036 C 
HETATM    6  C   UNK N   1      36.886   9.448  18.683  0.00  0.00     0.012 C 
HETATM    7  C   UNK N   1      34.937  12.784  18.193  0.00  0.00     0.006 C 
HETATM    8  C   UNK N   1      35.297  13.026  16.725  0.00  0.00     0.006 C 
HETATM    9  C   UNK N   1      35.236  11.710  15.943  0.00  0.00    -0.005 C 
HETATM   10  C   UNK N   1      36.235  10.682  16.551  0.00  0.00    -0.002 C 
HETATM   11  C   UNK N   1      35.465  11.903  14.432  0.00  0.00    -0.001 C 
HETATM   12  C   UNK N   1      35.420  10.553  13.654  0.00  0.00    -0.030 C 
HETATM   13  C   UNK N   1      35.313   9.322  14.568  0.00  0.00     0.011 C 
HETATM   14  C   UNK N   1      36.320   9.380  15.721  0.00  0.00     0.006 C 
HETATM   15  C   UNK N   1      36.805  12.540  14.072  0.00  0.00     0.006 C 
HETATM   16  C   UNK N   1      37.123  11.983  12.699  0.00  0.00     0.013 C 
HETATM   17  C   UNK N   1      36.751  10.531  12.891  0.00  0.00     0.063 C 
HETATM   18  C   UNK N   1      34.221  10.548  12.707  0.00  0.00     0.016 C 
HETATM   19  C   UNK N   1      34.476   9.724  18.087  0.00  0.00     0.016 C 
ENDROOT
BRANCH  17  20
HETATM   20  C   UNK N   1      36.807   9.639  11.675  0.00  0.00     0.128 C 
HETATM   21  C   UNK N   1      36.800  10.208  10.294  0.00  0.00     0.091 C 
HETATM   22  O   UNK N   1      36.862   8.428  11.819  0.00  0.00    -0.298 OA
ENDBRANCH  17  20
BRANCH   2  23
HETATM   23  O   UNK N   1      35.622  10.058  22.189  0.00  0.00    -0.396 OA
HETATM   24  H   UNK N   1      34.807   9.863  22.679  0.00  0.00     0.210 HD
ENDBRANCH   2  23
TORSDOF 2
ENDMDL
MODEL 8
REMARK VINA RESULT:      -6.4     11.459     15.061
REMARK  2 active torsions:
REMARK  status: ('A' for Active; 'I' for Inactive)
REMARK    1  A    between atoms: C_2  and  O_18 
REMARK    2  A    between atoms: C_17  and  C_20 
ROOT
HETATM    1  C   UNK N   1      27.370  16.089   3.655  0.00  0.00     0.032 C 
HETATM    2  C   UNK N   1      26.779  17.460   3.969  0.00  0.00     0.118 C 
HETATM    3  C   UNK N   1      26.660  17.705   5.478  0.00  0.00     0.037 C 
HETATM    4  C   UNK N   1      27.849  17.149   6.285  0.00  0.00    -0.004 C 
HETATM    5  C   UNK N   1      29.109  16.909   5.401  0.00  0.00    -0.036 C 
HETATM    6  C   UNK N   1      28.746  15.872   4.316  0.00  0.00     0.012 C 
HETATM    7  C   UNK N   1      28.143  18.090   7.460  0.00  0.00     0.006 C 
HETATM    8  C   UNK N   1      29.313  17.580   8.306  0.00  0.00     0.006 C 
HETATM    9  C   UNK N   1      30.559  17.404   7.433  0.00  0.00    -0.005 C 
HETATM   10  C   UNK N   1      30.270  16.383   6.293  0.00  0.00    -0.002 C 
HETATM   11  C   UNK N   1      31.807  17.012   8.246  0.00  0.00    -0.001 C 
HETATM   12  C   UNK N   1      33.060  16.816   7.342  0.00  0.00    -0.030 C 
HETATM   13  C   UNK N   1      32.751  16.904   5.838  0.00  0.00     0.011 C 
HETATM   14  C   UNK N   1      31.532  16.058   5.459  0.00  0.00     0.006 C 
HETATM   15  C   UNK N   1      31.664  15.713   9.037  0.00  0.00     0.006 C 
HETATM   16  C   UNK N   1      33.077  15.171   9.116  0.00  0.00     0.013 C 
HETATM   17  C   UNK N   1      33.549  15.407   7.700  0.00  0.00     0.063 C 
HETATM   18  C   UNK N   1      34.104  17.882   7.675  0.00  0.00     0.016 C 
HETATM   19  C   UNK N   1      29.549  18.206   4.702  0.00  0.00     0.016 C 
ENDROOT
BRANCH  17  20
HETATM   20  C   UNK N   1      34.997  15.107   7.397  0.00  0.00     0.128 C 
HETATM   21  C   UNK N   1      35.482  14.966   5.991  0.00  0.00     0.091 C 
HETATM   22  O   UNK N   1      35.791  14.978   8.316  0.00  0.00    -0.298 OA
ENDBRANCH  17  20
BRANCH   2  23
HETATM   23  O   UNK N   1      25.538  17.617   3.355  0.00  0.00    -0.396 OA
HETATM   24  H   UNK N   1      24.734  17.287   3.786  0.00  0.00     0.210 HD
ENDBRANCH   2  23
TORSDOF 2
ENDMDL
MODEL 9
REMARK VINA RESULT:      -6.4      1.471      2.891
REMARK  2 active torsions:
REMARK  status: ('A' for Active; 'I' for Inactive)
REMARK    1  A    between atoms: C_2  and  O_18 
REMARK    2  A    between atoms: C_17  and  C_20 
ROOT
HETATM    1  C   UNK N   1      33.272  21.710  -6.363  0.00  0.00     0.032 C 
HETATM    2  C   UNK N   1      33.258  20.667  -5.249  0.00  0.00     0.118 C 
HETATM    3  C   UNK N   1      33.006  21.296  -3.873  0.00  0.00     0.037 C 
HETATM    4  C   UNK N   1      31.977  22.443  -3.901  0.00  0.00    -0.004 C 
HETATM    5  C   UNK N   1      31.071  22.399  -5.167  0.00  0.00    -0.036 C 
HETATM    6  C   UNK N   1      31.974  22.542  -6.412  0.00  0.00     0.012 C 
HETATM    7  C   UNK N   1      31.155  22.412  -2.606  0.00  0.00     0.006 C 
HETATM    8  C   UNK N   1      30.120  23.539  -2.574  0.00  0.00     0.006 C 
HETATM    9  C   UNK N   1      29.202  23.447  -3.796  0.00  0.00    -0.005 C 
HETATM   10  C   UNK N   1      30.040  23.563  -5.103  0.00  0.00    -0.002 C 
HETATM   11  C   UNK N   1      28.057  24.478  -3.761  0.00  0.00    -0.001 C 
HETATM   12  C   UNK N   1      27.144  24.386  -5.021  0.00  0.00    -0.030 C 
HETATM   13  C   UNK N   1      27.665  23.405  -6.084  0.00  0.00     0.011 C 
HETATM   14  C   UNK N   1      29.155  23.615  -6.369  0.00  0.00     0.006 C 
HETATM   15  C   UNK N   1      28.518  25.933  -3.693  0.00  0.00     0.006 C 
HETATM   16  C   UNK N   1      27.409  26.704  -4.380  0.00  0.00     0.013 C 
HETATM   17  C   UNK N   1      27.146  25.817  -5.574  0.00  0.00     0.063 C 
HETATM   18  C   UNK N   1      25.744  23.938  -4.606  0.00  0.00     0.016 C 
HETATM   19  C   UNK N   1      30.323  21.059  -5.265  0.00  0.00     0.016 C 
ENDROOT
BRANCH  17  20
HETATM   20  C   UNK N   1      25.985  26.187  -6.466  0.00  0.00     0.128 C 
HETATM   21  C   UNK N   1      24.812  26.946  -5.937  0.00  0.00     0.091 C 
HETATM   22  O   UNK N   1      26.004  25.865  -7.643  0.00  0.00    -0.298 OA
ENDBRANCH  17  20
BRANCH   2  23
HETATM   23  O   UNK N   1      34.445  19.939  -5.238  0.00  0.00    -0.396 OA
HETATM   24  H   UNK N   1      34.548  19.163  -5.812  0.00  0.00     0.210 HD
ENDBRANCH   2  23
TORSDOF 2
ENDMDL
