REMARK  4 active torsions:
REMARK  status: ('A' for Active; 'I' for Inactive)
REMARK    1  A    between atoms: C_6  and  C_7 
REMARK    2  A    between atoms: C_7  and  O_9 
REMARK    3  A    between atoms: N_16  and  C_23 
REMARK    4  A    between atoms: C_17  and  C_18 
ROOT
HETATM    1  C   UNK N   1      -0.151   1.375   0.278  0.00  0.00     0.053 A 
HETATM    2  C   UNK N   1      -1.442   0.922   0.489  0.00  0.00     0.033 A 
HETATM    3  C   UNK N   1      -2.519   1.753   0.226  0.00  0.00     0.027 A 
HETATM    4  C   UNK N   1      -2.304   3.057  -0.233  0.00  0.00     0.066 A 
HETATM    5  C   UNK N   1      -0.997   3.539  -0.420  0.00  0.00     0.057 A 
HETATM    6  C   UNK N   1       0.072   2.690  -0.169  0.00  0.00     0.056 A 
HETATM    7 Cl   UNK N   1      -0.666   5.184  -0.964  0.00  0.00    -0.083 Cl
HETATM    8  C   UNK N   1      -3.443   3.860  -0.539  0.00  0.00     0.101 C 
HETATM    9  N   UNK N   1      -4.392   4.476  -0.774  0.00  0.00    -0.191 NA
ENDROOT
BRANCH   1  10
HETATM   10  N   UNK N   1       0.947   0.564   0.595  0.00  0.00    -0.286 N 
HETATM   11  N   UNK N   1       2.189   1.078   0.499  0.00  0.00    -0.301 N 
HETATM   12  C   UNK N   1       3.031   0.354   1.078  0.00  0.00     0.043 A 
ATOM     13  HN  UNK N   1       2.415   1.947   0.015  1.00  0.00     0.187 HD
HETATM   14  C   UNK N   1       2.416  -0.873   1.693  0.00  0.00     0.063 A 
HETATM   15  C   UNK N   1       4.378   0.398   0.609  0.00  0.00    -0.005 A 
HETATM   16  C   UNK N   1       3.223  -2.158   1.466  0.00  0.00     0.018 C 
HETATM   17  C   UNK N   1       0.931  -0.730   1.272  0.00  0.00     0.122 A 
HETATM   18  C   UNK N   1       4.111  -2.072   0.220  0.00  0.00     0.040 C 
HETATM   19  C   UNK N   1       4.944  -0.811   0.208  0.00  0.00    -0.045 A 
HETATM   20  C   UNK N   1       6.240  -0.822  -0.286  0.00  0.00     0.026 A 
HETATM   21  C   UNK N   1       6.966   0.376  -0.369  0.00  0.00     0.038 A 
HETATM   22  C   UNK N   1       6.360   1.593  -0.024  0.00  0.00     0.019 A 
HETATM   23  C   UNK N   1       5.054   1.608   0.447  0.00  0.00     0.015 A 
BRANCH  21  24
HETATM   24  C   UNK N   1       8.384   0.347  -0.731  0.00  0.00     0.176 C 
HETATM   25  O   UNK N   1       8.913  -0.703  -1.057  0.00  0.00    -0.646 OA
BRANCH  24  26
HETATM   26  O   UNK N   1       9.129   1.464  -0.620  0.00  0.00    -0.773 OA
HETATM   27  H   UNK N   1      10.061   1.403  -0.543  0.00  0.00     0.167 HD
ENDBRANCH  24  26
ENDBRANCH  21  24
BRANCH  17  28
HETATM   28  C   UNK N   1       0.235  -1.949   0.599  0.00  0.00     0.011 C 
HETATM   29  C   UNK N   1       0.373  -2.194  -0.893  0.00  0.00     0.007 C 
HETATM   30  C   UNK N   1      -0.816  -3.090  -1.214  0.00  0.00     0.000 C 
HETATM   31  C   UNK N   1      -1.929  -2.628  -0.292  0.00  0.00     0.000 C 
HETATM   32  C   UNK N   1      -1.249  -1.981   0.900  0.00  0.00     0.007 C 
ENDBRANCH  17  28
ENDBRANCH   1  10
TORSDOF 4
