MODEL 1
REMARK VINA RESULT:      -6.2      0.000      0.000
REMARK  17 active torsions:
REMARK  status: ('A' for Active; 'I' for Inactive)
REMARK    1  A    between atoms: C_2  and  C_3 
REMARK    2  A    between atoms: C_3  and  C_4 
REMARK    3  A    between atoms: C_4  and  O_5 
REMARK    4  A    between atoms: O_5  and  C_6 
REMARK    5  A    between atoms: C_6  and  C_7 
REMARK    6  A    between atoms: C_7  and  O_8 
REMARK    7  A    between atoms: O_8  and  C_9 
REMARK    8  A    between atoms: C_12  and  C_15 
REMARK    9  A    between atoms: C_22  and  C_31 
REMARK   10  A    between atoms: N_26  and  C_27 
REMARK   11  A    between atoms: C_27  and  C_28 
REMARK       I    between atoms: C_31  and  N_33 
REMARK   12  A    between atoms: N_33  and  C_34 
REMARK   13  A    between atoms: C_37  and  S_40 
REMARK   14  A    between atoms: S_40  and  C_41 
REMARK   15  A    between atoms: C_41  and  C_42 
REMARK   16  A    between atoms: N_47  and  C_48 
REMARK   17  A    between atoms: C_48  and  C_49 
ROOT
HETATM    1  C   UNK N   1      27.201  13.919   2.641  0.00  0.00    -0.025 A 
HETATM    2  C   UNK N   1      28.465  14.206   2.106  0.00  0.00     0.014 A 
HETATM    3  C   UNK N   1      29.360  15.018   2.815  0.00  0.00     0.031 A 
HETATM    4  C   UNK N   1      29.022  15.543   4.080  0.00  0.00     0.040 A 
HETATM    5  C   UNK N   1      27.737  15.222   4.613  0.00  0.00    -0.008 A 
HETATM    6  C   UNK N   1      26.858  14.429   3.896  0.00  0.00     0.026 A 
HETATM    7  C   UNK N   1      27.307  15.816   5.880  0.00  0.00     0.026 C 
HETATM    8  C   UNK N   1      27.074  17.140   5.954  0.00  0.00     0.011 C 
HETATM    9  C   UNK N   1      27.814  17.791   7.070  0.00  0.00     0.046 C 
HETATM   10  C   UNK N   1      29.297  17.928   6.649  0.00  0.00     0.025 C 
HETATM   11  C   UNK N   1      29.929  16.583   6.229  0.00  0.00     0.123 C 
HETATM   12  N   UNK N   1      29.971  16.390   4.780  0.00  0.00    -0.380 N 
ENDROOT
BRANCH   8  13
HETATM   13  C   UNK N   1      26.796  17.935   4.710  0.00  0.00     0.252 C 
HETATM   14  O   UNK N   1      27.503  18.888   4.430  0.00  0.00    -0.268 OA
HETATM   15  N   UNK N   1      25.731  17.647   3.911  0.00  0.00    -0.323 N 
HETATM   16  H   UNK N   1      25.844  17.640   2.933  0.00  0.00     0.169 HD
BRANCH  15  17
HETATM   17  C   UNK N   1      24.462  17.354   4.474  0.00  0.00     0.035 A 
HETATM   18  C   UNK N   1      23.733  18.289   5.222  0.00  0.00     0.031 A 
HETATM   19  C   UNK N   1      22.499  17.920   5.789  0.00  0.00     0.023 A 
HETATM   20  C   UNK N   1      22.031  16.602   5.649  0.00  0.00     0.032 A 
HETATM   21  C   UNK N   1      22.786  15.668   4.951  0.00  0.00     0.023 A 
HETATM   22  C   UNK N   1      23.987  16.042   4.365  0.00  0.00     0.031 A 
BRANCH  20  23
HETATM   23  S   UNK N   1      20.442  16.093   6.307  0.00  0.00     0.055 S 
HETATM   24  O   UNK N   1      20.323  15.468   7.904  0.00  0.00    -0.252 OA
BRANCH  23  25
HETATM   25  C   UNK N   1      19.003  15.924   5.188  0.00  0.00     0.172 C 
BRANCH  25  26
HETATM   26  C   UNK N   1      19.468  15.671   3.786  0.00  0.00     0.040 A 
HETATM   27  C   UNK N   1      19.637  14.436   3.210  0.00  0.00     0.115 A 
HETATM   28  N   UNK N   1      20.061  14.627   1.938  0.00  0.00    -0.360 N 
HETATM   29  C   UNK N   1      20.134  15.962   1.765  0.00  0.00     0.183 A 
ATOM     30  HN  UNK N   1      20.280  13.907   1.249  1.00  0.00     0.166 HD
HETATM   31  N   UNK N   1      19.775  16.621   2.886  0.00  0.00    -0.344 N 
BRANCH  31  32
HETATM   32  C   UNK N   1      19.699  18.059   3.056  0.00  0.00     0.129 C 
BRANCH  32  33
HETATM   33  C   UNK N   1      21.013  18.706   2.663  0.00  0.00     0.016 C 
HETATM   34  C   UNK N   1      20.750  19.846   1.704  0.00  0.00     0.006 C 
ENDBRANCH  32  33
ENDBRANCH  31  32
ENDBRANCH  25  26
ENDBRANCH  23  25
ENDBRANCH  20  23
ENDBRANCH  15  17
ENDBRANCH   8  13
BRANCH  12  35
HETATM   35  C   UNK N   1      31.045  17.022   4.027  0.00  0.00     0.126 C 
BRANCH  35  36
HETATM   36  C   UNK N   1      32.440  16.469   4.336  0.00  0.00    -0.005 C 
HETATM   37  C   UNK N   1      33.160  15.951   3.106  0.00  0.00     0.011 C 
HETATM   38  C   UNK N   1      33.298  17.470   5.085  0.00  0.00     0.011 C 
ENDBRANCH  35  36
ENDBRANCH  12  35
BRANCH   1  39
HETATM   39  C   UNK N   1      26.183  13.157   1.887  0.00  0.00    -0.026 A 
HETATM   40  C   UNK N   1      25.026  13.821   1.460  0.00  0.00     0.015 A 
HETATM   41  C   UNK N   1      24.052  13.165   0.721  0.00  0.00     0.037 A 
HETATM   42  C   UNK N   1      24.203  11.821   0.400  0.00  0.00     0.068 A 
HETATM   43  C   UNK N   1      25.365  11.139   0.817  0.00  0.00     0.037 A 
HETATM   44  C   UNK N   1      26.354  11.805   1.553  0.00  0.00     0.015 A 
BRANCH  42  45
HETATM   45  O   UNK N   1      23.216  11.218  -0.304  0.00  0.00    -0.349 OA
BRANCH  45  46
HETATM   46  C   UNK N   1      22.474  10.146   0.140  0.00  0.00     0.201 C 
BRANCH  46  47
HETATM   47  C   UNK N   1      21.048  10.557   0.514  0.00  0.00     0.194 C 
BRANCH  47  48
HETATM   48  O   UNK N   1      21.033  11.612   1.440  0.00  0.00    -0.389 OA
BRANCH  48  49
HETATM   49  C   UNK N   1      21.214  11.034   2.705  0.00  0.00     0.167 C 
BRANCH  49  50
HETATM   50  C   UNK N   1      22.139  11.868   3.566  0.00  0.00     0.026 C 
BRANCH  50  51
HETATM   51  C   UNK N   1      23.368  11.068   3.938  0.00  0.00    -0.002 C 
HETATM   52  C   UNK N   1      24.269  11.917   4.807  0.00  0.00     0.005 C 
ENDBRANCH  50  51
ENDBRANCH  49  50
ENDBRANCH  48  49
ENDBRANCH  47  48
ENDBRANCH  46  47
ENDBRANCH  45  46
ENDBRANCH  42  45
ENDBRANCH   1  39
TORSDOF 17
ENDMDL
MODEL 2
REMARK VINA RESULT:      -6.0      2.172      3.298
REMARK  17 active torsions:
REMARK  status: ('A' for Active; 'I' for Inactive)
REMARK    1  A    between atoms: C_2  and  C_3 
REMARK    2  A    between atoms: C_3  and  C_4 
REMARK    3  A    between atoms: C_4  and  O_5 
REMARK    4  A    between atoms: O_5  and  C_6 
REMARK    5  A    between atoms: C_6  and  C_7 
REMARK    6  A    between atoms: C_7  and  O_8 
REMARK    7  A    between atoms: O_8  and  C_9 
REMARK    8  A    between atoms: C_12  and  C_15 
REMARK    9  A    between atoms: C_22  and  C_31 
REMARK   10  A    between atoms: N_26  and  C_27 
REMARK   11  A    between atoms: C_27  and  C_28 
REMARK       I    between atoms: C_31  and  N_33 
REMARK   12  A    between atoms: N_33  and  C_34 
REMARK   13  A    between atoms: C_37  and  S_40 
REMARK   14  A    between atoms: S_40  and  C_41 
REMARK   15  A    between atoms: C_41  and  C_42 
REMARK   16  A    between atoms: N_47  and  C_48 
REMARK   17  A    between atoms: C_48  and  C_49 
ROOT
HETATM    1  C   UNK N   1      28.730  14.013   4.647  0.00  0.00    -0.025 A 
HETATM    2  C   UNK N   1      30.121  14.090   4.800  0.00  0.00     0.014 A 
HETATM    3  C   UNK N   1      30.685  15.069   5.628  0.00  0.00     0.031 A 
HETATM    4  C   UNK N   1      29.872  15.978   6.338  0.00  0.00     0.040 A 
HETATM    5  C   UNK N   1      28.457  15.869   6.182  0.00  0.00    -0.008 A 
HETATM    6  C   UNK N   1      27.916  14.905   5.350  0.00  0.00     0.026 A 
HETATM    7  C   UNK N   1      27.578  16.845   6.827  0.00  0.00     0.026 C 
HETATM    8  C   UNK N   1      27.585  18.127   6.416  0.00  0.00     0.011 C 
HETATM    9  C   UNK N   1      27.787  19.088   7.536  0.00  0.00     0.046 C 
HETATM   10  C   UNK N   1      29.283  19.054   7.936  0.00  0.00     0.025 C 
HETATM   11  C   UNK N   1      29.780  17.634   8.281  0.00  0.00     0.123 C 
HETATM   12  N   UNK N   1      30.492  16.986   7.179  0.00  0.00    -0.380 N 
ENDROOT
BRANCH   8  13
HETATM   13  C   UNK N   1      28.105  18.487   5.053  0.00  0.00     0.252 C 
HETATM   14  O   UNK N   1      29.152  19.104   4.948  0.00  0.00    -0.268 OA
HETATM   15  N   UNK N   1      27.400  18.187   3.927  0.00  0.00    -0.323 N 
HETATM   16  H   UNK N   1      27.868  17.820   3.143  0.00  0.00     0.169 HD
BRANCH  15  17
HETATM   17  C   UNK N   1      25.997  18.396   3.874  0.00  0.00     0.035 A 
HETATM   18  C   UNK N   1      25.072  17.356   4.034  0.00  0.00     0.031 A 
HETATM   19  C   UNK N   1      23.694  17.624   3.927  0.00  0.00     0.023 A 
HETATM   20  C   UNK N   1      23.257  18.920   3.606  0.00  0.00     0.032 A 
HETATM   21  C   UNK N   1      24.184  19.934   3.397  0.00  0.00     0.023 A 
HETATM   22  C   UNK N   1      25.541  19.675   3.535  0.00  0.00     0.031 A 
BRANCH  20  23
HETATM   23  S   UNK N   1      21.514  19.328   3.509  0.00  0.00     0.055 S 
HETATM   24  O   UNK N   1      21.006  20.969   3.461  0.00  0.00    -0.252 OA
BRANCH  23  25
HETATM   25  C   UNK N   1      20.255  18.027   3.790  0.00  0.00     0.172 C 
BRANCH  25  26
HETATM   26  C   UNK N   1      20.152  17.143   2.585  0.00  0.00     0.040 A 
HETATM   27  C   UNK N   1      20.163  17.566   1.278  0.00  0.00     0.115 A 
HETATM   28  N   UNK N   1      20.057  16.471   0.488  0.00  0.00    -0.360 N 
HETATM   29  C   UNK N   1      19.992  15.414   1.321  0.00  0.00     0.183 A 
ATOM     30  HN  UNK N   1      20.032  16.450  -0.532  1.00  0.00     0.166 HD
HETATM   31  N   UNK N   1      20.048  15.803   2.611  0.00  0.00    -0.344 N 
BRANCH  31  32
HETATM   32  C   UNK N   1      20.041  14.939   3.775  0.00  0.00     0.129 C 
BRANCH  32  33
HETATM   33  C   UNK N   1      21.459  14.567   4.164  0.00  0.00     0.016 C 
HETATM   34  C   UNK N   1      21.615  13.062   4.130  0.00  0.00     0.006 C 
ENDBRANCH  32  33
ENDBRANCH  31  32
ENDBRANCH  25  26
ENDBRANCH  23  25
ENDBRANCH  20  23
ENDBRANCH  15  17
ENDBRANCH   8  13
BRANCH  12  35
HETATM   35  C   UNK N   1      31.892  17.323   6.965  0.00  0.00     0.126 C 
BRANCH  35  36
HETATM   36  C   UNK N   1      32.736  17.348   8.244  0.00  0.00    -0.005 C 
HETATM   37  C   UNK N   1      33.008  15.965   8.804  0.00  0.00     0.011 C 
HETATM   38  C   UNK N   1      34.027  18.122   8.060  0.00  0.00     0.011 C 
ENDBRANCH  35  36
ENDBRANCH  12  35
BRANCH   1  39
HETATM   39  C   UNK N   1      28.093  13.069   3.704  0.00  0.00    -0.026 A 
HETATM   40  C   UNK N   1      28.367  13.199   2.336  0.00  0.00     0.015 A 
HETATM   41  C   UNK N   1      27.823  12.322   1.408  0.00  0.00     0.037 A 
HETATM   42  C   UNK N   1      26.980  11.297   1.824  0.00  0.00     0.068 A 
HETATM   43  C   UNK N   1      26.700  11.149   3.198  0.00  0.00     0.037 A 
HETATM   44  C   UNK N   1      27.258  12.028   4.136  0.00  0.00     0.015 A 
BRANCH  42  45
HETATM   45  O   UNK N   1      26.456  10.480   0.879  0.00  0.00    -0.349 OA
BRANCH  45  46
HETATM   46  C   UNK N   1      25.382   9.641   1.072  0.00  0.00     0.201 C 
BRANCH  46  47
HETATM   47  C   UNK N   1      24.064  10.299   0.656  0.00  0.00     0.194 C 
BRANCH  47  48
HETATM   48  O   UNK N   1      24.192  11.012  -0.547  0.00  0.00    -0.389 OA
BRANCH  48  49
HETATM   49  C   UNK N   1      23.432  12.182  -0.398  0.00  0.00     0.167 C 
BRANCH  49  50
HETATM   50  C   UNK N   1      23.558  12.746   1.002  0.00  0.00     0.026 C 
BRANCH  50  51
HETATM   51  C   UNK N   1      24.369  14.024   0.978  0.00  0.00    -0.002 C 
HETATM   52  C   UNK N   1      24.841  14.338   2.380  0.00  0.00     0.005 C 
ENDBRANCH  50  51
ENDBRANCH  49  50
ENDBRANCH  48  49
ENDBRANCH  47  48
ENDBRANCH  46  47
ENDBRANCH  45  46
ENDBRANCH  42  45
ENDBRANCH   1  39
TORSDOF 17
ENDMDL
MODEL 3
REMARK VINA RESULT:      -6.0      1.728      2.768
REMARK  17 active torsions:
REMARK  status: ('A' for Active; 'I' for Inactive)
REMARK    1  A    between atoms: C_2  and  C_3 
REMARK    2  A    between atoms: C_3  and  C_4 
REMARK    3  A    between atoms: C_4  and  O_5 
REMARK    4  A    between atoms: O_5  and  C_6 
REMARK    5  A    between atoms: C_6  and  C_7 
REMARK    6  A    between atoms: C_7  and  O_8 
REMARK    7  A    between atoms: O_8  and  C_9 
REMARK    8  A    between atoms: C_12  and  C_15 
REMARK    9  A    between atoms: C_22  and  C_31 
REMARK   10  A    between atoms: N_26  and  C_27 
REMARK   11  A    between atoms: C_27  and  C_28 
REMARK       I    between atoms: C_31  and  N_33 
REMARK   12  A    between atoms: N_33  and  C_34 
REMARK   13  A    between atoms: C_37  and  S_40 
REMARK   14  A    between atoms: S_40  and  C_41 
REMARK   15  A    between atoms: C_41  and  C_42 
REMARK   16  A    between atoms: N_47  and  C_48 
REMARK   17  A    between atoms: C_48  and  C_49 
ROOT
HETATM    1  C   UNK N   1      28.638  13.622   4.355  0.00  0.00    -0.025 A 
HETATM    2  C   UNK N   1      30.021  13.724   4.145  0.00  0.00     0.014 A 
HETATM    3  C   UNK N   1      30.768  14.684   4.840  0.00  0.00     0.031 A 
HETATM    4  C   UNK N   1      30.156  15.547   5.774  0.00  0.00     0.040 A 
HETATM    5  C   UNK N   1      28.750  15.412   5.985  0.00  0.00    -0.008 A 
HETATM    6  C   UNK N   1      28.023  14.468   5.281  0.00  0.00     0.026 A 
HETATM    7  C   UNK N   1      28.056  16.343   6.876  0.00  0.00     0.026 C 
HETATM    8  C   UNK N   1      27.941  17.639   6.531  0.00  0.00     0.011 C 
HETATM    9  C   UNK N   1      28.415  18.562   7.601  0.00  0.00     0.046 C 
HETATM   10  C   UNK N   1      29.963  18.548   7.598  0.00  0.00     0.025 C 
HETATM   11  C   UNK N   1      30.550  17.127   7.742  0.00  0.00     0.123 C 
HETATM   12  N   UNK N   1      30.960  16.537   6.467  0.00  0.00    -0.380 N 
ENDROOT
BRANCH   8  13
HETATM   13  C   UNK N   1      28.085  18.062   5.097  0.00  0.00     0.252 C 
HETATM   14  O   UNK N   1      29.036  18.746   4.760  0.00  0.00    -0.268 OA
HETATM   15  N   UNK N   1      27.140  17.743   4.169  0.00  0.00    -0.323 N 
HETATM   16  H   UNK N   1      27.419  17.424   3.280  0.00  0.00     0.169 HD
BRANCH  15  17
HETATM   17  C   UNK N   1      25.759  17.862   4.470  0.00  0.00     0.035 A 
HETATM   18  C   UNK N   1      25.071  19.081   4.390  0.00  0.00     0.031 A 
HETATM   19  C   UNK N   1      23.710  19.139   4.744  0.00  0.00     0.023 A 
HETATM   20  C   UNK N   1      23.064  17.989   5.229  0.00  0.00     0.032 A 
HETATM   21  C   UNK N   1      23.768  16.798   5.355  0.00  0.00     0.023 A 
HETATM   22  C   UNK N   1      25.102  16.735   4.975  0.00  0.00     0.031 A 
BRANCH  20  23
HETATM   23  S   UNK N   1      21.320  17.995   5.646  0.00  0.00     0.055 S 
HETATM   24  O   UNK N   1      20.778  18.720   7.106  0.00  0.00    -0.252 OA
BRANCH  23  25
HETATM   25  C   UNK N   1      20.151  16.951   4.697  0.00  0.00     0.172 C 
BRANCH  25  26
HETATM   26  C   UNK N   1      20.129  17.380   3.261  0.00  0.00     0.040 A 
HETATM   27  C   UNK N   1      20.226  18.674   2.810  0.00  0.00     0.115 A 
HETATM   28  N   UNK N   1      20.173  18.646   1.457  0.00  0.00    -0.360 N 
HETATM   29  C   UNK N   1      20.053  17.348   1.115  0.00  0.00     0.183 A 
ATOM     30  HN  UNK N   1      20.216  19.445   0.825  1.00  0.00     0.166 HD
HETATM   31  N   UNK N   1      20.024  16.555   2.206  0.00  0.00    -0.344 N 
BRANCH  31  32
HETATM   32  C   UNK N   1      19.940  15.107   2.219  0.00  0.00     0.129 C 
BRANCH  32  33
HETATM   33  C   UNK N   1      20.096  14.558   0.814  0.00  0.00     0.016 C 
HETATM   34  C   UNK N   1      19.523  13.159   0.751  0.00  0.00     0.006 C 
ENDBRANCH  32  33
ENDBRANCH  31  32
ENDBRANCH  25  26
ENDBRANCH  23  25
ENDBRANCH  20  23
ENDBRANCH  15  17
ENDBRANCH   8  13
BRANCH  12  35
HETATM   35  C   UNK N   1      32.252  16.914   5.913  0.00  0.00     0.126 C 
BRANCH  35  36
HETATM   36  C   UNK N   1      33.447  16.556   6.803  0.00  0.00    -0.005 C 
HETATM   37  C   UNK N   1      34.473  15.687   6.101  0.00  0.00     0.011 C 
HETATM   38  C   UNK N   1      34.100  17.786   7.403  0.00  0.00     0.011 C 
ENDBRANCH  35  36
ENDBRANCH  12  35
BRANCH   1  39
HETATM   39  C   UNK N   1      27.791  12.700   3.569  0.00  0.00    -0.026 A 
HETATM   40  C   UNK N   1      28.143  12.430   2.240  0.00  0.00     0.015 A 
HETATM   41  C   UNK N   1      27.403  11.548   1.465  0.00  0.00     0.037 A 
HETATM   42  C   UNK N   1      26.282  10.920   1.997  0.00  0.00     0.068 A 
HETATM   43  C   UNK N   1      25.918  11.176   3.335  0.00  0.00     0.037 A 
HETATM   44  C   UNK N   1      26.671  12.058   4.121  0.00  0.00     0.015 A 
BRANCH  42  45
HETATM   45  O   UNK N   1      25.579  10.085   1.195  0.00  0.00    -0.349 OA
BRANCH  45  46
HETATM   46  C   UNK N   1      24.822  10.480   0.116  0.00  0.00     0.201 C 
BRANCH  46  47
HETATM   47  C   UNK N   1      23.399  10.863   0.529  0.00  0.00     0.194 C 
BRANCH  47  48
HETATM   48  O   UNK N   1      23.076  12.174   0.145  0.00  0.00    -0.389 OA
BRANCH  48  49
HETATM   49  C   UNK N   1      23.289  12.982   1.273  0.00  0.00     0.167 C 
BRANCH  49  50
HETATM   50  C   UNK N   1      24.079  14.224   0.919  0.00  0.00     0.026 C 
BRANCH  50  51
HETATM   51  C   UNK N   1      24.939  14.647   2.090  0.00  0.00    -0.002 C 
HETATM   52  C   UNK N   1      26.119  15.442   1.578  0.00  0.00     0.005 C 
ENDBRANCH  50  51
ENDBRANCH  49  50
ENDBRANCH  48  49
ENDBRANCH  47  48
ENDBRANCH  46  47
ENDBRANCH  45  46
ENDBRANCH  42  45
ENDBRANCH   1  39
TORSDOF 17
ENDMDL
MODEL 4
REMARK VINA RESULT:      -6.0      1.309      2.085
REMARK  17 active torsions:
REMARK  status: ('A' for Active; 'I' for Inactive)
REMARK    1  A    between atoms: C_2  and  C_3 
REMARK    2  A    between atoms: C_3  and  C_4 
REMARK    3  A    between atoms: C_4  and  O_5 
REMARK    4  A    between atoms: O_5  and  C_6 
REMARK    5  A    between atoms: C_6  and  C_7 
REMARK    6  A    between atoms: C_7  and  O_8 
REMARK    7  A    between atoms: O_8  and  C_9 
REMARK    8  A    between atoms: C_12  and  C_15 
REMARK    9  A    between atoms: C_22  and  C_31 
REMARK   10  A    between atoms: N_26  and  C_27 
REMARK   11  A    between atoms: C_27  and  C_28 
REMARK       I    between atoms: C_31  and  N_33 
REMARK   12  A    between atoms: N_33  and  C_34 
REMARK   13  A    between atoms: C_37  and  S_40 
REMARK   14  A    between atoms: S_40  and  C_41 
REMARK   15  A    between atoms: C_41  and  C_42 
REMARK   16  A    between atoms: N_47  and  C_48 
REMARK   17  A    between atoms: C_48  and  C_49 
ROOT
HETATM    1  C   UNK N   1      27.786  13.475   3.311  0.00  0.00    -0.025 A 
HETATM    2  C   UNK N   1      29.141  13.317   2.987  0.00  0.00     0.014 A 
HETATM    3  C   UNK N   1      30.127  13.942   3.762  0.00  0.00     0.031 A 
HETATM    4  C   UNK N   1      29.784  14.720   4.887  0.00  0.00     0.040 A 
HETATM    5  C   UNK N   1      28.399  14.853   5.209  0.00  0.00    -0.008 A 
HETATM    6  C   UNK N   1      27.436  14.239   4.426  0.00  0.00     0.026 A 
HETATM    7  C   UNK N   1      27.989  15.722   6.313  0.00  0.00     0.026 C 
HETATM    8  C   UNK N   1      28.155  17.054   6.213  0.00  0.00     0.011 C 
HETATM    9  C   UNK N   1      28.888  17.630   7.375  0.00  0.00     0.046 C 
HETATM   10  C   UNK N   1      30.388  17.284   7.216  0.00  0.00     0.025 C 
HETATM   11  C   UNK N   1      30.642  15.770   7.052  0.00  0.00     0.123 C 
HETATM   12  N   UNK N   1      30.832  15.362   5.660  0.00  0.00    -0.380 N 
ENDROOT
BRANCH   8  13
HETATM   13  C   UNK N   1      28.309  17.704   4.867  0.00  0.00     0.252 C 
HETATM   14  O   UNK N   1      29.306  18.362   4.624  0.00  0.00    -0.268 OA
HETATM   15  N   UNK N   1      27.329  17.619   3.925  0.00  0.00    -0.323 N 
HETATM   16  H   UNK N   1      27.569  17.436   2.988  0.00  0.00     0.169 HD
BRANCH  15  17
HETATM   17  C   UNK N   1      25.966  17.788   4.282  0.00  0.00     0.035 A 
HETATM   18  C   UNK N   1      25.417  19.038   4.598  0.00  0.00     0.031 A 
HETATM   19  C   UNK N   1      24.067  19.130   4.985  0.00  0.00     0.023 A 
HETATM   20  C   UNK N   1      23.293  17.964   5.106  0.00  0.00     0.032 A 
HETATM   21  C   UNK N   1      23.861  16.723   4.842  0.00  0.00     0.023 A 
HETATM   22  C   UNK N   1      25.183  16.637   4.429  0.00  0.00     0.031 A 
BRANCH  20  23
HETATM   23  S   UNK N   1      21.556  18.029   5.545  0.00  0.00     0.055 S 
HETATM   24  O   UNK N   1      21.051  18.836   6.977  0.00  0.00    -0.252 OA
BRANCH  23  25
HETATM   25  C   UNK N   1      20.351  16.969   4.663  0.00  0.00     0.172 C 
BRANCH  25  26
HETATM   26  C   UNK N   1      20.242  17.397   3.231  0.00  0.00     0.040 A 
HETATM   27  C   UNK N   1      19.885  18.650   2.795  0.00  0.00     0.115 A 
HETATM   28  N   UNK N   1      19.908  18.639   1.441  0.00  0.00    -0.360 N 
HETATM   29  C   UNK N   1      20.282  17.394   1.084  0.00  0.00     0.183 A 
ATOM     30  HN  UNK N   1      19.688  19.415   0.817  1.00  0.00     0.166 HD
HETATM   31  N   UNK N   1      20.491  16.616   2.166  0.00  0.00    -0.344 N 
BRANCH  31  32
HETATM   32  C   UNK N   1      20.936  15.237   2.165  0.00  0.00     0.129 C 
BRANCH  32  33
HETATM   33  C   UNK N   1      19.788  14.313   1.808  0.00  0.00     0.016 C 
HETATM   34  C   UNK N   1      19.314  13.590   3.050  0.00  0.00     0.006 C 
ENDBRANCH  32  33
ENDBRANCH  31  32
ENDBRANCH  25  26
ENDBRANCH  23  25
ENDBRANCH  20  23
ENDBRANCH  15  17
ENDBRANCH   8  13
BRANCH  12  35
HETATM   35  C   UNK N   1      32.142  15.552   5.055  0.00  0.00     0.126 C 
BRANCH  35  36
HETATM   36  C   UNK N   1      32.266  16.824   4.209  0.00  0.00    -0.005 C 
HETATM   37  C   UNK N   1      33.130  17.888   4.857  0.00  0.00     0.011 C 
HETATM   38  C   UNK N   1      32.737  16.528   2.799  0.00  0.00     0.011 C 
ENDBRANCH  35  36
ENDBRANCH  12  35
BRANCH   1  39
HETATM   39  C   UNK N   1      26.706  12.925   2.464  0.00  0.00    -0.026 A 
HETATM   40  C   UNK N   1      25.685  13.784   2.036  0.00  0.00     0.015 A 
HETATM   41  C   UNK N   1      24.663  13.330   1.214  0.00  0.00     0.037 A 
HETATM   42  C   UNK N   1      24.629  12.002   0.808  0.00  0.00     0.068 A 
HETATM   43  C   UNK N   1      25.652  11.126   1.225  0.00  0.00     0.037 A 
HETATM   44  C   UNK N   1      26.691  11.586   2.045  0.00  0.00     0.015 A 
BRANCH  42  45
HETATM   45  O   UNK N   1      23.599  11.600   0.024  0.00  0.00    -0.349 OA
BRANCH  45  46
HETATM   46  C   UNK N   1      22.310  12.075   0.112  0.00  0.00     0.201 C 
BRANCH  46  47
HETATM   47  C   UNK N   1      21.376  11.062   0.780  0.00  0.00     0.194 C 
BRANCH  47  48
HETATM   48  O   UNK N   1      22.051  10.267   1.719  0.00  0.00    -0.389 OA
BRANCH  48  49
HETATM   49  C   UNK N   1      21.681  10.748   2.985  0.00  0.00     0.167 C 
BRANCH  49  50
HETATM   50  C   UNK N   1      22.896  11.057   3.834  0.00  0.00     0.026 C 
BRANCH  50  51
HETATM   51  C   UNK N   1      22.880  12.510   4.257  0.00  0.00    -0.002 C 
HETATM   52  C   UNK N   1      24.049  12.770   5.181  0.00  0.00     0.005 C 
ENDBRANCH  50  51
ENDBRANCH  49  50
ENDBRANCH  48  49
ENDBRANCH  47  48
ENDBRANCH  46  47
ENDBRANCH  45  46
ENDBRANCH  42  45
ENDBRANCH   1  39
TORSDOF 17
ENDMDL
MODEL 5
REMARK VINA RESULT:      -5.8      2.547      5.890
REMARK  17 active torsions:
REMARK  status: ('A' for Active; 'I' for Inactive)
REMARK    1  A    between atoms: C_2  and  C_3 
REMARK    2  A    between atoms: C_3  and  C_4 
REMARK    3  A    between atoms: C_4  and  O_5 
REMARK    4  A    between atoms: O_5  and  C_6 
REMARK    5  A    between atoms: C_6  and  C_7 
REMARK    6  A    between atoms: C_7  and  O_8 
REMARK    7  A    between atoms: O_8  and  C_9 
REMARK    8  A    between atoms: C_12  and  C_15 
REMARK    9  A    between atoms: C_22  and  C_31 
REMARK   10  A    between atoms: N_26  and  C_27 
REMARK   11  A    between atoms: C_27  and  C_28 
REMARK       I    between atoms: C_31  and  N_33 
REMARK   12  A    between atoms: N_33  and  C_34 
REMARK   13  A    between atoms: C_37  and  S_40 
REMARK   14  A    between atoms: S_40  and  C_41 
REMARK   15  A    between atoms: C_41  and  C_42 
REMARK   16  A    between atoms: N_47  and  C_48 
REMARK   17  A    between atoms: C_48  and  C_49 
ROOT
HETATM    1  C   UNK N   1      27.349  18.308   3.913  0.00  0.00    -0.025 A 
HETATM    2  C   UNK N   1      28.249  18.847   4.842  0.00  0.00     0.014 A 
HETATM    3  C   UNK N   1      29.514  18.269   5.012  0.00  0.00     0.031 A 
HETATM    4  C   UNK N   1      29.915  17.155   4.246  0.00  0.00     0.040 A 
HETATM    5  C   UNK N   1      28.988  16.634   3.292  0.00  0.00    -0.008 A 
HETATM    6  C   UNK N   1      27.737  17.208   3.144  0.00  0.00     0.026 A 
HETATM    7  C   UNK N   1      29.325  15.425   2.538  0.00  0.00     0.026 C 
HETATM    8  C   UNK N   1      29.425  14.244   3.176  0.00  0.00     0.011 C 
HETATM    9  C   UNK N   1      30.713  13.549   2.898  0.00  0.00     0.046 C 
HETATM   10  C   UNK N   1      31.825  14.251   3.714  0.00  0.00     0.025 C 
HETATM   11  C   UNK N   1      31.904  15.769   3.441  0.00  0.00     0.123 C 
HETATM   12  N   UNK N   1      31.229  16.576   4.458  0.00  0.00    -0.380 N 
ENDROOT
BRANCH   8  13
HETATM   13  C   UNK N   1      28.770  14.042   4.513  0.00  0.00     0.252 C 
HETATM   14  O   UNK N   1      29.448  13.745   5.481  0.00  0.00    -0.268 OA
HETATM   15  N   UNK N   1      27.418  14.130   4.657  0.00  0.00    -0.323 N 
HETATM   16  H   UNK N   1      27.041  14.612   5.427  0.00  0.00     0.169 HD
BRANCH  15  17
HETATM   17  C   UNK N   1      26.549  13.535   3.706  0.00  0.00     0.035 A 
HETATM   18  C   UNK N   1      26.635  12.184   3.345  0.00  0.00     0.031 A 
HETATM   19  C   UNK N   1      25.769  11.667   2.363  0.00  0.00     0.023 A 
HETATM   20  C   UNK N   1      24.862  12.519   1.712  0.00  0.00     0.032 A 
HETATM   21  C   UNK N   1      24.820  13.869   2.039  0.00  0.00     0.023 A 
HETATM   22  C   UNK N   1      25.652  14.371   3.030  0.00  0.00     0.031 A 
BRANCH  20  23
HETATM   23  S   UNK N   1      23.702  11.903   0.491  0.00  0.00     0.055 S 
HETATM   24  O   UNK N   1      23.571  12.663  -1.045  0.00  0.00    -0.252 OA
BRANCH  23  25
HETATM   25  C   UNK N   1      22.426  10.683   0.979  0.00  0.00     0.172 C 
BRANCH  25  26
HETATM   26  C   UNK N   1      21.551  11.255   2.052  0.00  0.00     0.040 A 
HETATM   27  C   UNK N   1      21.606  10.932   3.386  0.00  0.00     0.115 A 
HETATM   28  N   UNK N   1      20.664  11.664   4.028  0.00  0.00    -0.360 N 
HETATM   29  C   UNK N   1      20.066  12.415   3.082  0.00  0.00     0.183 A 
ATOM     30  HN  UNK N   1      20.450  11.650   5.025  1.00  0.00     0.166 HD
HETATM   31  N   UNK N   1      20.595  12.180   1.864  0.00  0.00    -0.344 N 
BRANCH  31  32
HETATM   32  C   UNK N   1      20.225  12.831   0.622  0.00  0.00     0.129 C 
BRANCH  32  33
HETATM   33  C   UNK N   1      18.743  12.654   0.355  0.00  0.00     0.016 C 
HETATM   34  C   UNK N   1      18.113  14.002   0.080  0.00  0.00     0.006 C 
ENDBRANCH  32  33
ENDBRANCH  31  32
ENDBRANCH  25  26
ENDBRANCH  23  25
ENDBRANCH  20  23
ENDBRANCH  15  17
ENDBRANCH   8  13
BRANCH  12  35
HETATM   35  C   UNK N   1      31.934  16.858   5.700  0.00  0.00     0.126 C 
BRANCH  35  36
HETATM   36  C   UNK N   1      31.533  15.954   6.870  0.00  0.00    -0.005 C 
HETATM   37  C   UNK N   1      32.664  15.065   7.351  0.00  0.00     0.011 C 
HETATM   38  C   UNK N   1      30.936  16.741   8.021  0.00  0.00     0.011 C 
ENDBRANCH  35  36
ENDBRANCH  12  35
BRANCH   1  39
HETATM   39  C   UNK N   1      25.967  18.814   3.771  0.00  0.00    -0.026 A 
HETATM   40  C   UNK N   1      25.756  20.000   3.056  0.00  0.00     0.015 A 
HETATM   41  C   UNK N   1      24.478  20.506   2.864  0.00  0.00     0.037 A 
HETATM   42  C   UNK N   1      23.376  19.843   3.393  0.00  0.00     0.068 A 
HETATM   43  C   UNK N   1      23.571  18.644   4.109  0.00  0.00     0.037 A 
HETATM   44  C   UNK N   1      24.860  18.128   4.294  0.00  0.00     0.015 A 
BRANCH  42  45
HETATM   45  O   UNK N   1      22.151  20.386   3.198  0.00  0.00    -0.349 OA
BRANCH  45  46
HETATM   46  C   UNK N   1      21.214  19.917   2.305  0.00  0.00     0.201 C 
BRANCH  46  47
HETATM   47  C   UNK N   1      19.853  19.699   2.971  0.00  0.00     0.194 C 
BRANCH  47  48
HETATM   48  O   UNK N   1      19.500  18.341   3.011  0.00  0.00    -0.389 OA
BRANCH  48  49
HETATM   49  C   UNK N   1      20.192  17.719   1.960  0.00  0.00     0.167 C 
BRANCH  49  50
HETATM   50  C   UNK N   1      20.260  16.219   2.157  0.00  0.00     0.026 C 
BRANCH  50  51
HETATM   51  C   UNK N   1      21.647  15.815   2.608  0.00  0.00    -0.002 C 
HETATM   52  C   UNK N   1      21.636  15.591   4.104  0.00  0.00     0.005 C 
ENDBRANCH  50  51
ENDBRANCH  49  50
ENDBRANCH  48  49
ENDBRANCH  47  48
ENDBRANCH  46  47
ENDBRANCH  45  46
ENDBRANCH  42  45
ENDBRANCH   1  39
TORSDOF 17
ENDMDL
MODEL 6
REMARK VINA RESULT:      -5.7      8.572     13.658
REMARK  17 active torsions:
REMARK  status: ('A' for Active; 'I' for Inactive)
REMARK    1  A    between atoms: C_2  and  C_3 
REMARK    2  A    between atoms: C_3  and  C_4 
REMARK    3  A    between atoms: C_4  and  O_5 
REMARK    4  A    between atoms: O_5  and  C_6 
REMARK    5  A    between atoms: C_6  and  C_7 
REMARK    6  A    between atoms: C_7  and  O_8 
REMARK    7  A    between atoms: O_8  and  C_9 
REMARK    8  A    between atoms: C_12  and  C_15 
REMARK    9  A    between atoms: C_22  and  C_31 
REMARK   10  A    between atoms: N_26  and  C_27 
REMARK   11  A    between atoms: C_27  and  C_28 
REMARK       I    between atoms: C_31  and  N_33 
REMARK   12  A    between atoms: N_33  and  C_34 
REMARK   13  A    between atoms: C_37  and  S_40 
REMARK   14  A    between atoms: S_40  and  C_41 
REMARK   15  A    between atoms: C_41  and  C_42 
REMARK   16  A    between atoms: N_47  and  C_48 
REMARK   17  A    between atoms: C_48  and  C_49 
ROOT
HETATM    1  C   UNK N   1      35.936  14.665  10.877  0.00  0.00    -0.025 A 
HETATM    2  C   UNK N   1      35.993  15.156  12.189  0.00  0.00     0.014 A 
HETATM    3  C   UNK N   1      36.353  14.306  13.243  0.00  0.00     0.031 A 
HETATM    4  C   UNK N   1      36.684  12.955  13.007  0.00  0.00     0.040 A 
HETATM    5  C   UNK N   1      36.637  12.481  11.661  0.00  0.00    -0.008 A 
HETATM    6  C   UNK N   1      36.268  13.330  10.632  0.00  0.00     0.026 A 
HETATM    7  C   UNK N   1      36.885  11.067  11.379  0.00  0.00     0.026 C 
HETATM    8  C   UNK N   1      36.008  10.137  11.800  0.00  0.00     0.011 C 
HETATM    9  C   UNK N   1      36.657   9.047  12.580  0.00  0.00     0.046 C 
HETATM   10  C   UNK N   1      36.980   9.592  13.993  0.00  0.00     0.025 C 
HETATM   11  C   UNK N   1      37.831  10.880  13.959  0.00  0.00     0.123 C 
HETATM   12  N   UNK N   1      37.041  12.101  14.126  0.00  0.00    -0.380 N 
ENDROOT
BRANCH   8  13
HETATM   13  C   UNK N   1      34.593  10.518  12.132  0.00  0.00     0.252 C 
HETATM   14  O   UNK N   1      34.111  10.183  13.200  0.00  0.00    -0.268 OA
HETATM   15  N   UNK N   1      33.814  11.187  11.237  0.00  0.00    -0.323 N 
HETATM   16  H   UNK N   1      33.254  11.937  11.543  0.00  0.00     0.169 HD
BRANCH  15  17
HETATM   17  C   UNK N   1      33.804  10.817   9.867  0.00  0.00     0.035 A 
HETATM   18  C   UNK N   1      33.573  11.738   8.837  0.00  0.00     0.031 A 
HETATM   19  C   UNK N   1      33.533  11.296   7.501  0.00  0.00     0.023 A 
HETATM   20  C   UNK N   1      33.670   9.928   7.212  0.00  0.00     0.032 A 
HETATM   21  C   UNK N   1      33.845   9.015   8.245  0.00  0.00     0.023 A 
HETATM   22  C   UNK N   1      33.916   9.456   9.559  0.00  0.00     0.031 A 
BRANCH  20  23
HETATM   23  S   UNK N   1      33.678   9.318   5.526  0.00  0.00     0.055 S 
HETATM   24  O   UNK N   1      32.672   8.000   5.074  0.00  0.00    -0.252 OA
BRANCH  23  25
HETATM   25  C   UNK N   1      34.983   9.867   4.363  0.00  0.00     0.172 C 
BRANCH  25  26
HETATM   26  C   UNK N   1      35.036  11.364   4.321  0.00  0.00     0.040 A 
HETATM   27  C   UNK N   1      34.076  12.184   3.781  0.00  0.00     0.115 A 
HETATM   28  N   UNK N   1      34.487  13.465   3.943  0.00  0.00    -0.360 N 
HETATM   29  C   UNK N   1      35.673  13.398   4.578  0.00  0.00     0.183 A 
ATOM     30  HN  UNK N   1      33.997  14.308   3.645  1.00  0.00     0.166 HD
HETATM   31  N   UNK N   1      36.029  12.120   4.820  0.00  0.00    -0.344 N 
BRANCH  31  32
HETATM   32  C   UNK N   1      37.220  11.671   5.514  0.00  0.00     0.129 C 
BRANCH  32  33
HETATM   33  C   UNK N   1      37.112  11.976   6.996  0.00  0.00     0.016 C 
HETATM   34  C   UNK N   1      37.255  10.695   7.789  0.00  0.00     0.006 C 
ENDBRANCH  32  33
ENDBRANCH  31  32
ENDBRANCH  25  26
ENDBRANCH  23  25
ENDBRANCH  20  23
ENDBRANCH  15  17
ENDBRANCH   8  13
BRANCH  12  35
HETATM   35  C   UNK N   1      36.659  12.500  15.472  0.00  0.00     0.126 C 
BRANCH  35  36
HETATM   36  C   UNK N   1      35.185  12.247  15.809  0.00  0.00    -0.005 C 
HETATM   37  C   UNK N   1      34.960  10.943  16.549  0.00  0.00     0.011 C 
HETATM   38  C   UNK N   1      34.563  13.410  16.557  0.00  0.00     0.011 C 
ENDBRANCH  35  36
ENDBRANCH  12  35
BRANCH   1  39
HETATM   39  C   UNK N   1      35.460  15.492   9.748  0.00  0.00    -0.026 A 
HETATM   40  C   UNK N   1      35.408  14.919   8.470  0.00  0.00     0.015 A 
HETATM   41  C   UNK N   1      34.940  15.638   7.379  0.00  0.00     0.037 A 
HETATM   42  C   UNK N   1      34.522  16.954   7.535  0.00  0.00     0.068 A 
HETATM   43  C   UNK N   1      34.562  17.544   8.815  0.00  0.00     0.037 A 
HETATM   44  C   UNK N   1      35.024  16.815   9.919  0.00  0.00     0.015 A 
BRANCH  42  45
HETATM   45  O   UNK N   1      34.094  17.622   6.436  0.00  0.00    -0.349 OA
BRANCH  45  46
HETATM   46  C   UNK N   1      33.758  17.034   5.238  0.00  0.00     0.201 C 
BRANCH  46  47
HETATM   47  C   UNK N   1      32.585  17.748   4.563  0.00  0.00     0.194 C 
BRANCH  47  48
HETATM   48  O   UNK N   1      31.498  16.886   4.350  0.00  0.00    -0.389 OA
BRANCH  48  49
HETATM   49  C   UNK N   1      31.627  15.845   5.282  0.00  0.00     0.167 C 
BRANCH  49  50
HETATM   50  C   UNK N   1      30.504  15.871   6.297  0.00  0.00     0.026 C 
BRANCH  50  51
HETATM   51  C   UNK N   1      31.061  16.095   7.686  0.00  0.00    -0.002 C 
HETATM   52  C   UNK N   1      30.899  17.552   8.057  0.00  0.00     0.005 C 
ENDBRANCH  50  51
ENDBRANCH  49  50
ENDBRANCH  48  49
ENDBRANCH  47  48
ENDBRANCH  46  47
ENDBRANCH  45  46
ENDBRANCH  42  45
ENDBRANCH   1  39
TORSDOF 17
ENDMDL
MODEL 7
REMARK VINA RESULT:      -5.7      6.958     13.161
REMARK  17 active torsions:
REMARK  status: ('A' for Active; 'I' for Inactive)
REMARK    1  A    between atoms: C_2  and  C_3 
REMARK    2  A    between atoms: C_3  and  C_4 
REMARK    3  A    between atoms: C_4  and  O_5 
REMARK    4  A    between atoms: O_5  and  C_6 
REMARK    5  A    between atoms: C_6  and  C_7 
REMARK    6  A    between atoms: C_7  and  O_8 
REMARK    7  A    between atoms: O_8  and  C_9 
REMARK    8  A    between atoms: C_12  and  C_15 
REMARK    9  A    between atoms: C_22  and  C_31 
REMARK   10  A    between atoms: N_26  and  C_27 
REMARK   11  A    between atoms: C_27  and  C_28 
REMARK       I    between atoms: C_31  and  N_33 
REMARK   12  A    between atoms: N_33  and  C_34 
REMARK   13  A    between atoms: C_37  and  S_40 
REMARK   14  A    between atoms: S_40  and  C_41 
REMARK   15  A    between atoms: C_41  and  C_42 
REMARK   16  A    between atoms: N_47  and  C_48 
REMARK   17  A    between atoms: C_48  and  C_49 
ROOT
HETATM    1  C   UNK N   1      32.026  16.441   8.133  0.00  0.00    -0.025 A 
HETATM    2  C   UNK N   1      31.270  17.621   8.182  0.00  0.00     0.014 A 
HETATM    3  C   UNK N   1      30.293  17.871   7.209  0.00  0.00     0.031 A 
HETATM    4  C   UNK N   1      30.037  16.941   6.180  0.00  0.00     0.040 A 
HETATM    5  C   UNK N   1      30.806  15.738   6.160  0.00  0.00    -0.008 A 
HETATM    6  C   UNK N   1      31.776  15.511   7.122  0.00  0.00     0.026 A 
HETATM    7  C   UNK N   1      30.638  14.785   5.062  0.00  0.00     0.026 C 
HETATM    8  C   UNK N   1      31.025  15.123   3.818  0.00  0.00     0.011 C 
HETATM    9  C   UNK N   1      29.948  14.921   2.808  0.00  0.00     0.046 C 
HETATM   10  C   UNK N   1      28.923  16.070   2.960  0.00  0.00     0.025 C 
HETATM   11  C   UNK N   1      28.368  16.194   4.395  0.00  0.00     0.123 C 
HETATM   12  N   UNK N   1      29.025  17.239   5.182  0.00  0.00    -0.380 N 
ENDROOT
BRANCH   8  13
HETATM   13  C   UNK N   1      32.018  16.230   3.602  0.00  0.00     0.252 C 
HETATM   14  O   UNK N   1      31.759  17.133   2.826  0.00  0.00    -0.268 OA
HETATM   15  N   UNK N   1      33.233  16.217   4.218  0.00  0.00    -0.323 N 
HETATM   16  H   UNK N   1      33.585  17.045   4.617  0.00  0.00     0.169 HD
BRANCH  15  17
HETATM   17  C   UNK N   1      33.995  15.022   4.291  0.00  0.00     0.035 A 
HETATM   18  C   UNK N   1      34.042  14.090   3.245  0.00  0.00     0.031 A 
HETATM   19  C   UNK N   1      34.784  12.904   3.400  0.00  0.00     0.023 A 
HETATM   20  C   UNK N   1      35.426  12.635   4.620  0.00  0.00     0.032 A 
HETATM   21  C   UNK N   1      35.330  13.540   5.670  0.00  0.00     0.023 A 
HETATM   22  C   UNK N   1      34.625  14.724   5.505  0.00  0.00     0.031 A 
BRANCH  20  23
HETATM   23  S   UNK N   1      36.426  11.165   4.852  0.00  0.00     0.055 S 
HETATM   24  O   UNK N   1      37.912  10.981   4.009  0.00  0.00    -0.252 OA
BRANCH  23  25
HETATM   25  C   UNK N   1      35.726   9.713   5.723  0.00  0.00     0.172 C 
BRANCH  25  26
HETATM   26  C   UNK N   1      34.689  10.157   6.709  0.00  0.00     0.040 A 
HETATM   27  C   UNK N   1      33.341  10.260   6.462  0.00  0.00     0.115 A 
HETATM   28  N   UNK N   1      32.743  10.685   7.600  0.00  0.00    -0.360 N 
HETATM   29  C   UNK N   1      33.727  10.824   8.510  0.00  0.00     0.183 A 
ATOM     30  HN  UNK N   1      31.749  10.864   7.740  1.00  0.00     0.166 HD
HETATM   31  N   UNK N   1      34.928  10.505   7.985  0.00  0.00    -0.344 N 
BRANCH  31  32
HETATM   32  C   UNK N   1      36.201  10.502   8.679  0.00  0.00     0.129 C 
BRANCH  32  33
HETATM   33  C   UNK N   1      36.319  11.726   9.567  0.00  0.00     0.016 C 
HETATM   34  C   UNK N   1      36.880  12.881   8.766  0.00  0.00     0.006 C 
ENDBRANCH  32  33
ENDBRANCH  31  32
ENDBRANCH  25  26
ENDBRANCH  23  25
ENDBRANCH  20  23
ENDBRANCH  15  17
ENDBRANCH   8  13
BRANCH  12  35
HETATM   35  C   UNK N   1      28.597  18.618   4.998  0.00  0.00     0.126 C 
BRANCH  35  36
HETATM   36  C   UNK N   1      27.252  18.952   5.652  0.00  0.00    -0.005 C 
HETATM   37  C   UNK N   1      27.335  20.116   6.620  0.00  0.00     0.011 C 
HETATM   38  C   UNK N   1      26.159  19.178   4.625  0.00  0.00     0.011 C 
ENDBRANCH  35  36
ENDBRANCH  12  35
BRANCH   1  39
HETATM   39  C   UNK N   1      33.138  16.181   9.072  0.00  0.00    -0.026 A 
HETATM   40  C   UNK N   1      33.146  14.975   9.786  0.00  0.00     0.015 A 
HETATM   41  C   UNK N   1      34.181  14.663  10.658  0.00  0.00     0.037 A 
HETATM   42  C   UNK N   1      35.230  15.555  10.846  0.00  0.00     0.068 A 
HETATM   43  C   UNK N   1      35.240  16.770  10.130  0.00  0.00     0.037 A 
HETATM   44  C   UNK N   1      34.202  17.080   9.242  0.00  0.00     0.015 A 
BRANCH  42  45
HETATM   45  O   UNK N   1      36.206  15.216  11.723  0.00  0.00    -0.349 OA
BRANCH  45  46
HETATM   46  C   UNK N   1      36.219  14.067  12.480  0.00  0.00     0.201 C 
BRANCH  46  47
HETATM   47  C   UNK N   1      36.256  14.374  13.979  0.00  0.00     0.194 C 
BRANCH  47  48
HETATM   48  O   UNK N   1      35.350  13.581  14.700  0.00  0.00    -0.389 OA
BRANCH  48  49
HETATM   49  C   UNK N   1      35.966  13.290  15.927  0.00  0.00     0.167 C 
BRANCH  49  50
HETATM   50  C   UNK N   1      34.940  13.071  17.020  0.00  0.00     0.026 C 
BRANCH  50  51
HETATM   51  C   UNK N   1      35.180  14.036  18.161  0.00  0.00    -0.002 C 
HETATM   52  C   UNK N   1      36.240  15.034  17.752  0.00  0.00     0.005 C 
ENDBRANCH  50  51
ENDBRANCH  49  50
ENDBRANCH  48  49
ENDBRANCH  47  48
ENDBRANCH  46  47
ENDBRANCH  45  46
ENDBRANCH  42  45
ENDBRANCH   1  39
TORSDOF 17
ENDMDL
MODEL 8
REMARK VINA RESULT:      -5.6      8.193     12.959
REMARK  17 active torsions:
REMARK  status: ('A' for Active; 'I' for Inactive)
REMARK    1  A    between atoms: C_2  and  C_3 
REMARK    2  A    between atoms: C_3  and  C_4 
REMARK    3  A    between atoms: C_4  and  O_5 
REMARK    4  A    between atoms: O_5  and  C_6 
REMARK    5  A    between atoms: C_6  and  C_7 
REMARK    6  A    between atoms: C_7  and  O_8 
REMARK    7  A    between atoms: O_8  and  C_9 
REMARK    8  A    between atoms: C_12  and  C_15 
REMARK    9  A    between atoms: C_22  and  C_31 
REMARK   10  A    between atoms: N_26  and  C_27 
REMARK   11  A    between atoms: C_27  and  C_28 
REMARK       I    between atoms: C_31  and  N_33 
REMARK   12  A    between atoms: N_33  and  C_34 
REMARK   13  A    between atoms: C_37  and  S_40 
REMARK   14  A    between atoms: S_40  and  C_41 
REMARK   15  A    between atoms: C_41  and  C_42 
REMARK   16  A    between atoms: N_47  and  C_48 
REMARK   17  A    between atoms: C_48  and  C_49 
ROOT
HETATM    1  C   UNK N   1      35.235  14.670  11.053  0.00  0.00    -0.025 A 
HETATM    2  C   UNK N   1      35.450  15.107  12.368  0.00  0.00     0.014 A 
HETATM    3  C   UNK N   1      36.066  14.260  13.299  0.00  0.00     0.031 A 
HETATM    4  C   UNK N   1      36.499  12.969  12.932  0.00  0.00     0.040 A 
HETATM    5  C   UNK N   1      36.287  12.551  11.583  0.00  0.00    -0.008 A 
HETATM    6  C   UNK N   1      35.665  13.395  10.679  0.00  0.00     0.026 A 
HETATM    7  C   UNK N   1      36.637  11.189  11.180  0.00  0.00     0.026 C 
HETATM    8  C   UNK N   1      35.946  10.146  11.675  0.00  0.00     0.011 C 
HETATM    9  C   UNK N   1      36.828   9.106  12.277  0.00  0.00     0.046 C 
HETATM   10  C   UNK N   1      37.314   9.624  13.652  0.00  0.00     0.025 C 
HETATM   11  C   UNK N   1      38.003  11.003  13.564  0.00  0.00     0.123 C 
HETATM   12  N   UNK N   1      37.124  12.115  13.927  0.00  0.00    -0.380 N 
ENDROOT
BRANCH   8  13
HETATM   13  C   UNK N   1      34.571  10.345  12.247  0.00  0.00     0.252 C 
HETATM   14  O   UNK N   1      34.334   9.995  13.390  0.00  0.00    -0.268 OA
HETATM   15  N   UNK N   1      33.561  10.861  11.492  0.00  0.00    -0.323 N 
HETATM   16  H   UNK N   1      32.962  11.540  11.879  0.00  0.00     0.169 HD
BRANCH  15  17
HETATM   17  C   UNK N   1      33.365  10.431  10.154  0.00  0.00     0.035 A 
HETATM   18  C   UNK N   1      33.620  11.257   9.051  0.00  0.00     0.031 A 
HETATM   19  C   UNK N   1      33.364  10.784   7.750  0.00  0.00     0.023 A 
HETATM   20  C   UNK N   1      32.802   9.509   7.568  0.00  0.00     0.032 A 
HETATM   21  C   UNK N   1      32.504   8.717   8.671  0.00  0.00     0.023 A 
HETATM   22  C   UNK N   1      32.787   9.173   9.951  0.00  0.00     0.031 A 
BRANCH  20  23
HETATM   23  S   UNK N   1      32.504   8.837   5.933  0.00  0.00     0.055 S 
HETATM   24  O   UNK N   1      33.338   7.430   5.405  0.00  0.00    -0.252 OA
BRANCH  23  25
HETATM   25  C   UNK N   1      31.568   9.816   4.700  0.00  0.00     0.172 C 
BRANCH  25  26
HETATM   26  C   UNK N   1      32.502  10.699   3.930  0.00  0.00     0.040 A 
HETATM   27  C   UNK N   1      33.874  10.644   3.971  0.00  0.00     0.115 A 
HETATM   28  N   UNK N   1      34.352  11.595   3.134  0.00  0.00    -0.360 N 
HETATM   29  C   UNK N   1      33.272  12.199   2.600  0.00  0.00     0.183 A 
ATOM     30  HN  UNK N   1      35.331  11.810   2.946  1.00  0.00     0.166 HD
HETATM   31  N   UNK N   1      32.128  11.666   3.074  0.00  0.00    -0.344 N 
BRANCH  31  32
HETATM   32  C   UNK N   1      30.779  12.040   2.696  0.00  0.00     0.129 C 
BRANCH  32  33
HETATM   33  C   UNK N   1      30.385  13.340   3.369  0.00  0.00     0.016 C 
HETATM   34  C   UNK N   1      29.491  13.046   4.555  0.00  0.00     0.006 C 
ENDBRANCH  32  33
ENDBRANCH  31  32
ENDBRANCH  25  26
ENDBRANCH  23  25
ENDBRANCH  20  23
ENDBRANCH  15  17
ENDBRANCH   8  13
BRANCH  12  35
HETATM   35  C   UNK N   1      36.924  12.409  15.338  0.00  0.00     0.126 C 
BRANCH  35  36
HETATM   36  C   UNK N   1      35.576  11.937  15.894  0.00  0.00    -0.005 C 
HETATM   37  C   UNK N   1      35.700  10.745  16.824  0.00  0.00     0.011 C 
HETATM   38  C   UNK N   1      34.806  13.063  16.556  0.00  0.00     0.011 C 
ENDBRANCH  35  36
ENDBRANCH  12  35
BRANCH   1  39
HETATM   39  C   UNK N   1      34.495  15.484  10.065  0.00  0.00    -0.026 A 
HETATM   40  C   UNK N   1      33.279  14.996   9.568  0.00  0.00     0.015 A 
HETATM   41  C   UNK N   1      32.527  15.731   8.663  0.00  0.00     0.037 A 
HETATM   42  C   UNK N   1      32.976  16.970   8.222  0.00  0.00     0.068 A 
HETATM   43  C   UNK N   1      34.194  17.478   8.717  0.00  0.00     0.037 A 
HETATM   44  C   UNK N   1      34.949  16.742   9.640  0.00  0.00     0.015 A 
BRANCH  42  45
HETATM   45  O   UNK N   1      32.217  17.640   7.322  0.00  0.00    -0.349 OA
BRANCH  45  46
HETATM   46  C   UNK N   1      31.747  17.113   6.140  0.00  0.00     0.201 C 
BRANCH  46  47
HETATM   47  C   UNK N   1      32.703  17.385   4.976  0.00  0.00     0.194 C 
BRANCH  47  48
HETATM   48  O   UNK N   1      33.788  16.495   4.970  0.00  0.00    -0.389 OA
BRANCH  48  49
HETATM   49  C   UNK N   1      33.242  15.203   4.924  0.00  0.00     0.167 C 
BRANCH  49  50
HETATM   50  C   UNK N   1      34.100  14.215   5.687  0.00  0.00     0.026 C 
BRANCH  50  51
HETATM   51  C   UNK N   1      35.340  14.902   6.216  0.00  0.00    -0.002 C 
HETATM   52  C   UNK N   1      36.119  13.929   7.072  0.00  0.00     0.005 C 
ENDBRANCH  50  51
ENDBRANCH  49  50
ENDBRANCH  48  49
ENDBRANCH  47  48
ENDBRANCH  46  47
ENDBRANCH  45  46
ENDBRANCH  42  45
ENDBRANCH   1  39
TORSDOF 17
ENDMDL
MODEL 9
REMARK VINA RESULT:      -5.6     10.711     13.926
REMARK  17 active torsions:
REMARK  status: ('A' for Active; 'I' for Inactive)
REMARK    1  A    between atoms: C_2  and  C_3 
REMARK    2  A    between atoms: C_3  and  C_4 
REMARK    3  A    between atoms: C_4  and  O_5 
REMARK    4  A    between atoms: O_5  and  C_6 
REMARK    5  A    between atoms: C_6  and  C_7 
REMARK    6  A    between atoms: C_7  and  O_8 
REMARK    7  A    between atoms: O_8  and  C_9 
REMARK    8  A    between atoms: C_12  and  C_15 
REMARK    9  A    between atoms: C_22  and  C_31 
REMARK   10  A    between atoms: N_26  and  C_27 
REMARK   11  A    between atoms: C_27  and  C_28 
REMARK       I    between atoms: C_31  and  N_33 
REMARK   12  A    between atoms: N_33  and  C_34 
REMARK   13  A    between atoms: C_37  and  S_40 
REMARK   14  A    between atoms: S_40  and  C_41 
REMARK   15  A    between atoms: C_41  and  C_42 
REMARK   16  A    between atoms: N_47  and  C_48 
REMARK   17  A    between atoms: C_48  and  C_49 
ROOT
HETATM    1  C   UNK N   1      35.373   8.356  13.066  0.00  0.00    -0.025 A 
HETATM    2  C   UNK N   1      36.118   7.729  14.075  0.00  0.00     0.014 A 
HETATM    3  C   UNK N   1      36.229   8.324  15.339  0.00  0.00     0.031 A 
HETATM    4  C   UNK N   1      35.583   9.544  15.629  0.00  0.00     0.040 A 
HETATM    5  C   UNK N   1      34.815  10.155  14.592  0.00  0.00    -0.008 A 
HETATM    6  C   UNK N   1      34.725   9.562  13.344  0.00  0.00     0.026 A 
HETATM    7  C   UNK N   1      34.201  11.464  14.817  0.00  0.00     0.026 C 
HETATM    8  C   UNK N   1      34.979  12.552  14.963  0.00  0.00     0.011 C 
HETATM    9  C   UNK N   1      34.661  13.324  16.197  0.00  0.00     0.046 C 
HETATM   10  C   UNK N   1      35.250  12.559  17.408  0.00  0.00     0.025 C 
HETATM   11  C   UNK N   1      34.765  11.095  17.487  0.00  0.00     0.123 C 
HETATM   12  N   UNK N   1      35.729  10.136  16.947  0.00  0.00    -0.380 N 
ENDROOT
BRANCH   8  13
HETATM   13  C   UNK N   1      36.394  12.551  14.457  0.00  0.00     0.252 C 
HETATM   14  O   UNK N   1      37.317  12.690  15.240  0.00  0.00    -0.268 OA
HETATM   15  N   UNK N   1      36.667  12.452  13.126  0.00  0.00    -0.323 N 
HETATM   16  H   UNK N   1      37.391  11.859  12.820  0.00  0.00     0.169 HD
BRANCH  15  17
HETATM   17  C   UNK N   1      35.917  13.193  12.176  0.00  0.00     0.035 A 
HETATM   18  C   UNK N   1      35.259  12.589  11.096  0.00  0.00     0.031 A 
HETATM   19  C   UNK N   1      34.567  13.387  10.165  0.00  0.00     0.023 A 
HETATM   20  C   UNK N   1      34.586  14.786  10.293  0.00  0.00     0.032 A 
HETATM   21  C   UNK N   1      35.286  15.379  11.337  0.00  0.00     0.023 A 
HETATM   22  C   UNK N   1      35.940  14.589  12.272  0.00  0.00     0.031 A 
BRANCH  20  23
HETATM   23  S   UNK N   1      33.680  15.846   9.166  0.00  0.00     0.055 S 
HETATM   24  O   UNK N   1      33.922  17.547   9.189  0.00  0.00    -0.252 OA
BRANCH  23  25
HETATM   25  C   UNK N   1      32.263  15.173   8.219  0.00  0.00     0.172 C 
BRANCH  25  26
HETATM   26  C   UNK N   1      31.244  16.246   7.988  0.00  0.00     0.040 A 
HETATM   27  C   UNK N   1      30.531  16.897   8.965  0.00  0.00     0.115 A 
HETATM   28  N   UNK N   1      29.721  17.796   8.357  0.00  0.00    -0.360 N 
HETATM   29  C   UNK N   1      29.961  17.680   7.036  0.00  0.00     0.183 A 
ATOM     30  HN  UNK N   1      29.063  18.432   8.807  1.00  0.00     0.166 HD
HETATM   31  N   UNK N   1      30.891  16.736   6.787  0.00  0.00    -0.344 N 
BRANCH  31  32
HETATM   32  C   UNK N   1      31.422  16.367   5.490  0.00  0.00     0.129 C 
BRANCH  32  33
HETATM   33  C   UNK N   1      32.566  17.285   5.108  0.00  0.00     0.016 C 
HETATM   34  C   UNK N   1      32.685  17.348   3.601  0.00  0.00     0.006 C 
ENDBRANCH  32  33
ENDBRANCH  31  32
ENDBRANCH  25  26
ENDBRANCH  23  25
ENDBRANCH  20  23
ENDBRANCH  15  17
ENDBRANCH   8  13
BRANCH  12  35
HETATM   35  C   UNK N   1      36.838   9.717  17.792  0.00  0.00     0.126 C 
BRANCH  35  36
HETATM   36  C   UNK N   1      36.427   9.302  19.208  0.00  0.00    -0.005 C 
HETATM   37  C   UNK N   1      36.561   7.811  19.455  0.00  0.00     0.011 C 
HETATM   38  C   UNK N   1      37.162  10.095  20.271  0.00  0.00     0.011 C 
ENDBRANCH  35  36
ENDBRANCH  12  35
BRANCH   1  39
HETATM   39  C   UNK N   1      35.314   7.824  11.688  0.00  0.00    -0.026 A 
HETATM   40  C   UNK N   1      34.638   6.618  11.462  0.00  0.00     0.015 A 
HETATM   41  C   UNK N   1      34.522   6.087  10.185  0.00  0.00     0.037 A 
HETATM   42  C   UNK N   1      35.091   6.744   9.100  0.00  0.00     0.068 A 
HETATM   43  C   UNK N   1      35.769   7.963   9.309  0.00  0.00     0.037 A 
HETATM   44  C   UNK N   1      35.876   8.504  10.597  0.00  0.00     0.015 A 
BRANCH  42  45
HETATM   45  O   UNK N   1      34.971   6.177   7.875  0.00  0.00    -0.349 OA
BRANCH  45  46
HETATM   46  C   UNK N   1      33.823   6.178   7.116  0.00  0.00     0.201 C 
BRANCH  46  47
HETATM   47  C   UNK N   1      33.726   7.425   6.234  0.00  0.00     0.194 C 
BRANCH  47  48
HETATM   48  O   UNK N   1      32.821   8.365   6.752  0.00  0.00    -0.389 OA
BRANCH  48  49
HETATM   49  C   UNK N   1      31.901   7.645   7.528  0.00  0.00     0.167 C 
BRANCH  49  50
HETATM   50  C   UNK N   1      31.184   8.546   8.512  0.00  0.00     0.026 C 
BRANCH  50  51
HETATM   51  C   UNK N   1      31.994   8.679   9.783  0.00  0.00    -0.002 C 
HETATM   52  C   UNK N   1      32.631  10.050   9.825  0.00  0.00     0.005 C 
ENDBRANCH  50  51
ENDBRANCH  49  50
ENDBRANCH  48  49
ENDBRANCH  47  48
ENDBRANCH  46  47
ENDBRANCH  45  46
ENDBRANCH  42  45
ENDBRANCH   1  39
TORSDOF 17
ENDMDL
