MODEL 1
REMARK VINA RESULT:      -7.0      0.000      0.000
REMARK  5 active torsions:
REMARK  status: ('A' for Active; 'I' for Inactive)
REMARK    1  A    between atoms: C_4  and  O_22 
REMARK    2  A    between atoms: C_5  and  N_9 
REMARK       I    between atoms: N_9  and  C_10 
REMARK       I    between atoms: C_10  and  N_12 
REMARK    3  A    between atoms: N_12  and  C_13 
REMARK    4  A    between atoms: O_22  and  C_23 
REMARK    5  A    between atoms: C_24  and  C_23 
ROOT
HETATM    1  C   UNK N   1      35.981  10.203  17.347  0.00  0.00     0.049 C 
HETATM    2  C   UNK N   1      36.128  11.325  16.382  0.00  0.00    -0.042 A 
HETATM    3  C   UNK N   1      36.592  11.061  15.089  0.00  0.00     0.047 A 
HETATM    4  C   UNK N   1      36.748  12.089  14.149  0.00  0.00     0.096 A 
HETATM    5  C   UNK N   1      36.480  13.421  14.541  0.00  0.00     0.071 A 
HETATM    6  C   UNK N   1      35.992  13.660  15.838  0.00  0.00     0.052 A 
HETATM    7  C   UNK N   1      35.803  12.634  16.748  0.00  0.00     0.019 A 
HETATM    8 Br   UNK N   1      35.139  13.079  18.486  0.00  0.00    -0.051 Br
ENDROOT
BRANCH   5   9
HETATM    9  N   UNK N   1      36.785  14.550  13.722  0.00  0.00    -0.306 N 
HETATM   10  C   UNK N   1      35.972  14.798  12.656  0.00  0.00     0.326 C 
HETATM   11  O   UNK N   1      34.882  14.234  12.595  0.00  0.00    -0.247 OA
HETATM   12  N   UNK N   1      36.350  15.620  11.641  0.00  0.00    -0.293 N 
HETATM   13  H   UNK N   1      37.114  16.230  11.759  0.00  0.00     0.172 HD
HETATM   14  H   UNK N   1      37.554  15.131  13.921  0.00  0.00     0.171 HD
BRANCH  12  15
HETATM   15  C   UNK N   1      35.633  15.593  10.405  0.00  0.00     0.124 A 
HETATM   16  C   UNK N   1      36.052  14.798   9.336  0.00  0.00     0.137 A 
HETATM   17  N   UNK N   1      35.332  14.811   8.176  0.00  0.00    -0.365 N 
HETATM   18  C   UNK N   1      34.207  15.570   8.050  0.00  0.00     0.020 A 
ATOM     19  HN  UNK N   1      35.642  14.240   7.389  1.00  0.00     0.165 HD
HETATM   20  C   UNK N   1      33.776  16.339   9.120  0.00  0.00     0.114 A 
HETATM   21  C   UNK N   1      33.435  15.580   6.781  0.00  0.00     0.069 C 
HETATM   22  N   UNK N   1      34.494  16.332  10.266  0.00  0.00    -0.349 N 
ATOM     23  HN  UNK N   1      34.172  16.896  11.053  1.00  0.00     0.167 HD
ENDBRANCH  12  15
ENDBRANCH   5   9
BRANCH   4  24
HETATM   24  O   UNK N   1      37.156  11.750  12.907  0.00  0.00    -0.346 OA
BRANCH  24  25
HETATM   25  C   UNK N   1      37.409  10.451  12.539  0.00  0.00     0.209 C 
BRANCH  25  26
HETATM   26  C   UNK N   1      36.508  10.049  11.356  0.00  0.00     0.163 C 
HETATM   27  C   UNK N   1      35.615  11.172  10.793  0.00  0.00     0.147 C 
HETATM   28  N   UNK N   1      34.427  11.375  11.624  0.00  0.00    -0.417 N 
HETATM   29  C   UNK N   1      33.735  10.100  11.792  0.00  0.00     0.140 C 
HETATM   30  H   UNK N   1      34.131  12.265  12.024  0.00  0.00     0.153 HD
HETATM   31  C   UNK N   1      34.691   9.087  12.418  0.00  0.00     0.187 C 
HETATM   32  O   UNK N   1      35.788   8.847  11.560  0.00  0.00    -0.381 OA
ENDBRANCH  25  26
ENDBRANCH  24  25
ENDBRANCH   4  24
TORSDOF 5
ENDMDL
MODEL 2
REMARK VINA RESULT:      -6.8      3.337      5.251
REMARK  5 active torsions:
REMARK  status: ('A' for Active; 'I' for Inactive)
REMARK    1  A    between atoms: C_4  and  O_22 
REMARK    2  A    between atoms: C_5  and  N_9 
REMARK       I    between atoms: N_9  and  C_10 
REMARK       I    between atoms: C_10  and  N_12 
REMARK    3  A    between atoms: N_12  and  C_13 
REMARK    4  A    between atoms: O_22  and  C_23 
REMARK    5  A    between atoms: C_24  and  C_23 
ROOT
HETATM    1  C   UNK N   1      39.520  10.225   8.658  0.00  0.00     0.049 C 
HETATM    2  C   UNK N   1      38.977  11.510   9.173  0.00  0.00    -0.042 A 
HETATM    3  C   UNK N   1      38.355  11.539  10.425  0.00  0.00     0.047 A 
HETATM    4  C   UNK N   1      37.827  12.728  10.947  0.00  0.00     0.096 A 
HETATM    5  C   UNK N   1      37.882  13.903  10.163  0.00  0.00     0.071 A 
HETATM    6  C   UNK N   1      38.534  13.857   8.918  0.00  0.00     0.052 A 
HETATM    7  C   UNK N   1      39.087  12.687   8.427  0.00  0.00     0.019 A 
HETATM    8 Br   UNK N   1      39.945  12.742   6.717  0.00  0.00    -0.051 Br
ENDROOT
BRANCH   5   9
HETATM    9  N   UNK N   1      37.212  15.112  10.523  0.00  0.00    -0.306 N 
HETATM   10  C   UNK N   1      35.947  15.302  10.049  0.00  0.00     0.326 C 
HETATM   11  O   UNK N   1      35.339  14.344   9.579  0.00  0.00    -0.247 OA
HETATM   12  N   UNK N   1      35.360  16.527  10.046  0.00  0.00    -0.293 N 
HETATM   13  H   UNK N   1      35.736  17.257  10.590  0.00  0.00     0.172 HD
HETATM   14  H   UNK N   1      37.647  15.784  11.096  0.00  0.00     0.171 HD
BRANCH  12  15
HETATM   15  C   UNK N   1      34.193  16.750   9.251  0.00  0.00     0.124 A 
HETATM   16  C   UNK N   1      34.182  17.689   8.218  0.00  0.00     0.137 A 
HETATM   17  N   UNK N   1      33.041  17.864   7.490  0.00  0.00    -0.365 N 
HETATM   18  C   UNK N   1      31.922  17.128   7.742  0.00  0.00     0.020 A 
ATOM     19  HN  UNK N   1      33.026  18.558   6.742  1.00  0.00     0.165 HD
HETATM   20  C   UNK N   1      31.939  16.177   8.751  0.00  0.00     0.114 A 
HETATM   21  C   UNK N   1      30.683  17.332   6.947  0.00  0.00     0.069 C 
HETATM   22  N   UNK N   1      33.068  16.009   9.476  0.00  0.00    -0.349 N 
ATOM     23  HN  UNK N   1      33.080  15.306  10.215  1.00  0.00     0.167 HD
ENDBRANCH  12  15
ENDBRANCH   5   9
BRANCH   4  24
HETATM   24  O   UNK N   1      37.282  12.685  12.182  0.00  0.00    -0.346 OA
BRANCH  24  25
HETATM   25  C   UNK N   1      35.949  12.432  12.396  0.00  0.00     0.209 C 
BRANCH  25  26
HETATM   26  C   UNK N   1      35.343  13.511  13.313  0.00  0.00     0.163 C 
HETATM   27  C   UNK N   1      36.345  14.535  13.881  0.00  0.00     0.147 C 
HETATM   28  N   UNK N   1      37.081  13.985  15.020  0.00  0.00    -0.417 N 
HETATM   29  C   UNK N   1      36.130  13.481  16.007  0.00  0.00     0.140 C 
HETATM   30  H   UNK N   1      38.096  13.957  15.110  0.00  0.00     0.153 HD
HETATM   31  C   UNK N   1      35.237  12.428  15.355  0.00  0.00     0.187 C 
HETATM   32  O   UNK N   1      34.478  13.001  14.311  0.00  0.00    -0.381 OA
ENDBRANCH  25  26
ENDBRANCH  24  25
ENDBRANCH   4  24
TORSDOF 5
ENDMDL
MODEL 3
REMARK VINA RESULT:      -6.8      2.466      3.332
REMARK  5 active torsions:
REMARK  status: ('A' for Active; 'I' for Inactive)
REMARK    1  A    between atoms: C_4  and  O_22 
REMARK    2  A    between atoms: C_5  and  N_9 
REMARK       I    between atoms: N_9  and  C_10 
REMARK       I    between atoms: C_10  and  N_12 
REMARK    3  A    between atoms: N_12  and  C_13 
REMARK    4  A    between atoms: O_22  and  C_23 
REMARK    5  A    between atoms: C_24  and  C_23 
ROOT
HETATM    1  C   UNK N   1      37.356  10.772  13.993  0.00  0.00     0.049 C 
HETATM    2  C   UNK N   1      36.964  12.064  13.371  0.00  0.00    -0.042 A 
HETATM    3  C   UNK N   1      37.379  12.352  12.067  0.00  0.00     0.047 A 
HETATM    4  C   UNK N   1      37.034  13.560  11.444  0.00  0.00     0.096 A 
HETATM    5  C   UNK N   1      36.297  14.520  12.175  0.00  0.00     0.071 A 
HETATM    6  C   UNK N   1      35.869  14.199  13.476  0.00  0.00     0.052 A 
HETATM    7  C   UNK N   1      36.181  12.989  14.069  0.00  0.00     0.019 A 
HETATM    8 Br   UNK N   1      35.549  12.664  15.846  0.00  0.00    -0.051 Br
ENDROOT
BRANCH   5   9
HETATM    9  N   UNK N   1      36.057  15.845  11.700  0.00  0.00    -0.306 N 
HETATM   10  C   UNK N   1      35.003  16.035  10.855  0.00  0.00     0.326 C 
HETATM   11  O   UNK N   1      34.156  15.153  10.754  0.00  0.00    -0.247 OA
HETATM   12  N   UNK N   1      34.888  17.156  10.095  0.00  0.00    -0.293 N 
HETATM   13  H   UNK N   1      35.431  17.951  10.300  0.00  0.00     0.172 HD
HETATM   14  H   UNK N   1      36.632  16.596  11.974  0.00  0.00     0.171 HD
BRANCH  12  15
HETATM   15  C   UNK N   1      33.973  17.173   8.996  0.00  0.00     0.124 A 
HETATM   16  C   UNK N   1      34.417  17.294   7.678  0.00  0.00     0.137 A 
HETATM   17  N   UNK N   1      33.502  17.307   6.667  0.00  0.00    -0.365 N 
HETATM   18  C   UNK N   1      32.167  17.188   6.918  0.00  0.00     0.020 A 
ATOM     19  HN  UNK N   1      33.822  17.406   5.703  1.00  0.00     0.165 HD
HETATM   20  C   UNK N   1      31.727  17.043   8.225  0.00  0.00     0.114 A 
HETATM   21  C   UNK N   1      31.179  17.210   5.809  0.00  0.00     0.069 C 
HETATM   22  N   UNK N   1      32.634  17.037   9.228  0.00  0.00    -0.349 N 
ATOM     23  HN  UNK N   1      32.307  16.926  10.188  1.00  0.00     0.167 HD
ENDBRANCH  12  15
ENDBRANCH   5   9
BRANCH   4  24
HETATM   24  O   UNK N   1      37.433  13.746  10.168  0.00  0.00    -0.346 OA
BRANCH  24  25
HETATM   25  C   UNK N   1      37.958  12.735   9.400  0.00  0.00     0.209 C 
BRANCH  25  26
HETATM   26  C   UNK N   1      37.310  12.736   8.003  0.00  0.00     0.163 C 
HETATM   27  C   UNK N   1      36.291  13.865   7.748  0.00  0.00     0.147 C 
HETATM   28  N   UNK N   1      34.992  13.554   8.346  0.00  0.00    -0.417 N 
HETATM   29  C   UNK N   1      34.549  12.244   7.880  0.00  0.00     0.140 C 
HETATM   30  H   UNK N   1      34.479  14.158   8.989  0.00  0.00     0.153 HD
HETATM   31  C   UNK N   1      35.599  11.197   8.246  0.00  0.00     0.187 C 
HETATM   32  O   UNK N   1      36.820  11.473   7.592  0.00  0.00    -0.381 OA
ENDBRANCH  25  26
ENDBRANCH  24  25
ENDBRANCH   4  24
TORSDOF 5
ENDMDL
MODEL 4
REMARK VINA RESULT:      -6.5      1.968      2.732
REMARK  5 active torsions:
REMARK  status: ('A' for Active; 'I' for Inactive)
REMARK    1  A    between atoms: C_4  and  O_22 
REMARK    2  A    between atoms: C_5  and  N_9 
REMARK       I    between atoms: N_9  and  C_10 
REMARK       I    between atoms: C_10  and  N_12 
REMARK    3  A    between atoms: N_12  and  C_13 
REMARK    4  A    between atoms: O_22  and  C_23 
REMARK    5  A    between atoms: C_24  and  C_23 
ROOT
HETATM    1  C   UNK N   1      36.536  10.441  15.780  0.00  0.00     0.049 C 
HETATM    2  C   UNK N   1      36.466  11.650  14.916  0.00  0.00    -0.042 A 
HETATM    3  C   UNK N   1      36.981  11.596  13.618  0.00  0.00     0.047 A 
HETATM    4  C   UNK N   1      36.937  12.713  12.772  0.00  0.00     0.096 A 
HETATM    5  C   UNK N   1      36.409  13.927  13.268  0.00  0.00     0.071 A 
HETATM    6  C   UNK N   1      35.873  13.951  14.568  0.00  0.00     0.052 A 
HETATM    7  C   UNK N   1      35.885  12.833  15.383  0.00  0.00     0.019 A 
HETATM    8 Br   UNK N   1      35.134  12.985  17.137  0.00  0.00    -0.051 Br
ENDROOT
BRANCH   5   9
HETATM    9  N   UNK N   1      36.489  15.161  12.554  0.00  0.00    -0.306 N 
HETATM   10  C   UNK N   1      35.513  15.430  11.639  0.00  0.00     0.326 C 
HETATM   11  O   UNK N   1      34.483  14.762  11.656  0.00  0.00    -0.247 OA
HETATM   12  N   UNK N   1      35.668  16.388  10.688  0.00  0.00    -0.293 N 
HETATM   13  H   UNK N   1      36.381  17.061  10.775  0.00  0.00     0.172 HD
HETATM   14  H   UNK N   1      37.223  15.797  12.717  0.00  0.00     0.171 HD
BRANCH  12  15
HETATM   15  C   UNK N   1      34.788  16.413   9.561  0.00  0.00     0.124 A 
HETATM   16  C   UNK N   1      35.015  15.611   8.440  0.00  0.00     0.137 A 
HETATM   17  N   UNK N   1      34.145  15.675   7.391  0.00  0.00    -0.365 N 
HETATM   18  C   UNK N   1      33.054  16.491   7.424  0.00  0.00     0.020 A 
ATOM     19  HN  UNK N   1      34.314  15.099   6.565  1.00  0.00     0.165 HD
HETATM   20  C   UNK N   1      32.814  17.269   8.547  0.00  0.00     0.114 A 
HETATM   21  C   UNK N   1      32.118  16.557   6.272  0.00  0.00     0.069 C 
HETATM   22  N   UNK N   1      33.680  17.211   9.584  0.00  0.00    -0.349 N 
ATOM     23  HN  UNK N   1      33.499  17.781  10.410  1.00  0.00     0.167 HD
ENDBRANCH  12  15
ENDBRANCH   5   9
BRANCH   4  24
HETATM   24  O   UNK N   1      37.413  12.570  11.516  0.00  0.00    -0.346 OA
BRANCH  24  25
HETATM   25  C   UNK N   1      37.410  11.366  10.855  0.00  0.00     0.209 C 
BRANCH  25  26
HETATM   26  C   UNK N   1      38.378  11.414   9.658  0.00  0.00     0.163 C 
HETATM   27  C   UNK N   1      39.266  12.672   9.576  0.00  0.00     0.147 C 
HETATM   28  N   UNK N   1      38.529  13.808   9.020  0.00  0.00    -0.417 N 
HETATM   29  C   UNK N   1      37.938  13.419   7.743  0.00  0.00     0.140 C 
HETATM   30  H   UNK N   1      38.441  14.725   9.458  0.00  0.00     0.153 HD
HETATM   31  C   UNK N   1      37.028  12.211   7.956  0.00  0.00     0.187 C 
HETATM   32  O   UNK N   1      37.776  11.104   8.414  0.00  0.00    -0.381 OA
ENDBRANCH  25  26
ENDBRANCH  24  25
ENDBRANCH   4  24
TORSDOF 5
ENDMDL
MODEL 5
REMARK VINA RESULT:      -6.5      3.017      4.567
REMARK  5 active torsions:
REMARK  status: ('A' for Active; 'I' for Inactive)
REMARK    1  A    between atoms: C_4  and  O_22 
REMARK    2  A    between atoms: C_5  and  N_9 
REMARK       I    between atoms: N_9  and  C_10 
REMARK       I    between atoms: C_10  and  N_12 
REMARK    3  A    between atoms: N_12  and  C_13 
REMARK    4  A    between atoms: O_22  and  C_23 
REMARK    5  A    between atoms: C_24  and  C_23 
ROOT
HETATM    1  C   UNK N   1      38.193  10.297  11.224  0.00  0.00     0.049 C 
HETATM    2  C   UNK N   1      37.751  11.717  11.250  0.00  0.00    -0.042 A 
HETATM    3  C   UNK N   1      37.045  12.195  12.358  0.00  0.00     0.047 A 
HETATM    4  C   UNK N   1      36.608  13.526  12.422  0.00  0.00     0.096 A 
HETATM    5  C   UNK N   1      36.845  14.377  11.318  0.00  0.00     0.071 A 
HETATM    6  C   UNK N   1      37.579  13.882  10.225  0.00  0.00     0.052 A 
HETATM    7  C   UNK N   1      38.040  12.578  10.187  0.00  0.00     0.019 A 
HETATM    8 Br   UNK N   1      39.023  12.013   8.646  0.00  0.00    -0.051 Br
ENDROOT
BRANCH   5   9
HETATM    9  N   UNK N   1      36.281  15.685  11.208  0.00  0.00    -0.306 N 
HETATM   10  C   UNK N   1      35.151  15.828  10.459  0.00  0.00     0.326 C 
HETATM   11  O   UNK N   1      34.516  14.825  10.144  0.00  0.00    -0.247 OA
HETATM   12  N   UNK N   1      34.732  17.044  10.019  0.00  0.00    -0.293 N 
HETATM   13  H   UNK N   1      35.099  17.867  10.416  0.00  0.00     0.172 HD
HETATM   14  H   UNK N   1      36.694  16.457  11.660  0.00  0.00     0.171 HD
BRANCH  12  15
HETATM   15  C   UNK N   1      33.757  17.120   8.976  0.00  0.00     0.124 A 
HETATM   16  C   UNK N   1      34.096  17.537   7.688  0.00  0.00     0.137 A 
HETATM   17  N   UNK N   1      33.126  17.594   6.730  0.00  0.00    -0.365 N 
HETATM   18  C   UNK N   1      31.839  17.237   7.004  0.00  0.00     0.020 A 
ATOM     19  HN  UNK N   1      33.368  17.910   5.790  1.00  0.00     0.165 HD
HETATM   20  C   UNK N   1      31.506  16.799   8.277  0.00  0.00     0.114 A 
HETATM   21  C   UNK N   1      30.790  17.310   5.955  0.00  0.00     0.069 C 
HETATM   22  N   UNK N   1      32.467  16.749   9.227  0.00  0.00    -0.349 N 
ATOM     23  HN  UNK N   1      32.220  16.422  10.162  1.00  0.00     0.167 HD
ENDBRANCH  12  15
ENDBRANCH   5   9
BRANCH   4  24
HETATM   24  O   UNK N   1      35.972  13.926  13.544  0.00  0.00    -0.346 OA
BRANCH  24  25
HETATM   25  C   UNK N   1      36.287  13.437  14.788  0.00  0.00     0.209 C 
BRANCH  25  26
HETATM   26  C   UNK N   1      35.003  13.080  15.560  0.00  0.00     0.163 C 
HETATM   27  C   UNK N   1      35.219  12.499  16.972  0.00  0.00     0.147 C 
HETATM   28  N   UNK N   1      35.575  11.081  16.915  0.00  0.00    -0.417 N 
HETATM   29  C   UNK N   1      34.573  10.365  16.131  0.00  0.00     0.140 C 
HETATM   30  H   UNK N   1      36.394  10.660  17.353  0.00  0.00     0.153 HD
HETATM   31  C   UNK N   1      34.493  10.979  14.735  0.00  0.00     0.187 C 
HETATM   32  O   UNK N   1      34.069  12.324  14.810  0.00  0.00    -0.381 OA
ENDBRANCH  25  26
ENDBRANCH  24  25
ENDBRANCH   4  24
TORSDOF 5
ENDMDL
MODEL 6
REMARK VINA RESULT:      -6.3      4.938      7.809
REMARK  5 active torsions:
REMARK  status: ('A' for Active; 'I' for Inactive)
REMARK    1  A    between atoms: C_4  and  O_22 
REMARK    2  A    between atoms: C_5  and  N_9 
REMARK       I    between atoms: N_9  and  C_10 
REMARK       I    between atoms: C_10  and  N_12 
REMARK    3  A    between atoms: N_12  and  C_13 
REMARK    4  A    between atoms: O_22  and  C_23 
REMARK    5  A    between atoms: C_24  and  C_23 
ROOT
HETATM    1  C   UNK N   1      37.038  12.806   9.605  0.00  0.00     0.049 C 
HETATM    2  C   UNK N   1      36.011  13.870   9.444  0.00  0.00    -0.042 A 
HETATM    3  C   UNK N   1      35.921  14.559   8.231  0.00  0.00     0.047 A 
HETATM    4  C   UNK N   1      34.970  15.570   8.038  0.00  0.00     0.096 A 
HETATM    5  C   UNK N   1      34.125  15.928   9.113  0.00  0.00     0.071 A 
HETATM    6  C   UNK N   1      34.215  15.205  10.316  0.00  0.00     0.052 A 
HETATM    7  C   UNK N   1      35.131  14.181  10.485  0.00  0.00     0.019 A 
HETATM    8 Br   UNK N   1      35.168  13.270  12.167  0.00  0.00    -0.051 Br
ENDROOT
BRANCH   5   9
HETATM    9  N   UNK N   1      33.257  17.062   9.078  0.00  0.00    -0.306 N 
HETATM   10  C   UNK N   1      31.955  16.854   8.727  0.00  0.00     0.326 C 
HETATM   11  O   UNK N   1      31.517  15.707   8.725  0.00  0.00    -0.247 OA
HETATM   12  N   UNK N   1      31.145  17.875   8.342  0.00  0.00    -0.293 N 
HETATM   13  H   UNK N   1      31.404  18.807   8.524  0.00  0.00     0.172 HD
HETATM   14  H   UNK N   1      33.586  17.963   9.301  0.00  0.00     0.171 HD
BRANCH  12  15
HETATM   15  C   UNK N   1      29.916  17.586   7.671  0.00  0.00     0.124 A 
HETATM   16  C   UNK N   1      28.682  17.913   8.236  0.00  0.00     0.137 A 
HETATM   17  N   UNK N   1      27.538  17.614   7.554  0.00  0.00    -0.365 N 
HETATM   18  C   UNK N   1      27.580  17.019   6.328  0.00  0.00     0.020 A 
ATOM     19  HN  UNK N   1      26.634  17.841   7.969  1.00  0.00     0.165 HD
HETATM   20  C   UNK N   1      28.806  16.717   5.755  0.00  0.00     0.114 A 
HETATM   21  C   UNK N   1      26.328  16.692   5.598  0.00  0.00     0.069 C 
HETATM   22  N   UNK N   1      29.939  17.007   6.434  0.00  0.00    -0.349 N 
ATOM     23  HN  UNK N   1      30.840  16.788   6.008  1.00  0.00     0.167 HD
ENDBRANCH  12  15
ENDBRANCH   5   9
BRANCH   4  24
HETATM   24  O   UNK N   1      34.915  16.159   6.824  0.00  0.00    -0.346 OA
BRANCH  24  25
HETATM   25  C   UNK N   1      34.816  15.443   5.656  0.00  0.00     0.209 C 
BRANCH  25  26
HETATM   26  C   UNK N   1      33.344  15.347   5.214  0.00  0.00     0.163 C 
HETATM   27  C   UNK N   1      33.112  14.746   3.813  0.00  0.00     0.147 C 
HETATM   28  N   UNK N   1      33.359  15.735   2.763  0.00  0.00    -0.417 N 
HETATM   29  C   UNK N   1      32.564  16.930   3.031  0.00  0.00     0.140 C 
HETATM   30  H   UNK N   1      33.989  15.609   1.970  0.00  0.00     0.153 HD
HETATM   31  C   UNK N   1      32.925  17.476   4.411  0.00  0.00     0.187 C 
HETATM   32  O   UNK N   1      32.601  16.536   5.414  0.00  0.00    -0.381 OA
ENDBRANCH  25  26
ENDBRANCH  24  25
ENDBRANCH   4  24
TORSDOF 5
ENDMDL
MODEL 7
REMARK VINA RESULT:      -6.2      4.179      8.588
REMARK  5 active torsions:
REMARK  status: ('A' for Active; 'I' for Inactive)
REMARK    1  A    between atoms: C_4  and  O_22 
REMARK    2  A    between atoms: C_5  and  N_9 
REMARK       I    between atoms: N_9  and  C_10 
REMARK       I    between atoms: C_10  and  N_12 
REMARK    3  A    between atoms: N_12  and  C_13 
REMARK    4  A    between atoms: O_22  and  C_23 
REMARK    5  A    between atoms: C_24  and  C_23 
ROOT
HETATM    1  C   UNK N   1      32.811  14.456   2.931  0.00  0.00     0.049 C 
HETATM    2  C   UNK N   1      33.843  14.382   4.000  0.00  0.00    -0.042 A 
HETATM    3  C   UNK N   1      33.983  15.449   4.893  0.00  0.00     0.047 A 
HETATM    4  C   UNK N   1      34.944  15.421   5.913  0.00  0.00     0.096 A 
HETATM    5  C   UNK N   1      35.818  14.313   5.999  0.00  0.00     0.071 A 
HETATM    6  C   UNK N   1      35.643  13.241   5.106  0.00  0.00     0.052 A 
HETATM    7  C   UNK N   1      34.666  13.259   4.126  0.00  0.00     0.019 A 
HETATM    8 Br   UNK N   1      34.524  11.746   2.963  0.00  0.00    -0.051 Br
ENDROOT
BRANCH   5   9
HETATM    9  N   UNK N   1      36.943  14.275   6.878  0.00  0.00    -0.306 N 
HETATM   10  C   UNK N   1      36.732  13.863   8.161  0.00  0.00     0.326 C 
HETATM   11  O   UNK N   1      35.681  13.291   8.436  0.00  0.00    -0.247 OA
HETATM   12  N   UNK N   1      37.635  14.102   9.148  0.00  0.00    -0.293 N 
HETATM   13  H   UNK N   1      38.555  14.372   8.922  0.00  0.00     0.172 HD
HETATM   14  H   UNK N   1      37.841  14.536   6.568  0.00  0.00     0.171 HD
BRANCH  12  15
HETATM   15  C   UNK N   1      37.241  13.961  10.515  0.00  0.00     0.124 A 
HETATM   16  C   UNK N   1      37.688  12.894  11.297  0.00  0.00     0.137 A 
HETATM   17  N   UNK N   1      37.280  12.805  12.596  0.00  0.00    -0.365 N 
HETATM   18  C   UNK N   1      36.460  13.745  13.146  0.00  0.00     0.020 A 
ATOM     19  HN  UNK N   1      37.595  12.021  13.167  1.00  0.00     0.165 HD
HETATM   20  C   UNK N   1      36.036  14.819  12.377  0.00  0.00     0.114 A 
HETATM   21  C   UNK N   1      36.017  13.634  14.560  0.00  0.00     0.069 C 
HETATM   22  N   UNK N   1      36.435  14.902  11.088  0.00  0.00    -0.349 N 
ATOM     23  HN  UNK N   1      36.125  15.696  10.526  1.00  0.00     0.167 HD
ENDBRANCH  12  15
ENDBRANCH   5   9
BRANCH   4  24
HETATM   24  O   UNK N   1      34.988  16.468   6.764  0.00  0.00    -0.346 OA
BRANCH  24  25
HETATM   25  C   UNK N   1      34.060  17.481   6.743  0.00  0.00     0.209 C 
BRANCH  25  26
HETATM   26  C   UNK N   1      33.388  17.616   8.122  0.00  0.00     0.163 C 
HETATM   27  C   UNK N   1      34.035  16.795   9.256  0.00  0.00     0.147 C 
HETATM   28  N   UNK N   1      33.624  15.391   9.197  0.00  0.00    -0.417 N 
HETATM   29  C   UNK N   1      32.166  15.318   9.174  0.00  0.00     0.140 C 
HETATM   30  H   UNK N   1      34.257  14.592   9.175  0.00  0.00     0.153 HD
HETATM   31  C   UNK N   1      31.641  16.106   7.975  0.00  0.00     0.187 C 
HETATM   32  O   UNK N   1      31.980  17.472   8.096  0.00  0.00    -0.381 OA
ENDBRANCH  25  26
ENDBRANCH  24  25
ENDBRANCH   4  24
TORSDOF 5
ENDMDL
MODEL 8
REMARK VINA RESULT:      -6.2      4.473      8.917
REMARK  5 active torsions:
REMARK  status: ('A' for Active; 'I' for Inactive)
REMARK    1  A    between atoms: C_4  and  O_22 
REMARK    2  A    between atoms: C_5  and  N_9 
REMARK       I    between atoms: N_9  and  C_10 
REMARK       I    between atoms: C_10  and  N_12 
REMARK    3  A    between atoms: N_12  and  C_13 
REMARK    4  A    between atoms: O_22  and  C_23 
REMARK    5  A    between atoms: C_24  and  C_23 
ROOT
HETATM    1  C   UNK N   1      28.469  17.419   7.081  0.00  0.00     0.049 C 
HETATM    2  C   UNK N   1      29.935  17.237   7.254  0.00  0.00    -0.042 A 
HETATM    3  C   UNK N   1      30.662  16.556   6.272  0.00  0.00     0.047 A 
HETATM    4  C   UNK N   1      32.044  16.360   6.397  0.00  0.00     0.096 A 
HETATM    5  C   UNK N   1      32.697  16.816   7.566  0.00  0.00     0.071 A 
HETATM    6  C   UNK N   1      31.951  17.520   8.528  0.00  0.00     0.052 A 
HETATM    7  C   UNK N   1      30.593  17.743   8.379  0.00  0.00     0.019 A 
HETATM    8 Br   UNK N   1      29.679  18.708   9.755  0.00  0.00    -0.051 Br
ENDROOT
BRANCH   5   9
HETATM    9  N   UNK N   1      34.056  16.503   7.871  0.00  0.00    -0.306 N 
HETATM   10  C   UNK N   1      34.293  15.653   8.911  0.00  0.00     0.326 C 
HETATM   11  O   UNK N   1      33.364  14.987   9.359  0.00  0.00    -0.247 OA
HETATM   12  N   UNK N   1      35.519  15.554   9.490  0.00  0.00    -0.293 N 
HETATM   13  H   UNK N   1      36.313  15.916   9.033  0.00  0.00     0.172 HD
HETATM   14  H   UNK N   1      34.797  16.886   7.347  0.00  0.00     0.171 HD
BRANCH  12  15
HETATM   15  C   UNK N   1      35.649  14.921  10.766  0.00  0.00     0.124 A 
HETATM   16  C   UNK N   1      36.118  15.617  11.881  0.00  0.00     0.137 A 
HETATM   17  N   UNK N   1      36.225  14.965  13.075  0.00  0.00    -0.365 N 
HETATM   18  C   UNK N   1      35.867  13.656  13.201  0.00  0.00     0.020 A 
ATOM     19  HN  UNK N   1      36.579  15.468  13.890  1.00  0.00     0.165 HD
HETATM   20  C   UNK N   1      35.377  12.971  12.099  0.00  0.00     0.114 A 
HETATM   21  C   UNK N   1      35.994  12.955  14.505  0.00  0.00     0.069 C 
HETATM   22  N   UNK N   1      35.278  13.616  10.915  0.00  0.00    -0.349 N 
ATOM     23  HN  UNK N   1      34.913  13.110  10.107  1.00  0.00     0.167 HD
ENDBRANCH  12  15
ENDBRANCH   5   9
BRANCH   4  24
HETATM   24  O   UNK N   1      32.685  15.734   5.387  0.00  0.00    -0.346 OA
BRANCH  24  25
HETATM   25  C   UNK N   1      33.357  16.414   4.401  0.00  0.00     0.209 C 
BRANCH  25  26
HETATM   26  C   UNK N   1      32.845  15.983   3.014  0.00  0.00     0.163 C 
HETATM   27  C   UNK N   1      31.607  15.065   3.021  0.00  0.00     0.147 C 
HETATM   28  N   UNK N   1      31.975  13.678   3.313  0.00  0.00    -0.417 N 
HETATM   29  C   UNK N   1      33.018  13.253   2.384  0.00  0.00     0.140 C 
HETATM   30  H   UNK N   1      31.568  13.102   4.049  0.00  0.00     0.153 HD
HETATM   31  C   UNK N   1      34.218  14.190   2.511  0.00  0.00     0.187 C 
HETATM   32  O   UNK N   1      33.858  15.506   2.147  0.00  0.00    -0.381 OA
ENDBRANCH  25  26
ENDBRANCH  24  25
ENDBRANCH   4  24
TORSDOF 5
ENDMDL
MODEL 9
REMARK VINA RESULT:      -6.0      2.628      4.741
REMARK  5 active torsions:
REMARK  status: ('A' for Active; 'I' for Inactive)
REMARK    1  A    between atoms: C_4  and  O_22 
REMARK    2  A    between atoms: C_5  and  N_9 
REMARK       I    between atoms: N_9  and  C_10 
REMARK       I    between atoms: C_10  and  N_12 
REMARK    3  A    between atoms: N_12  and  C_13 
REMARK    4  A    between atoms: O_22  and  C_23 
REMARK    5  A    between atoms: C_24  and  C_23 
ROOT
HETATM    1  C   UNK N   1      35.129  13.312  18.327  0.00  0.00     0.049 C 
HETATM    2  C   UNK N   1      35.330  12.666  17.002  0.00  0.00    -0.042 A 
HETATM    3  C   UNK N   1      35.140  13.416  15.837  0.00  0.00     0.047 A 
HETATM    4  C   UNK N   1      35.317  12.846  14.569  0.00  0.00     0.096 A 
HETATM    5  C   UNK N   1      35.640  11.473  14.476  0.00  0.00     0.071 A 
HETATM    6  C   UNK N   1      35.850  10.744  15.660  0.00  0.00     0.052 A 
HETATM    7  C   UNK N   1      35.713  11.325  16.908  0.00  0.00     0.019 A 
HETATM    8 Br   UNK N   1      36.018  10.234  18.451  0.00  0.00    -0.051 Br
ENDROOT
BRANCH   5   9
HETATM    9  N   UNK N   1      35.657  10.759  13.239  0.00  0.00    -0.306 N 
HETATM   10  C   UNK N   1      36.810  10.781  12.510  0.00  0.00     0.326 C 
HETATM   11  O   UNK N   1      37.846  11.162  13.047  0.00  0.00    -0.247 OA
HETATM   12  N   UNK N   1      36.834  10.431  11.196  0.00  0.00    -0.293 N 
HETATM   13  H   UNK N   1      36.077   9.939  10.802  0.00  0.00     0.172 HD
HETATM   14  H   UNK N   1      34.865  10.266  12.924  0.00  0.00     0.171 HD
BRANCH  12  15
HETATM   15  C   UNK N   1      37.963  10.781  10.392  0.00  0.00     0.124 A 
HETATM   16  C   UNK N   1      38.768   9.806   9.800  0.00  0.00     0.137 A 
HETATM   17  N   UNK N   1      39.835  10.195   9.044  0.00  0.00    -0.365 N 
HETATM   18  C   UNK N   1      40.118  11.514   8.844  0.00  0.00     0.020 A 
ATOM     19  HN  UNK N   1      40.433   9.485   8.619  1.00  0.00     0.165 HD
HETATM   20  C   UNK N   1      39.304  12.483   9.411  0.00  0.00     0.114 A 
HETATM   21  C   UNK N   1      41.287  11.924   8.024  0.00  0.00     0.069 C 
HETATM   22  N   UNK N   1      38.251  12.097  10.166  0.00  0.00    -0.349 N 
ATOM     23  HN  UNK N   1      37.651  12.812  10.578  1.00  0.00     0.167 HD
ENDBRANCH  12  15
ENDBRANCH   5   9
BRANCH   4  24
HETATM   24  O   UNK N   1      35.160  13.646  13.492  0.00  0.00    -0.346 OA
BRANCH  24  25
HETATM   25  C   UNK N   1      36.040  14.654  13.184  0.00  0.00     0.209 C 
BRANCH  25  26
HETATM   26  C   UNK N   1      36.314  14.677  11.669  0.00  0.00     0.163 C 
HETATM   27  C   UNK N   1      35.989  16.006  10.958  0.00  0.00     0.147 C 
HETATM   28  N   UNK N   1      34.555  16.133  10.697  0.00  0.00    -0.417 N 
HETATM   29  C   UNK N   1      34.090  14.951   9.977  0.00  0.00     0.140 C 
HETATM   30  H   UNK N   1      33.972  16.922  10.976  0.00  0.00     0.153 HD
HETATM   31  C   UNK N   1      34.402  13.704  10.802  0.00  0.00     0.187 C 
HETATM   32  O   UNK N   1      35.796  13.559  10.971  0.00  0.00    -0.381 OA
ENDBRANCH  25  26
ENDBRANCH  24  25
ENDBRANCH   4  24
TORSDOF 5
ENDMDL
