MODEL 1
REMARK VINA RESULT:      -9.4      0.000      0.000
REMARK  6 active torsions:
REMARK  status: ('A' for Active; 'I' for Inactive)
REMARK    1  A    between atoms: C_4  and  N_20 
REMARK    2  A    between atoms: C_7  and  O_8 
REMARK    3  A    between atoms: O_8  and  C_9 
REMARK    4  A    between atoms: N_20  and  C_21 
REMARK    5  A    between atoms: C_24  and  N_33 
REMARK    6  A    between atoms: N_33  and  C_34 
ROOT
HETATM    1  C   UNK N   1      22.709  18.406   4.771  0.00  0.00     0.119 A 
HETATM    2  C   UNK N   1      23.785  19.046   4.156  0.00  0.00     0.037 A 
HETATM    3  C   UNK N   1      25.106  18.754   4.505  0.00  0.00     0.047 A 
HETATM    4  C   UNK N   1      26.154  19.460   3.907  0.00  0.00     0.036 A 
HETATM    5  C   UNK N   1      25.882  20.460   2.969  0.00  0.00     0.032 A 
HETATM    6  C   UNK N   1      24.565  20.753   2.613  0.00  0.00     0.033 A 
HETATM    7  C   UNK N   1      23.515  20.041   3.191  0.00  0.00     0.047 A 
HETATM    8  N   UNK N   1      22.235  20.326   2.849  0.00  0.00    -0.352 N 
ATOM      9  HN  UNK N   1      22.046  21.041   2.145  1.00  0.00     0.166 HD
HETATM   10  C   UNK N   1      21.201  19.671   3.435  0.00  0.00     0.182 A 
HETATM   11  N   UNK N   1      21.441  18.745   4.398  0.00  0.00    -0.338 N 
ATOM     12  HN  UNK N   1      20.651  18.289   4.856  1.00  0.00     0.168 HD
ENDROOT
BRANCH   1  13
HETATM   13  N   UNK N   1      22.932  17.561   5.903  0.00  0.00    -0.342 N 
HETATM   14  H   UNK N   1      23.703  17.698   6.498  0.00  0.00     0.167 HD
BRANCH  13  15
HETATM   15  C   UNK N   1      22.003  16.520   6.133  0.00  0.00     0.034 C 
HETATM   16  C   UNK N   1      22.103  15.359   5.349  0.00  0.00     0.039 C 
HETATM   17  C   UNK N   1      21.611  14.135   5.824  0.00  0.00    -0.026 C 
HETATM   18  C   UNK N   1      21.830  12.899   5.022  0.00  0.00     0.051 C 
HETATM   19  C   UNK N   1      21.073  14.075   7.120  0.00  0.00     0.082 C 
HETATM   20  C   UNK N   1      20.879  15.264   7.842  0.00  0.00     0.040 C 
HETATM   21  C   UNK N   1      21.345  16.466   7.358  0.00  0.00     0.032 C 
BRANCH  19  22
HETATM   22  O   UNK N   1      20.837  12.894   7.746  0.00  0.00    -0.310 OA
BRANCH  22  23
HETATM   23  C   UNK N   1      21.733  12.526   8.701  0.00  0.00     0.081 A 
HETATM   24  C   UNK N   1      23.126  12.656   8.434  0.00  0.00     0.056 A 
HETATM   25  C   UNK N   1      24.052  12.516   9.473  0.00  0.00     0.121 A 
HETATM   26  N   UNK N   1      23.569  12.279  10.712  0.00  0.00    -0.250 N 
HETATM   27  C   UNK N   1      22.274  12.127  10.990  0.00  0.00     0.130 A 
HETATM   28  N   UNK N   1      24.255  12.175  11.831  0.00  0.00    -0.288 N 
HETATM   29  C   UNK N   1      21.296  12.233  10.003  0.00  0.00     0.087 A 
HETATM   30  N   UNK N   1      22.082  11.922  12.301  0.00  0.00    -0.336 N 
HETATM   31  C   UNK N   1      23.344  11.958  12.811  0.00  0.00     0.199 A 
ATOM     32  HN  UNK N   1      21.202  11.775  12.797  1.00  0.00     0.168 HD
ATOM     33  HN  UNK N   1      25.266  12.246  11.940  1.00  0.00     0.188 HD
ENDBRANCH  22  23
ENDBRANCH  19  22
ENDBRANCH  13  15
ENDBRANCH   1  13
BRANCH   4  34
HETATM   34  N   UNK N   1      27.486  19.052   4.104  0.00  0.00    -0.322 N 
HETATM   35  H   UNK N   1      28.093  18.932   3.337  0.00  0.00     0.169 HD
BRANCH  34  36
HETATM   36  C   UNK N   1      27.937  18.814   5.425  0.00  0.00     0.220 A 
HETATM   37  N   UNK N   1      28.368  17.687   5.809  0.00  0.00    -0.346 N 
HETATM   38  C   UNK N   1      28.634  17.729   7.221  0.00  0.00     0.048 A 
ATOM     39  HN  UNK N   1      28.505  16.874   5.209  1.00  0.00     0.164 HD
HETATM   40  C   UNK N   1      28.290  19.188   7.592  0.00  0.00     0.209 A 
HETATM   41  C   UNK N   1      30.087  17.420   7.513  0.00  0.00     0.040 C 
HETATM   42  C   UNK N   1      27.717  16.765   7.951  0.00  0.00     0.040 C 
HETATM   43  O   UNK N   1      27.859  19.727   6.398  0.00  0.00    -0.320 OA
ENDBRANCH  34  36
ENDBRANCH   4  34
TORSDOF 6
ENDMDL
MODEL 2
REMARK VINA RESULT:      -8.9      4.784      9.287
REMARK  6 active torsions:
REMARK  status: ('A' for Active; 'I' for Inactive)
REMARK    1  A    between atoms: C_4  and  N_20 
REMARK    2  A    between atoms: C_7  and  O_8 
REMARK    3  A    between atoms: O_8  and  C_9 
REMARK    4  A    between atoms: N_20  and  C_21 
REMARK    5  A    between atoms: C_24  and  N_33 
REMARK    6  A    between atoms: N_33  and  C_34 
ROOT
HETATM    1  C   UNK N   1      28.319  17.092   6.433  0.00  0.00     0.119 A 
HETATM    2  C   UNK N   1      27.613  18.219   6.013  0.00  0.00     0.037 A 
HETATM    3  C   UNK N   1      26.869  18.218   4.830  0.00  0.00     0.047 A 
HETATM    4  C   UNK N   1      26.225  19.387   4.414  0.00  0.00     0.036 A 
HETATM    5  C   UNK N   1      26.331  20.555   5.173  0.00  0.00     0.032 A 
HETATM    6  C   UNK N   1      27.069  20.562   6.357  0.00  0.00     0.033 A 
HETATM    7  C   UNK N   1      27.699  19.396   6.789  0.00  0.00     0.047 A 
HETATM    8  N   UNK N   1      28.420  19.401   7.938  0.00  0.00    -0.352 N 
ATOM      9  HN  UNK N   1      28.472  20.252   8.498  1.00  0.00     0.166 HD
HETATM   10  C   UNK N   1      29.073  18.285   8.347  0.00  0.00     0.182 A 
HETATM   11  N   UNK N   1      29.040  17.159   7.590  0.00  0.00    -0.338 N 
ATOM     12  HN  UNK N   1      29.569  16.341   7.893  1.00  0.00     0.168 HD
ENDROOT
BRANCH   1  13
HETATM   13  N   UNK N   1      28.438  15.960   5.567  0.00  0.00    -0.342 N 
HETATM   14  H   UNK N   1      27.650  15.432   5.306  0.00  0.00     0.167 HD
BRANCH  13  15
HETATM   15  C   UNK N   1      29.732  15.628   5.102  0.00  0.00     0.034 C 
HETATM   16  C   UNK N   1      30.404  16.562   4.297  0.00  0.00     0.039 C 
HETATM   17  C   UNK N   1      31.806  16.566   4.231  0.00  0.00    -0.026 C 
HETATM   18  C   UNK N   1      32.498  17.636   3.459  0.00  0.00     0.051 C 
HETATM   19  C   UNK N   1      32.526  15.663   5.030  0.00  0.00     0.082 C 
HETATM   20  C   UNK N   1      31.836  14.667   5.738  0.00  0.00     0.040 C 
HETATM   21  C   UNK N   1      30.461  14.655   5.780  0.00  0.00     0.032 C 
BRANCH  19  22
HETATM   22  O   UNK N   1      33.863  15.791   5.230  0.00  0.00    -0.310 OA
BRANCH  22  23
HETATM   23  C   UNK N   1      34.251  16.250   6.450  0.00  0.00     0.081 A 
HETATM   24  C   UNK N   1      33.833  17.546   6.869  0.00  0.00     0.056 A 
HETATM   25  C   UNK N   1      34.011  17.941   8.199  0.00  0.00     0.121 A 
HETATM   26  N   UNK N   1      34.566  17.047   9.046  0.00  0.00    -0.250 N 
HETATM   27  C   UNK N   1      34.990  15.838   8.680  0.00  0.00     0.130 A 
HETATM   28  N   UNK N   1      34.767  17.190  10.340  0.00  0.00    -0.288 N 
HETATM   29  C   UNK N   1      34.863  15.383   7.369  0.00  0.00     0.087 A 
HETATM   30  N   UNK N   1      35.478  15.158   9.729  0.00  0.00    -0.336 N 
HETATM   31  C   UNK N   1      35.325  16.030  10.763  0.00  0.00     0.199 A 
ATOM     32  HN  UNK N   1      35.869  14.216   9.747  1.00  0.00     0.168 HD
ATOM     33  HN  UNK N   1      34.546  18.008  10.908  1.00  0.00     0.188 HD
ENDBRANCH  22  23
ENDBRANCH  19  22
ENDBRANCH  13  15
ENDBRANCH   1  13
BRANCH   4  34
HETATM   34  N   UNK N   1      25.322  19.352   3.336  0.00  0.00    -0.322 N 
HETATM   35  H   UNK N   1      25.646  19.402   2.407  0.00  0.00     0.169 HD
BRANCH  34  36
HETATM   36  C   UNK N   1      23.937  19.245   3.611  0.00  0.00     0.220 A 
HETATM   37  N   UNK N   1      23.419  18.211   4.127  0.00  0.00    -0.346 N 
HETATM   38  C   UNK N   1      21.989  18.358   4.169  0.00  0.00     0.048 A 
ATOM     39  HN  UNK N   1      23.937  17.398   4.461  1.00  0.00     0.164 HD
HETATM   40  C   UNK N   1      21.772  19.768   3.580  0.00  0.00     0.209 A 
HETATM   41  C   UNK N   1      21.474  18.274   5.590  0.00  0.00     0.040 C 
HETATM   42  C   UNK N   1      21.334  17.309   3.292  0.00  0.00     0.040 C 
HETATM   43  O   UNK N   1      23.049  20.182   3.265  0.00  0.00    -0.320 OA
ENDBRANCH  34  36
ENDBRANCH   4  34
TORSDOF 6
ENDMDL
MODEL 3
REMARK VINA RESULT:      -8.7      1.507      1.981
REMARK  6 active torsions:
REMARK  status: ('A' for Active; 'I' for Inactive)
REMARK    1  A    between atoms: C_4  and  N_20 
REMARK    2  A    between atoms: C_7  and  O_8 
REMARK    3  A    between atoms: O_8  and  C_9 
REMARK    4  A    between atoms: N_20  and  C_21 
REMARK    5  A    between atoms: C_24  and  N_33 
REMARK    6  A    between atoms: N_33  and  C_34 
ROOT
HETATM    1  C   UNK N   1      22.511  18.842   4.793  0.00  0.00     0.119 A 
HETATM    2  C   UNK N   1      23.720  19.281   4.255  0.00  0.00     0.037 A 
HETATM    3  C   UNK N   1      24.944  18.956   4.846  0.00  0.00     0.047 A 
HETATM    4  C   UNK N   1      26.131  19.465   4.310  0.00  0.00     0.036 A 
HETATM    5  C   UNK N   1      26.094  20.303   3.192  0.00  0.00     0.032 A 
HETATM    6  C   UNK N   1      24.875  20.628   2.595  0.00  0.00     0.033 A 
HETATM    7  C   UNK N   1      23.689  20.109   3.112  0.00  0.00     0.047 A 
HETATM    8  N   UNK N   1      22.504  20.427   2.535  0.00  0.00    -0.352 N 
ATOM      9  HN  UNK N   1      22.488  21.019   1.705  1.00  0.00     0.166 HD
HETATM   10  C   UNK N   1      21.338  19.964   3.053  0.00  0.00     0.182 A 
HETATM   11  N   UNK N   1      21.347  19.205   4.179  0.00  0.00    -0.338 N 
ATOM     12  HN  UNK N   1      20.460  18.898   4.577  1.00  0.00     0.168 HD
ENDROOT
BRANCH   1  13
HETATM   13  N   UNK N   1      22.488  18.194   6.067  0.00  0.00    -0.342 N 
HETATM   14  H   UNK N   1      23.060  18.501   6.807  0.00  0.00     0.167 HD
BRANCH  13  15
HETATM   15  C   UNK N   1      21.614  17.093   6.224  0.00  0.00     0.034 C 
HETATM   16  C   UNK N   1      21.922  15.902   5.545  0.00  0.00     0.039 C 
HETATM   17  C   UNK N   1      21.454  14.670   6.023  0.00  0.00    -0.026 C 
HETATM   18  C   UNK N   1      21.886  13.413   5.350  0.00  0.00     0.051 C 
HETATM   19  C   UNK N   1      20.724  14.639   7.223  0.00  0.00     0.082 C 
HETATM   20  C   UNK N   1      20.332  15.846   7.823  0.00  0.00     0.040 C 
HETATM   21  C   UNK N   1      20.777  17.053   7.335  0.00  0.00     0.032 C 
BRANCH  19  22
HETATM   22  O   UNK N   1      20.481  13.478   7.885  0.00  0.00    -0.310 OA
BRANCH  22  23
HETATM   23  C   UNK N   1      21.174  13.284   9.039  0.00  0.00     0.081 A 
HETATM   24  C   UNK N   1      20.473  12.869  10.208  0.00  0.00     0.056 A 
HETATM   25  C   UNK N   1      21.186  12.431  11.330  0.00  0.00     0.121 A 
HETATM   26  N   UNK N   1      22.533  12.404  11.242  0.00  0.00    -0.250 N 
HETATM   27  C   UNK N   1      23.218  12.810  10.173  0.00  0.00     0.130 A 
HETATM   28  N   UNK N   1      23.385  11.975  12.150  0.00  0.00    -0.288 N 
HETATM   29  C   UNK N   1      22.577  13.276   9.026  0.00  0.00     0.087 A 
HETATM   30  N   UNK N   1      24.537  12.653  10.356  0.00  0.00    -0.336 N 
HETATM   31  C   UNK N   1      24.618  12.124  11.608  0.00  0.00     0.199 A 
ATOM     32  HN  UNK N   1      25.297  12.876   9.712  1.00  0.00     0.168 HD
ATOM     33  HN  UNK N   1      23.162  11.604  13.074  1.00  0.00     0.188 HD
ENDBRANCH  22  23
ENDBRANCH  19  22
ENDBRANCH  13  15
ENDBRANCH   1  13
BRANCH   4  34
HETATM   34  N   UNK N   1      27.375  18.997   4.773  0.00  0.00    -0.322 N 
HETATM   35  H   UNK N   1      28.002  19.605   5.228  0.00  0.00     0.169 HD
BRANCH  34  36
HETATM   36  C   UNK N   1      27.708  17.636   4.570  0.00  0.00     0.220 A 
HETATM   37  N   UNK N   1      27.903  16.829   5.526  0.00  0.00    -0.346 N 
HETATM   38  C   UNK N   1      28.341  15.562   5.006  0.00  0.00     0.048 A 
ATOM     39  HN  UNK N   1      27.771  17.045   6.514  1.00  0.00     0.164 HD
HETATM   40  C   UNK N   1      28.325  15.795   3.479  0.00  0.00     0.209 A 
HETATM   41  C   UNK N   1      27.389  14.453   5.400  0.00  0.00     0.040 C 
HETATM   42  C   UNK N   1      29.749  15.264   5.483  0.00  0.00     0.040 C 
HETATM   43  O   UNK N   1      27.937  17.112   3.362  0.00  0.00    -0.320 OA
ENDBRANCH  34  36
ENDBRANCH   4  34
TORSDOF 6
ENDMDL
MODEL 4
REMARK VINA RESULT:      -8.5      5.009      9.435
REMARK  6 active torsions:
REMARK  status: ('A' for Active; 'I' for Inactive)
REMARK    1  A    between atoms: C_4  and  N_20 
REMARK    2  A    between atoms: C_7  and  O_8 
REMARK    3  A    between atoms: O_8  and  C_9 
REMARK    4  A    between atoms: N_20  and  C_21 
REMARK    5  A    between atoms: C_24  and  N_33 
REMARK    6  A    between atoms: N_33  and  C_34 
ROOT
HETATM    1  C   UNK N   1      30.663  17.155   6.730  0.00  0.00     0.119 A 
HETATM    2  C   UNK N   1      31.780  16.531   7.283  0.00  0.00     0.037 A 
HETATM    3  C   UNK N   1      31.804  16.124   8.620  0.00  0.00     0.047 A 
HETATM    4  C   UNK N   1      32.965  15.555   9.152  0.00  0.00     0.036 A 
HETATM    5  C   UNK N   1      34.101  15.401   8.352  0.00  0.00     0.032 A 
HETATM    6  C   UNK N   1      34.082  15.801   7.016  0.00  0.00     0.033 A 
HETATM    7  C   UNK N   1      32.923  16.352   6.473  0.00  0.00     0.047 A 
HETATM    8  N   UNK N   1      32.903  16.744   5.175  0.00  0.00    -0.352 N 
ATOM      9  HN  UNK N   1      33.729  16.605   4.592  1.00  0.00     0.166 HD
HETATM   10  C   UNK N   1      31.796  17.321   4.645  0.00  0.00     0.182 A 
HETATM   11  N   UNK N   1      30.705  17.543   5.422  0.00  0.00    -0.338 N 
ATOM     12  HN  UNK N   1      29.895  18.013   5.018  1.00  0.00     0.168 HD
ENDROOT
BRANCH   1  13
HETATM   13  N   UNK N   1      29.577  17.554   7.571  0.00  0.00    -0.342 N 
HETATM   14  H   UNK N   1      29.667  17.561   8.551  0.00  0.00     0.167 HD
BRANCH  13  15
HETATM   15  C   UNK N   1      28.370  17.936   6.941  0.00  0.00     0.034 C 
HETATM   16  C   UNK N   1      28.015  19.294   6.962  0.00  0.00     0.039 C 
HETATM   17  C   UNK N   1      27.173  19.825   5.973  0.00  0.00    -0.026 C 
HETATM   18  C   UNK N   1      26.902  21.289   5.954  0.00  0.00     0.051 C 
HETATM   19  C   UNK N   1      26.741  18.991   4.929  0.00  0.00     0.082 C 
HETATM   20  C   UNK N   1      27.014  17.615   4.987  0.00  0.00     0.040 C 
HETATM   21  C   UNK N   1      27.822  17.098   5.974  0.00  0.00     0.032 C 
BRANCH  19  22
HETATM   22  O   UNK N   1      26.165  19.488   3.804  0.00  0.00    -0.310 OA
BRANCH  22  23
HETATM   23  C   UNK N   1      24.807  19.552   3.798  0.00  0.00     0.081 A 
HETATM   24  C   UNK N   1      24.162  20.544   3.005  0.00  0.00     0.056 A 
HETATM   25  C   UNK N   1      22.781  20.478   2.791  0.00  0.00     0.121 A 
HETATM   26  N   UNK N   1      22.113  19.442   3.343  0.00  0.00    -0.250 N 
HETATM   27  C   UNK N   1      22.683  18.513   4.110  0.00  0.00     0.130 A 
HETATM   28  N   UNK N   1      20.833  19.159   3.218  0.00  0.00    -0.288 N 
HETATM   29  C   UNK N   1      24.050  18.524   4.383  0.00  0.00     0.087 A 
HETATM   30  N   UNK N   1      21.787  17.595   4.504  0.00  0.00    -0.336 N 
HETATM   31  C   UNK N   1      20.630  18.023   3.929  0.00  0.00     0.199 A 
ATOM     32  HN  UNK N   1      21.937  16.775   5.093  1.00  0.00     0.168 HD
ATOM     33  HN  UNK N   1      20.137  19.686   2.692  1.00  0.00     0.188 HD
ENDBRANCH  22  23
ENDBRANCH  19  22
ENDBRANCH  13  15
ENDBRANCH   1  13
BRANCH   4  34
HETATM   34  N   UNK N   1      32.945  14.970  10.431  0.00  0.00    -0.322 N 
HETATM   35  H   UNK N   1      32.094  14.700  10.847  0.00  0.00     0.169 HD
BRANCH  34  36
HETATM   36  C   UNK N   1      34.173  14.777  11.111  0.00  0.00     0.220 A 
HETATM   37  N   UNK N   1      34.589  13.635  11.463  0.00  0.00    -0.346 N 
HETATM   38  C   UNK N   1      35.794  13.777  12.233  0.00  0.00     0.048 A 
ATOM     39  HN  UNK N   1      34.138  12.749  11.235  1.00  0.00     0.164 HD
HETATM   40  C   UNK N   1      36.027  15.303  12.227  0.00  0.00     0.209 A 
HETATM   41  C   UNK N   1      36.948  13.046  11.581  0.00  0.00     0.040 C 
HETATM   42  C   UNK N   1      35.567  13.280  13.648  0.00  0.00     0.040 C 
HETATM   43  O   UNK N   1      34.947  15.787  11.520  0.00  0.00    -0.320 OA
ENDBRANCH  34  36
ENDBRANCH   4  34
TORSDOF 6
ENDMDL
MODEL 5
REMARK VINA RESULT:      -8.5      2.273      7.269
REMARK  6 active torsions:
REMARK  status: ('A' for Active; 'I' for Inactive)
REMARK    1  A    between atoms: C_4  and  N_20 
REMARK    2  A    between atoms: C_7  and  O_8 
REMARK    3  A    between atoms: O_8  and  C_9 
REMARK    4  A    between atoms: N_20  and  C_21 
REMARK    5  A    between atoms: C_24  and  N_33 
REMARK    6  A    between atoms: N_33  and  C_34 
ROOT
HETATM    1  C   UNK N   1      21.743  18.082   4.824  0.00  0.00     0.119 A 
HETATM    2  C   UNK N   1      20.948  17.019   5.249  0.00  0.00     0.037 A 
HETATM    3  C   UNK N   1      21.243  16.306   6.414  0.00  0.00     0.047 A 
HETATM    4  C   UNK N   1      20.455  15.208   6.775  0.00  0.00     0.036 A 
HETATM    5  C   UNK N   1      19.381  14.820   5.969  0.00  0.00     0.032 A 
HETATM    6  C   UNK N   1      19.079  15.531   4.807  0.00  0.00     0.033 A 
HETATM    7  C   UNK N   1      19.848  16.638   4.451  0.00  0.00     0.047 A 
HETATM    8  N   UNK N   1      19.558  17.328   3.320  0.00  0.00    -0.352 N 
ATOM      9  HN  UNK N   1      18.757  17.053   2.751  1.00  0.00     0.166 HD
HETATM   10  C   UNK N   1      20.323  18.380   2.938  0.00  0.00     0.182 A 
HETATM   11  N   UNK N   1      21.412  18.731   3.669  0.00  0.00    -0.338 N 
ATOM     12  HN  UNK N   1      21.999  19.501   3.347  1.00  0.00     0.168 HD
ENDROOT
BRANCH   1  13
HETATM   13  N   UNK N   1      22.984  18.355   5.479  0.00  0.00    -0.342 N 
HETATM   14  H   UNK N   1      23.010  18.704   6.399  0.00  0.00     0.167 HD
BRANCH  13  15
HETATM   15  C   UNK N   1      24.173  18.105   4.756  0.00  0.00     0.034 C 
HETATM   16  C   UNK N   1      24.940  19.206   4.344  0.00  0.00     0.039 C 
HETATM   17  C   UNK N   1      26.316  19.067   4.109  0.00  0.00    -0.026 C 
HETATM   18  C   UNK N   1      27.127  20.273   3.781  0.00  0.00     0.051 C 
HETATM   19  C   UNK N   1      26.925  17.825   4.350  0.00  0.00     0.082 C 
HETATM   20  C   UNK N   1      26.125  16.711   4.652  0.00  0.00     0.040 C 
HETATM   21  C   UNK N   1      24.771  16.852   4.859  0.00  0.00     0.032 C 
BRANCH  19  22
HETATM   22  O   UNK N   1      28.274  17.687   4.414  0.00  0.00    -0.310 OA
BRANCH  22  23
HETATM   23  C   UNK N   1      28.811  17.548   5.656  0.00  0.00     0.081 A 
HETATM   24  C   UNK N   1      30.150  17.081   5.785  0.00  0.00     0.056 A 
HETATM   25  C   UNK N   1      30.800  17.159   7.022  0.00  0.00     0.121 A 
HETATM   26  N   UNK N   1      30.118  17.704   8.052  0.00  0.00    -0.250 N 
HETATM   27  C   UNK N   1      28.856  18.126   7.969  0.00  0.00     0.130 A 
HETATM   28  N   UNK N   1      30.557  17.926   9.273  0.00  0.00    -0.288 N 
HETATM   29  C   UNK N   1      28.139  18.062   6.776  0.00  0.00     0.087 A 
HETATM   30  N   UNK N   1      28.440  18.639   9.137  0.00  0.00    -0.336 N 
HETATM   31  C   UNK N   1      29.529  18.503   9.943  0.00  0.00     0.199 A 
ATOM     32  HN  UNK N   1      27.528  19.034   9.366  1.00  0.00     0.168 HD
ATOM     33  HN  UNK N   1      31.483  17.711   9.641  1.00  0.00     0.188 HD
ENDBRANCH  22  23
ENDBRANCH  19  22
ENDBRANCH  13  15
ENDBRANCH   1  13
BRANCH   4  34
HETATM   34  N   UNK N   1      20.620  14.601   8.033  0.00  0.00    -0.322 N 
HETATM   35  H   UNK N   1      19.892  14.616   8.697  0.00  0.00     0.169 HD
BRANCH  34  36
HETATM   36  C   UNK N   1      21.852  13.970   8.328  0.00  0.00     0.220 A 
HETATM   37  N   UNK N   1      22.561  13.403   7.445  0.00  0.00    -0.346 N 
HETATM   38  C   UNK N   1      23.682  12.755   8.068  0.00  0.00     0.048 A 
ATOM     39  HN  UNK N   1      22.365  13.406   6.444  1.00  0.00     0.164 HD
HETATM   40  C   UNK N   1      23.495  13.106   9.561  0.00  0.00     0.209 A 
HETATM   41  C   UNK N   1      24.991  13.300   7.539  0.00  0.00     0.040 C 
HETATM   42  C   UNK N   1      23.595  11.255   7.861  0.00  0.00     0.040 C 
HETATM   43  O   UNK N   1      22.325  13.836   9.572  0.00  0.00    -0.320 OA
ENDBRANCH  34  36
ENDBRANCH   4  34
TORSDOF 6
ENDMDL
MODEL 6
REMARK VINA RESULT:      -8.4      6.568     10.574
REMARK  6 active torsions:
REMARK  status: ('A' for Active; 'I' for Inactive)
REMARK    1  A    between atoms: C_4  and  N_20 
REMARK    2  A    between atoms: C_7  and  O_8 
REMARK    3  A    between atoms: O_8  and  C_9 
REMARK    4  A    between atoms: N_20  and  C_21 
REMARK    5  A    between atoms: C_24  and  N_33 
REMARK    6  A    between atoms: N_33  and  C_34 
ROOT
HETATM    1  C   UNK N   1      30.640  17.600   8.028  0.00  0.00     0.119 A 
HETATM    2  C   UNK N   1      29.784  17.556   6.929  0.00  0.00     0.037 A 
HETATM    3  C   UNK N   1      30.261  17.300   5.640  0.00  0.00     0.047 A 
HETATM    4  C   UNK N   1      29.379  17.323   4.556  0.00  0.00     0.036 A 
HETATM    5  C   UNK N   1      28.026  17.609   4.758  0.00  0.00     0.032 A 
HETATM    6  C   UNK N   1      27.543  17.862   6.042  0.00  0.00     0.033 A 
HETATM    7  C   UNK N   1      28.412  17.822   7.131  0.00  0.00     0.047 A 
HETATM    8  N   UNK N   1      27.945  18.070   8.379  0.00  0.00    -0.352 N 
ATOM      9  HN  UNK N   1      26.952  18.254   8.521  1.00  0.00     0.166 HD
HETATM   10  C   UNK N   1      28.788  18.078   9.442  0.00  0.00     0.182 A 
HETATM   11  N   UNK N   1      30.117  17.870   9.260  0.00  0.00    -0.338 N 
ATOM     12  HN  UNK N   1      30.742  17.917  10.064  1.00  0.00     0.168 HD
ENDROOT
BRANCH   1  13
HETATM   13  N   UNK N   1      32.056  17.558   7.834  0.00  0.00    -0.342 N 
HETATM   14  H   UNK N   1      32.492  18.094   7.132  0.00  0.00     0.167 HD
BRANCH  13  15
HETATM   15  C   UNK N   1      32.807  16.717   8.687  0.00  0.00     0.034 C 
HETATM   16  C   UNK N   1      32.564  15.335   8.635  0.00  0.00     0.039 C 
HETATM   17  C   UNK N   1      33.558  14.423   9.019  0.00  0.00    -0.026 C 
HETATM   18  C   UNK N   1      33.315  12.963   8.849  0.00  0.00     0.051 C 
HETATM   19  C   UNK N   1      34.820  14.911   9.397  0.00  0.00     0.082 C 
HETATM   20  C   UNK N   1      35.007  16.294   9.551  0.00  0.00     0.040 C 
HETATM   21  C   UNK N   1      34.018  17.183   9.193  0.00  0.00     0.032 C 
BRANCH  19  22
HETATM   22  O   UNK N   1      35.900  14.097   9.510  0.00  0.00    -0.310 OA
BRANCH  22  23
HETATM   23  C   UNK N   1      36.113  13.539  10.733  0.00  0.00     0.081 A 
HETATM   24  C   UNK N   1      36.641  12.219  10.812  0.00  0.00     0.056 A 
HETATM   25  C   UNK N   1      37.092  11.720  12.038  0.00  0.00     0.121 A 
HETATM   26  N   UNK N   1      37.020  12.540  13.109  0.00  0.00    -0.250 N 
HETATM   27  C   UNK N   1      36.508  13.769  13.073  0.00  0.00     0.130 A 
HETATM   28  N   UNK N   1      37.441  12.294  14.333  0.00  0.00    -0.288 N 
HETATM   29  C   UNK N   1      36.023  14.327  11.892  0.00  0.00     0.087 A 
HETATM   30  N   UNK N   1      36.584  14.360  14.275  0.00  0.00    -0.336 N 
HETATM   31  C   UNK N   1      37.177  13.412  15.052  0.00  0.00     0.199 A 
ATOM     32  HN  UNK N   1      36.273  15.295  14.543  1.00  0.00     0.168 HD
ATOM     33  HN  UNK N   1      37.879  11.437  14.671  1.00  0.00     0.188 HD
ENDBRANCH  22  23
ENDBRANCH  19  22
ENDBRANCH  13  15
ENDBRANCH   1  13
BRANCH   4  34
HETATM   34  N   UNK N   1      29.803  16.882   3.288  0.00  0.00    -0.322 N 
HETATM   35  H   UNK N   1      29.226  16.997   2.498  0.00  0.00     0.169 HD
BRANCH  34  36
HETATM   36  C   UNK N   1      31.074  16.270   3.171  0.00  0.00     0.220 A 
HETATM   37  N   UNK N   1      31.283  15.060   3.480  0.00  0.00    -0.346 N 
HETATM   38  C   UNK N   1      32.686  14.770   3.368  0.00  0.00     0.048 A 
ATOM     39  HN  UNK N   1      30.566  14.394   3.766  1.00  0.00     0.164 HD
HETATM   40  C   UNK N   1      33.275  16.108   2.871  0.00  0.00     0.209 A 
HETATM   41  C   UNK N   1      32.935  13.660   2.369  0.00  0.00     0.040 C 
HETATM   42  C   UNK N   1      33.253  14.413   4.728  0.00  0.00     0.040 C 
HETATM   43  O   UNK N   1      32.176  16.938   2.815  0.00  0.00    -0.320 OA
ENDBRANCH  34  36
ENDBRANCH   4  34
TORSDOF 6
ENDMDL
MODEL 7
REMARK VINA RESULT:      -8.4      6.092     11.390
REMARK  6 active torsions:
REMARK  status: ('A' for Active; 'I' for Inactive)
REMARK    1  A    between atoms: C_4  and  N_20 
REMARK    2  A    between atoms: C_7  and  O_8 
REMARK    3  A    between atoms: O_8  and  C_9 
REMARK    4  A    between atoms: N_20  and  C_21 
REMARK    5  A    between atoms: C_24  and  N_33 
REMARK    6  A    between atoms: N_33  and  C_34 
ROOT
HETATM    1  C   UNK N   1      33.442  16.231   7.994  0.00  0.00     0.119 A 
HETATM    2  C   UNK N   1      34.121  15.902   9.166  0.00  0.00     0.037 A 
HETATM    3  C   UNK N   1      33.959  14.656   9.780  0.00  0.00     0.047 A 
HETATM    4  C   UNK N   1      34.612  14.387  10.987  0.00  0.00     0.036 A 
HETATM    5  C   UNK N   1      35.417  15.363  11.583  0.00  0.00     0.032 A 
HETATM    6  C   UNK N   1      35.585  16.606  10.973  0.00  0.00     0.033 A 
HETATM    7  C   UNK N   1      34.953  16.875   9.760  0.00  0.00     0.047 A 
HETATM    8  N   UNK N   1      35.113  18.085   9.167  0.00  0.00    -0.352 N 
ATOM      9  HN  UNK N   1      35.722  18.782   9.597  1.00  0.00     0.166 HD
HETATM   10  C   UNK N   1      34.470  18.376   8.009  0.00  0.00     0.182 A 
HETATM   11  N   UNK N   1      33.629  17.469   7.450  0.00  0.00    -0.338 N 
ATOM     12  HN  UNK N   1      33.124  17.718   6.600  1.00  0.00     0.168 HD
ENDROOT
BRANCH   1  13
HETATM   13  N   UNK N   1      32.426  15.361   7.488  0.00  0.00    -0.342 N 
HETATM   14  H   UNK N   1      32.619  14.420   7.276  0.00  0.00     0.167 HD
BRANCH  13  15
HETATM   15  C   UNK N   1      31.134  15.905   7.302  0.00  0.00     0.034 C 
HETATM   16  C   UNK N   1      30.502  16.499   8.407  0.00  0.00     0.039 C 
HETATM   17  C   UNK N   1      29.516  17.479   8.220  0.00  0.00    -0.026 C 
HETATM   18  C   UNK N   1      28.941  18.172   9.407  0.00  0.00     0.051 C 
HETATM   19  C   UNK N   1      29.216  17.902   6.915  0.00  0.00     0.082 C 
HETATM   20  C   UNK N   1      29.776  17.220   5.823  0.00  0.00     0.040 C 
HETATM   21  C   UNK N   1      30.726  16.242   6.015  0.00  0.00     0.032 C 
BRANCH  19  22
HETATM   22  O   UNK N   1      28.490  19.024   6.673  0.00  0.00    -0.310 OA
BRANCH  22  23
HETATM   23  C   UNK N   1      27.580  18.950   5.665  0.00  0.00     0.081 A 
HETATM   24  C   UNK N   1      26.547  17.971   5.732  0.00  0.00     0.056 A 
HETATM   25  C   UNK N   1      25.470  18.032   4.842  0.00  0.00     0.121 A 
HETATM   26  N   UNK N   1      25.450  19.049   3.954  0.00  0.00    -0.250 N 
HETATM   27  C   UNK N   1      26.413  19.964   3.849  0.00  0.00     0.130 A 
HETATM   28  N   UNK N   1      24.509  19.325   3.076  0.00  0.00    -0.288 N 
HETATM   29  C   UNK N   1      27.526  19.957   4.688  0.00  0.00     0.087 A 
HETATM   30  N   UNK N   1      26.122  20.865   2.898  0.00  0.00    -0.336 N 
HETATM   31  C   UNK N   1      24.917  20.442   2.426  0.00  0.00     0.199 A 
ATOM     32  HN  UNK N   1      26.672  21.672   2.601  1.00  0.00     0.168 HD
ATOM     33  HN  UNK N   1      23.646  18.805   2.917  1.00  0.00     0.188 HD
ENDBRANCH  22  23
ENDBRANCH  19  22
ENDBRANCH  13  15
ENDBRANCH   1  13
BRANCH   4  34
HETATM   34  N   UNK N   1      34.614  13.083  11.516  0.00  0.00    -0.322 N 
HETATM   35  H   UNK N   1      34.302  12.322  10.974  0.00  0.00     0.169 HD
BRANCH  34  36
HETATM   36  C   UNK N   1      35.069  12.888  12.842  0.00  0.00     0.220 A 
HETATM   37  N   UNK N   1      36.278  13.050  13.182  0.00  0.00    -0.346 N 
HETATM   38  C   UNK N   1      36.450  12.660  14.555  0.00  0.00     0.048 A 
ATOM     39  HN  UNK N   1      37.017  13.402  12.574  1.00  0.00     0.164 HD
HETATM   40  C   UNK N   1      35.021  12.254  14.977  0.00  0.00     0.209 A 
HETATM   41  C   UNK N   1      36.958  13.816  15.391  0.00  0.00     0.040 C 
HETATM   42  C   UNK N   1      37.387  11.472  14.644  0.00  0.00     0.040 C 
HETATM   43  O   UNK N   1      34.287  12.426  13.823  0.00  0.00    -0.320 OA
ENDBRANCH  34  36
ENDBRANCH   4  34
TORSDOF 6
ENDMDL
MODEL 8
REMARK VINA RESULT:      -8.4      4.147      6.768
REMARK  6 active torsions:
REMARK  status: ('A' for Active; 'I' for Inactive)
REMARK    1  A    between atoms: C_4  and  N_20 
REMARK    2  A    between atoms: C_7  and  O_8 
REMARK    3  A    between atoms: O_8  and  C_9 
REMARK    4  A    between atoms: N_20  and  C_21 
REMARK    5  A    between atoms: C_24  and  N_33 
REMARK    6  A    between atoms: N_33  and  C_34 
ROOT
HETATM    1  C   UNK N   1      27.472  17.962   4.388  0.00  0.00     0.119 A 
HETATM    2  C   UNK N   1      27.891  18.185   5.699  0.00  0.00     0.037 A 
HETATM    3  C   UNK N   1      28.851  17.372   6.308  0.00  0.00     0.047 A 
HETATM    4  C   UNK N   1      29.201  17.592   7.644  0.00  0.00     0.036 A 
HETATM    5  C   UNK N   1      28.588  18.616   8.371  0.00  0.00     0.032 A 
HETATM    6  C   UNK N   1      27.632  19.433   7.767  0.00  0.00     0.033 A 
HETATM    7  C   UNK N   1      27.291  19.233   6.431  0.00  0.00     0.047 A 
HETATM    8  N   UNK N   1      26.360  20.024   5.843  0.00  0.00    -0.352 N 
ATOM      9  HN  UNK N   1      25.935  20.785   6.374  1.00  0.00     0.166 HD
HETATM   10  C   UNK N   1      25.987  19.813   4.556  0.00  0.00     0.182 A 
HETATM   11  N   UNK N   1      26.520  18.781   3.853  0.00  0.00    -0.338 N 
ATOM     12  HN  UNK N   1      26.200  18.613   2.899  1.00  0.00     0.168 HD
ENDROOT
BRANCH   1  13
HETATM   13  N   UNK N   1      27.889  16.783   3.695  0.00  0.00    -0.342 N 
HETATM   14  H   UNK N   1      28.808  16.689   3.355  0.00  0.00     0.167 HD
BRANCH  13  15
HETATM   15  C   UNK N   1      26.931  15.759   3.514  0.00  0.00     0.034 C 
HETATM   16  C   UNK N   1      26.276  15.259   4.651  0.00  0.00     0.039 C 
HETATM   17  C   UNK N   1      25.010  14.665   4.539  0.00  0.00    -0.026 C 
HETATM   18  C   UNK N   1      24.289  14.244   5.773  0.00  0.00     0.051 C 
HETATM   19  C   UNK N   1      24.382  14.633   3.283  0.00  0.00     0.082 C 
HETATM   20  C   UNK N   1      25.099  15.034   2.144  0.00  0.00     0.040 C 
HETATM   21  C   UNK N   1      26.350  15.596   2.259  0.00  0.00     0.032 C 
BRANCH  19  22
HETATM   22  O   UNK N   1      23.065  14.333   3.145  0.00  0.00    -0.310 OA
BRANCH  22  23
HETATM   23  C   UNK N   1      22.271  15.315   2.641  0.00  0.00     0.081 A 
HETATM   24  C   UNK N   1      21.548  15.074   1.438  0.00  0.00     0.056 A 
HETATM   25  C   UNK N   1      20.548  15.965   1.034  0.00  0.00     0.121 A 
HETATM   26  N   UNK N   1      20.298  17.026   1.831  0.00  0.00    -0.250 N 
HETATM   27  C   UNK N   1      20.973  17.293   2.949  0.00  0.00     0.130 A 
HETATM   28  N   UNK N   1      19.368  17.945   1.671  0.00  0.00    -0.288 N 
HETATM   29  C   UNK N   1      21.994  16.461   3.404  0.00  0.00     0.087 A 
HETATM   30  N   UNK N   1      20.498  18.394   3.549  0.00  0.00    -0.336 N 
HETATM   31  C   UNK N   1      19.487  18.787   2.727  0.00  0.00     0.199 A 
ATOM     32  HN  UNK N   1      20.818  18.833   4.414  1.00  0.00     0.168 HD
ATOM     33  HN  UNK N   1      18.694  18.009   0.909  1.00  0.00     0.188 HD
ENDBRANCH  22  23
ENDBRANCH  19  22
ENDBRANCH  13  15
ENDBRANCH   1  13
BRANCH   4  34
HETATM   34  N   UNK N   1      30.295  16.911   8.210  0.00  0.00    -0.322 N 
HETATM   35  H   UNK N   1      30.159  16.259   8.936  0.00  0.00     0.169 HD
BRANCH  34  36
HETATM   36  C   UNK N   1      31.595  17.183   7.719  0.00  0.00     0.220 A 
HETATM   37  N   UNK N   1      32.147  16.484   6.819  0.00  0.00    -0.346 N 
HETATM   38  C   UNK N   1      33.499  16.932   6.623  0.00  0.00     0.048 A 
ATOM     39  HN  UNK N   1      31.700  15.721   6.311  1.00  0.00     0.164 HD
HETATM   40  C   UNK N   1      33.616  18.113   7.611  0.00  0.00     0.209 A 
HETATM   41  C   UNK N   1      33.720  17.389   5.197  0.00  0.00     0.040 C 
HETATM   42  C   UNK N   1      34.470  15.828   6.996  0.00  0.00     0.040 C 
HETATM   43  O   UNK N   1      32.382  18.137   8.226  0.00  0.00    -0.320 OA
ENDBRANCH  34  36
ENDBRANCH   4  34
TORSDOF 6
ENDMDL
MODEL 9
REMARK VINA RESULT:      -8.3      4.775      9.506
REMARK  6 active torsions:
REMARK  status: ('A' for Active; 'I' for Inactive)
REMARK    1  A    between atoms: C_4  and  N_20 
REMARK    2  A    between atoms: C_7  and  O_8 
REMARK    3  A    between atoms: O_8  and  C_9 
REMARK    4  A    between atoms: N_20  and  C_21 
REMARK    5  A    between atoms: C_24  and  N_33 
REMARK    6  A    between atoms: N_33  and  C_34 
ROOT
HETATM    1  C   UNK N   1      27.630  18.141   3.956  0.00  0.00     0.119 A 
HETATM    2  C   UNK N   1      26.251  17.954   4.048  0.00  0.00     0.037 A 
HETATM    3  C   UNK N   1      25.662  16.715   3.778  0.00  0.00     0.047 A 
HETATM    4  C   UNK N   1      24.271  16.584   3.822  0.00  0.00     0.036 A 
HETATM    5  C   UNK N   1      23.471  17.689   4.127  0.00  0.00     0.032 A 
HETATM    6  C   UNK N   1      24.053  18.927   4.401  0.00  0.00     0.033 A 
HETATM    7  C   UNK N   1      25.440  19.061   4.377  0.00  0.00     0.047 A 
HETATM    8  N   UNK N   1      26.008  20.264   4.640  0.00  0.00    -0.352 N 
ATOM      9  HN  UNK N   1      25.418  21.060   4.886  1.00  0.00     0.166 HD
HETATM   10  C   UNK N   1      27.354  20.420   4.578  0.00  0.00     0.182 A 
HETATM   11  N   UNK N   1      28.145  19.378   4.217  0.00  0.00    -0.338 N 
ATOM     12  HN  UNK N   1      29.152  19.522   4.138  1.00  0.00     0.168 HD
ENDROOT
BRANCH   1  13
HETATM   13  N   UNK N   1      28.457  17.110   3.412  0.00  0.00    -0.342 N 
HETATM   14  H   UNK N   1      28.218  16.652   2.574  0.00  0.00     0.167 HD
BRANCH  13  15
HETATM   15  C   UNK N   1      29.632  16.771   4.123  0.00  0.00     0.034 C 
HETATM   16  C   UNK N   1      30.821  16.605   3.395  0.00  0.00     0.039 C 
HETATM   17  C   UNK N   1      32.066  16.788   4.014  0.00  0.00    -0.026 C 
HETATM   18  C   UNK N   1      33.307  16.716   3.194  0.00  0.00     0.051 C 
HETATM   19  C   UNK N   1      32.104  17.199   5.357  0.00  0.00     0.082 C 
HETATM   20  C   UNK N   1      30.911  17.249   6.097  0.00  0.00     0.040 C 
HETATM   21  C   UNK N   1      29.694  17.046   5.487  0.00  0.00     0.032 C 
BRANCH  19  22
HETATM   22  O   UNK N   1      33.243  17.659   5.935  0.00  0.00    -0.310 OA
BRANCH  22  23
HETATM   23  C   UNK N   1      33.727  16.934   6.979  0.00  0.00     0.081 A 
HETATM   24  C   UNK N   1      34.289  15.649   6.731  0.00  0.00     0.056 A 
HETATM   25  C   UNK N   1      35.006  14.995   7.739  0.00  0.00     0.121 A 
HETATM   26  N   UNK N   1      35.150  15.635   8.919  0.00  0.00    -0.250 N 
HETATM   27  C   UNK N   1      34.615  16.825   9.190  0.00  0.00     0.130 A 
HETATM   28  N   UNK N   1      35.831  15.230   9.971  0.00  0.00    -0.288 N 
HETATM   29  C   UNK N   1      33.873  17.528   8.243  0.00  0.00     0.087 A 
HETATM   30  N   UNK N   1      34.936  17.229  10.429  0.00  0.00    -0.336 N 
HETATM   31  C   UNK N   1      35.704  16.208  10.900  0.00  0.00     0.199 A 
ATOM     32  HN  UNK N   1      34.669  18.092  10.903  1.00  0.00     0.168 HD
ATOM     33  HN  UNK N   1      36.350  14.357  10.066  1.00  0.00     0.188 HD
ENDBRANCH  22  23
ENDBRANCH  19  22
ENDBRANCH  13  15
ENDBRANCH   1  13
BRANCH   4  34
HETATM   34  N   UNK N   1      23.676  15.311   3.742  0.00  0.00    -0.322 N 
HETATM   35  H   UNK N   1      24.153  14.513   4.068  0.00  0.00     0.169 HD
BRANCH  34  36
HETATM   36  C   UNK N   1      22.380  15.199   3.183  0.00  0.00     0.220 A 
HETATM   37  N   UNK N   1      22.167  15.231   1.936  0.00  0.00    -0.346 N 
HETATM   38  C   UNK N   1      20.751  15.217   1.688  0.00  0.00     0.048 A 
ATOM     39  HN  UNK N   1      22.889  15.262   1.217  1.00  0.00     0.164 HD
HETATM   40  C   UNK N   1      20.155  15.129   3.110  0.00  0.00     0.209 A 
HETATM   41  C   UNK N   1      20.355  14.016   0.855  0.00  0.00     0.040 C 
HETATM   42  C   UNK N   1      20.329  16.508   1.015  0.00  0.00     0.040 C 
HETATM   43  O   UNK N   1      21.268  15.146   3.924  0.00  0.00    -0.320 OA
ENDBRANCH  34  36
ENDBRANCH   4  34
TORSDOF 6
ENDMDL
