MODEL 1
REMARK VINA RESULT:      -9.5      0.000      0.000
REMARK  6 active torsions:
REMARK  status: ('A' for Active; 'I' for Inactive)
REMARK    1  A    between atoms: N_5  and  C_8 
REMARK    2  A    between atoms: C_11  and  C_14 
REMARK       I    between atoms: C_14  and  N_16 
REMARK    3  A    between atoms: N_16  and  C_17 
REMARK       I    between atoms: N_24  and  C_26 
REMARK    4  A    between atoms: C_26  and  C_28 
REMARK    5  A    between atoms: C_28  and  C_29 
REMARK    6  A    between atoms: C_28  and  O_35 
ROOT
HETATM    1  C   UNK N   1      36.577  14.350  10.503  0.00  0.00     0.132 A 
HETATM    2  C   UNK N   1      36.295  13.664  11.618  0.00  0.00     0.031 A 
HETATM    3  C   UNK N   1      37.391  13.052  11.986  0.00  0.00     0.055 A 
HETATM    4  N   UNK N   1      38.390  13.341  11.118  0.00  0.00    -0.301 N 
HETATM    5  N   UNK N   1      37.879  14.155  10.184  0.00  0.00    -0.285 N 
ATOM      6  HN  UNK N   1      38.374  14.552   9.386  1.00  0.00     0.188 HD
HETATM    7  C   UNK N   1      37.178  12.229  13.202  0.00  0.00     0.185 A 
HETATM    8  N   UNK N   1      35.751  12.518  13.439  0.00  0.00    -0.340 N 
HETATM    9  C   UNK N   1      35.145  13.413  12.468  0.00  0.00     0.171 A 
HETATM   10  C   UNK N   1      35.001  12.035  14.470  0.00  0.00     0.254 C 
HETATM   11  O   UNK N   1      33.829  12.377  14.550  0.00  0.00    -0.270 OA
HETATM   12  H   UNK N   1      39.318  13.014  11.164  0.00  0.00     0.186 HD
ENDROOT
BRANCH   1  13
HETATM   13  N   UNK N   1      35.579  15.069   9.838  0.00  0.00    -0.307 N 
HETATM   14  C   UNK N   1      35.165  16.350   9.809  0.00  0.00     0.257 C 
HETATM   15  O   UNK N   1      35.678  17.212  10.507  0.00  0.00    -0.267 OA
HETATM   16  H   UNK N   1      35.044  14.496   9.242  0.00  0.00     0.170 HD
BRANCH  14  17
HETATM   17  C   UNK N   1      34.073  16.631   8.852  0.00  0.00     0.032 A 
HETATM   18  C   UNK N   1      34.161  17.539   7.786  0.00  0.00     0.019 A 
HETATM   19  C   UNK N   1      33.052  17.713   6.933  0.00  0.00     0.030 A 
HETATM   20  C   UNK N   1      31.861  16.978   7.140  0.00  0.00     0.030 A 
HETATM   21  C   UNK N   1      31.800  16.081   8.204  0.00  0.00     0.030 A 
HETATM   22  C   UNK N   1      32.883  15.914   9.039  0.00  0.00     0.019 A 
BRANCH  20  23
HETATM   23  N   UNK N   1      30.712  17.144   6.308  0.00  0.00    -0.378 N 
HETATM   24  C   UNK N   1      29.416  17.414   6.915  0.00  0.00     0.153 C 
HETATM   25  C   UNK N   1      28.248  17.271   5.940  0.00  0.00     0.291 C 
HETATM   26  N   UNK N   1      28.584  17.850   4.650  0.00  0.00     0.087 N 
HETATM   27  C   UNK N   1      27.408  17.724   3.810  0.00  0.00     0.310 C 
HETATM   28  C   UNK N   1      29.600  16.995   4.071  0.00  0.00     0.291 C 
HETATM   29  C   UNK N   1      30.896  17.117   4.856  0.00  0.00     0.153 C 
ENDBRANCH  20  23
ENDBRANCH  14  17
ENDBRANCH   1  13
BRANCH  10  30
HETATM   30  C   UNK N   1      35.585  11.091  15.513  0.00  0.00     0.245 C 
BRANCH  30  31
HETATM   31  C   UNK N   1      35.511  11.527  16.975  0.00  0.00    -0.020 A 
HETATM   32  C   UNK N   1      35.365  12.892  17.260  0.00  0.00     0.010 A 
HETATM   33  C   UNK N   1      35.266  13.338  18.581  0.00  0.00     0.001 A 
HETATM   34  C   UNK N   1      35.316  12.424  19.636  0.00  0.00     0.000 A 
HETATM   35  C   UNK N   1      35.466  11.062  19.369  0.00  0.00     0.001 A 
HETATM   36  C   UNK N   1      35.561  10.618  18.049  0.00  0.00     0.010 A 
ENDBRANCH  30  31
BRANCH  30  37
HETATM   37  O   UNK N   1      36.915  10.799  15.193  0.00  0.00    -0.377 OA
HETATM   38  C   UNK N   1      36.977   9.403  15.147  0.00  0.00     0.203 C 
ENDBRANCH  30  37
ENDBRANCH  10  30
TORSDOF 6
ENDMDL
MODEL 2
REMARK VINA RESULT:      -9.4      2.497     11.301
REMARK  6 active torsions:
REMARK  status: ('A' for Active; 'I' for Inactive)
REMARK    1  A    between atoms: N_5  and  C_8 
REMARK    2  A    between atoms: C_11  and  C_14 
REMARK       I    between atoms: C_14  and  N_16 
REMARK    3  A    between atoms: N_16  and  C_17 
REMARK       I    between atoms: N_24  and  C_26 
REMARK    4  A    between atoms: C_26  and  C_28 
REMARK    5  A    between atoms: C_28  and  C_29 
REMARK    6  A    between atoms: C_28  and  O_35 
ROOT
HETATM    1  C   UNK N   1      34.934  16.795   9.893  0.00  0.00     0.132 A 
HETATM    2  C   UNK N   1      34.087  16.586   8.878  0.00  0.00     0.031 A 
HETATM    3  C   UNK N   1      34.076  17.673   8.150  0.00  0.00     0.055 A 
HETATM    4  N   UNK N   1      34.919  18.589   8.683  0.00  0.00    -0.301 N 
HETATM    5  N   UNK N   1      35.457  18.039   9.780  0.00  0.00    -0.285 N 
ATOM      6  HN  UNK N   1      36.132  18.473  10.411  1.00  0.00     0.188 HD
HETATM    7  C   UNK N   1      33.136  17.559   7.007  0.00  0.00     0.185 A 
HETATM    8  N   UNK N   1      32.638  16.190   7.244  0.00  0.00    -0.340 N 
HETATM    9  C   UNK N   1      33.203  15.534   8.411  0.00  0.00     0.171 A 
HETATM   10  C   UNK N   1      31.738  15.525   6.465  0.00  0.00     0.254 C 
HETATM   11  O   UNK N   1      31.431  14.382   6.775  0.00  0.00    -0.270 OA
HETATM   12  H   UNK N   1      35.103  19.491   8.331  0.00  0.00     0.186 HD
ENDROOT
BRANCH   1  13
HETATM   13  N   UNK N   1      35.117  15.821  10.880  0.00  0.00    -0.307 N 
HETATM   14  C   UNK N   1      35.956  14.786  11.075  0.00  0.00     0.257 C 
HETATM   15  O   UNK N   1      36.809  14.482  10.256  0.00  0.00    -0.267 OA
HETATM   16  H   UNK N   1      34.470  15.915  11.616  0.00  0.00     0.170 HD
BRANCH  14  17
HETATM   17  C   UNK N   1      35.782  14.076  12.361  0.00  0.00     0.032 A 
HETATM   18  C   UNK N   1      35.052  12.890  12.524  0.00  0.00     0.019 A 
HETATM   19  C   UNK N   1      34.966  12.300  13.802  0.00  0.00     0.030 A 
HETATM   20  C   UNK N   1      35.614  12.891  14.913  0.00  0.00     0.030 A 
HETATM   21  C   UNK N   1      36.336  14.068  14.723  0.00  0.00     0.030 A 
HETATM   22  C   UNK N   1      36.416  14.645  13.475  0.00  0.00     0.019 A 
BRANCH  20  23
HETATM   23  N   UNK N   1      35.533  12.332  16.224  0.00  0.00    -0.378 N 
HETATM   24  C   UNK N   1      34.992  13.131  17.314  0.00  0.00     0.153 C 
HETATM   25  C   UNK N   1      35.240  12.522  18.694  0.00  0.00     0.291 C 
HETATM   26  N   UNK N   1      35.024  11.085  18.666  0.00  0.00     0.087 N 
HETATM   27  C   UNK N   1      35.224  10.600  20.019  0.00  0.00     0.310 C 
HETATM   28  C   UNK N   1      36.095  10.527  17.864  0.00  0.00     0.291 C 
HETATM   29  C   UNK N   1      35.925  10.934  16.409  0.00  0.00     0.153 C 
ENDBRANCH  20  23
ENDBRANCH  14  17
ENDBRANCH   1  13
BRANCH  10  30
HETATM   30  C   UNK N   1      31.114  16.168   5.233  0.00  0.00     0.245 C 
BRANCH  30  31
HETATM   31  C   UNK N   1      29.847  16.996   5.439  0.00  0.00    -0.020 A 
HETATM   32  C   UNK N   1      29.455  17.305   6.750  0.00  0.00     0.010 A 
HETATM   33  C   UNK N   1      28.319  18.082   6.989  0.00  0.00     0.001 A 
HETATM   34  C   UNK N   1      27.556  18.558   5.921  0.00  0.00     0.000 A 
HETATM   35  C   UNK N   1      27.930  18.255   4.610  0.00  0.00     0.001 A 
HETATM   36  C   UNK N   1      29.068  17.482   4.373  0.00  0.00     0.010 A 
ENDBRANCH  30  31
BRANCH  30  37
HETATM   37  O   UNK N   1      30.864  15.188   4.266  0.00  0.00    -0.377 OA
HETATM   38  C   UNK N   1      31.921  15.300   3.359  0.00  0.00     0.203 C 
ENDBRANCH  30  37
ENDBRANCH  10  30
TORSDOF 6
ENDMDL
MODEL 3
REMARK VINA RESULT:      -9.3      1.259      2.726
REMARK  6 active torsions:
REMARK  status: ('A' for Active; 'I' for Inactive)
REMARK    1  A    between atoms: N_5  and  C_8 
REMARK    2  A    between atoms: C_11  and  C_14 
REMARK       I    between atoms: C_14  and  N_16 
REMARK    3  A    between atoms: N_16  and  C_17 
REMARK       I    between atoms: N_24  and  C_26 
REMARK    4  A    between atoms: C_26  and  C_28 
REMARK    5  A    between atoms: C_28  and  C_29 
REMARK    6  A    between atoms: C_28  and  O_35 
ROOT
HETATM    1  C   UNK N   1      36.654  14.300  10.544  0.00  0.00     0.132 A 
HETATM    2  C   UNK N   1      36.354  13.479  11.558  0.00  0.00     0.031 A 
HETATM    3  C   UNK N   1      37.455  12.861  11.897  0.00  0.00     0.055 A 
HETATM    4  N   UNK N   1      38.477  13.281  11.112  0.00  0.00    -0.301 N 
HETATM    5  N   UNK N   1      37.973  14.185  10.261  0.00  0.00    -0.285 N 
ATOM      6  HN  UNK N   1      38.485  14.689   9.536  1.00  0.00     0.188 HD
HETATM    7  C   UNK N   1      37.225  11.893  12.998  0.00  0.00     0.185 A 
HETATM    8  N   UNK N   1      35.780  12.108  13.206  0.00  0.00    -0.340 N 
HETATM    9  C   UNK N   1      35.181  13.094  12.322  0.00  0.00     0.171 A 
HETATM   10  C   UNK N   1      35.008  11.484  14.141  0.00  0.00     0.254 C 
HETATM   11  O   UNK N   1      33.822  11.778  14.209  0.00  0.00    -0.270 OA
HETATM   12  H   UNK N   1      39.413  12.980  11.160  0.00  0.00     0.186 HD
ENDROOT
BRANCH   1  13
HETATM   13  N   UNK N   1      35.658  15.063   9.926  0.00  0.00    -0.307 N 
HETATM   14  C   UNK N   1      35.290  16.359   9.926  0.00  0.00     0.257 C 
HETATM   15  O   UNK N   1      35.861  17.193  10.612  0.00  0.00    -0.267 OA
HETATM   16  H   UNK N   1      35.080  14.516   9.346  0.00  0.00     0.170 HD
BRANCH  14  17
HETATM   17  C   UNK N   1      34.173  16.690   9.016  0.00  0.00     0.032 A 
HETATM   18  C   UNK N   1      34.163  17.776   8.128  0.00  0.00     0.019 A 
HETATM   19  C   UNK N   1      33.040  17.983   7.301  0.00  0.00     0.030 A 
HETATM   20  C   UNK N   1      31.933  17.104   7.356  0.00  0.00     0.030 A 
HETATM   21  C   UNK N   1      31.969  16.030   8.244  0.00  0.00     0.030 A 
HETATM   22  C   UNK N   1      33.065  15.831   9.054  0.00  0.00     0.019 A 
BRANCH  20  23
HETATM   23  N   UNK N   1      30.772  17.294   6.547  0.00  0.00    -0.378 N 
HETATM   24  C   UNK N   1      29.494  17.588   7.180  0.00  0.00     0.153 C 
HETATM   25  C   UNK N   1      28.304  17.471   6.228  0.00  0.00     0.291 C 
HETATM   26  N   UNK N   1      28.626  18.047   4.933  0.00  0.00     0.087 N 
HETATM   27  C   UNK N   1      27.431  17.946   4.116  0.00  0.00     0.310 C 
HETATM   28  C   UNK N   1      29.613  17.173   4.332  0.00  0.00     0.291 C 
HETATM   29  C   UNK N   1      30.926  17.268   5.092  0.00  0.00     0.153 C 
ENDBRANCH  20  23
ENDBRANCH  14  17
ENDBRANCH   1  13
BRANCH  10  30
HETATM   30  C   UNK N   1      35.584  10.440  15.089  0.00  0.00     0.245 C 
BRANCH  30  31
HETATM   31  C   UNK N   1      35.628   8.994  14.599  0.00  0.00    -0.020 A 
HETATM   32  C   UNK N   1      35.343   8.735  13.251  0.00  0.00     0.010 A 
HETATM   33  C   UNK N   1      35.395   7.432  12.749  0.00  0.00     0.001 A 
HETATM   34  C   UNK N   1      35.729   6.369  13.590  0.00  0.00     0.000 A 
HETATM   35  C   UNK N   1      36.010   6.609  14.936  0.00  0.00     0.001 A 
HETATM   36  C   UNK N   1      35.961   7.912  15.435  0.00  0.00     0.010 A 
ENDBRANCH  30  31
BRANCH  30  37
HETATM   37  O   UNK N   1      34.904  10.486  16.310  0.00  0.00    -0.377 OA
HETATM   38  C   UNK N   1      35.664  11.341  17.114  0.00  0.00     0.203 C 
ENDBRANCH  30  37
ENDBRANCH  10  30
TORSDOF 6
ENDMDL
MODEL 4
REMARK VINA RESULT:      -9.3      2.621     11.197
REMARK  6 active torsions:
REMARK  status: ('A' for Active; 'I' for Inactive)
REMARK    1  A    between atoms: N_5  and  C_8 
REMARK    2  A    between atoms: C_11  and  C_14 
REMARK       I    between atoms: C_14  and  N_16 
REMARK    3  A    between atoms: N_16  and  C_17 
REMARK       I    between atoms: N_24  and  C_26 
REMARK    4  A    between atoms: C_26  and  C_28 
REMARK    5  A    between atoms: C_28  and  C_29 
REMARK    6  A    between atoms: C_28  and  O_35 
ROOT
HETATM    1  C   UNK N   1      36.855  13.689  11.603  0.00  0.00     0.132 A 
HETATM    2  C   UNK N   1      35.837  14.131  10.853  0.00  0.00     0.031 A 
HETATM    3  C   UNK N   1      36.341  14.540   9.717  0.00  0.00     0.055 A 
HETATM    4  N   UNK N   1      37.684  14.360   9.720  0.00  0.00    -0.301 N 
HETATM    5  N   UNK N   1      38.008  13.826  10.906  0.00  0.00    -0.285 N 
ATOM      6  HN  UNK N   1      38.943  13.573  11.224  1.00  0.00     0.188 HD
HETATM    7  C   UNK N   1      35.294  15.086   8.818  0.00  0.00     0.185 A 
HETATM    8  N   UNK N   1      34.113  14.887   9.679  0.00  0.00    -0.340 N 
HETATM    9  C   UNK N   1      34.400  14.292  10.973  0.00  0.00     0.171 A 
HETATM   10  C   UNK N   1      32.826  15.195   9.349  0.00  0.00     0.254 C 
HETATM   11  O   UNK N   1      31.942  14.956  10.161  0.00  0.00    -0.270 OA
HETATM   12  H   UNK N   1      38.305  14.579   8.987  0.00  0.00     0.186 HD
ENDROOT
BRANCH   1  13
HETATM   13  N   UNK N   1      36.633  13.233  12.906  0.00  0.00    -0.307 N 
HETATM   14  C   UNK N   1      36.532  13.796  14.125  0.00  0.00     0.257 C 
HETATM   15  O   UNK N   1      36.675  14.997  14.296  0.00  0.00    -0.267 OA
HETATM   16  H   UNK N   1      36.523  12.255  12.942  0.00  0.00     0.170 HD
BRANCH  14  17
HETATM   17  C   UNK N   1      36.207  12.857  15.221  0.00  0.00     0.032 A 
HETATM   18  C   UNK N   1      36.629  11.521  15.276  0.00  0.00     0.019 A 
HETATM   19  C   UNK N   1      36.263  10.725  16.382  0.00  0.00     0.030 A 
HETATM   20  C   UNK N   1      35.483  11.266  17.431  0.00  0.00     0.030 A 
HETATM   21  C   UNK N   1      35.079  12.597  17.353  0.00  0.00     0.030 A 
HETATM   22  C   UNK N   1      35.435  13.372  16.271  0.00  0.00     0.019 A 
BRANCH  20  23
HETATM   23  N   UNK N   1      35.078  10.485  18.556  0.00  0.00    -0.378 N 
HETATM   24  C   UNK N   1      34.311   9.264  18.345  0.00  0.00     0.153 C 
HETATM   25  C   UNK N   1      33.701   8.703  19.630  0.00  0.00     0.291 C 
HETATM   26  N   UNK N   1      34.650   8.787  20.727  0.00  0.00     0.087 N 
HETATM   27  C   UNK N   1      34.015   8.185  21.884  0.00  0.00     0.310 C 
HETATM   28  C   UNK N   1      34.802  10.197  21.027  0.00  0.00     0.291 C 
HETATM   29  C   UNK N   1      35.524  10.898  19.887  0.00  0.00     0.153 C 
ENDBRANCH  20  23
ENDBRANCH  14  17
ENDBRANCH   1  13
BRANCH  10  30
HETATM   30  C   UNK N   1      32.470  15.823   8.007  0.00  0.00     0.245 C 
BRANCH  30  31
HETATM   31  C   UNK N   1      31.257  16.750   7.966  0.00  0.00    -0.020 A 
HETATM   32  C   UNK N   1      31.217  17.840   8.847  0.00  0.00     0.010 A 
HETATM   33  C   UNK N   1      30.141  18.731   8.829  0.00  0.00     0.001 A 
HETATM   34  C   UNK N   1      29.087  18.541   7.933  0.00  0.00     0.000 A 
HETATM   35  C   UNK N   1      29.109  17.458   7.053  0.00  0.00     0.001 A 
HETATM   36  C   UNK N   1      30.187  16.571   7.069  0.00  0.00     0.010 A 
ENDBRANCH  30  31
BRANCH  30  37
HETATM   37  O   UNK N   1      32.310  14.821   7.045  0.00  0.00    -0.377 OA
HETATM   38  C   UNK N   1      33.183  15.171   6.011  0.00  0.00     0.203 C 
ENDBRANCH  30  37
ENDBRANCH  10  30
TORSDOF 6
ENDMDL
MODEL 5
REMARK VINA RESULT:      -9.3      2.409      3.877
REMARK  6 active torsions:
REMARK  status: ('A' for Active; 'I' for Inactive)
REMARK    1  A    between atoms: N_5  and  C_8 
REMARK    2  A    between atoms: C_11  and  C_14 
REMARK       I    between atoms: C_14  and  N_16 
REMARK    3  A    between atoms: N_16  and  C_17 
REMARK       I    between atoms: N_24  and  C_26 
REMARK    4  A    between atoms: C_26  and  C_28 
REMARK    5  A    between atoms: C_28  and  C_29 
REMARK    6  A    between atoms: C_28  and  O_35 
ROOT
HETATM    1  C   UNK N   1      34.144  16.582   9.180  0.00  0.00     0.132 A 
HETATM    2  C   UNK N   1      34.476  15.385   9.678  0.00  0.00     0.031 A 
HETATM    3  C   UNK N   1      35.297  15.593  10.674  0.00  0.00     0.055 A 
HETATM    4  N   UNK N   1      35.498  16.923  10.833  0.00  0.00    -0.301 N 
HETATM    5  N   UNK N   1      34.774  17.546   9.892  0.00  0.00    -0.285 N 
ATOM      6  HN  UNK N   1      34.711  18.553   9.741  1.00  0.00     0.188 HD
HETATM    7  C   UNK N   1      35.757  14.319  11.281  0.00  0.00     0.185 A 
HETATM    8  N   UNK N   1      35.019  13.368  10.428  0.00  0.00    -0.340 N 
HETATM    9  C   UNK N   1      34.199  13.988   9.400  0.00  0.00     0.171 A 
HETATM   10  C   UNK N   1      35.040  12.010  10.547  0.00  0.00     0.254 C 
HETATM   11  O   UNK N   1      34.358  11.347   9.777  0.00  0.00    -0.270 OA
HETATM   12  H   UNK N   1      36.068  17.353  11.512  0.00  0.00     0.186 HD
ENDROOT
BRANCH   1  13
HETATM   13  N   UNK N   1      33.311  16.682   8.060  0.00  0.00    -0.307 N 
HETATM   14  C   UNK N   1      33.356  17.316   6.873  0.00  0.00     0.257 C 
HETATM   15  O   UNK N   1      34.285  18.047   6.565  0.00  0.00    -0.267 OA
HETATM   16  H   UNK N   1      32.485  16.157   8.166  0.00  0.00     0.170 HD
BRANCH  14  17
HETATM   17  C   UNK N   1      32.218  17.033   5.971  0.00  0.00     0.032 A 
HETATM   18  C   UNK N   1      32.186  17.350   4.606  0.00  0.00     0.019 A 
HETATM   19  C   UNK N   1      31.045  17.020   3.846  0.00  0.00     0.030 A 
HETATM   20  C   UNK N   1      29.942  16.369   4.448  0.00  0.00     0.030 A 
HETATM   21  C   UNK N   1      30.001  16.062   5.806  0.00  0.00     0.030 A 
HETATM   22  C   UNK N   1      31.115  16.388   6.548  0.00  0.00     0.019 A 
BRANCH  20  23
HETATM   23  N   UNK N   1      28.763  16.037   3.714  0.00  0.00    -0.378 N 
HETATM   24  C   UNK N   1      27.628  16.949   3.725  0.00  0.00     0.153 C 
HETATM   25  C   UNK N   1      26.351  16.334   3.153  0.00  0.00     0.291 C 
HETATM   26  N   UNK N   1      26.647  15.553   1.964  0.00  0.00     0.087 N 
HETATM   27  C   UNK N   1      25.381  15.057   1.457  0.00  0.00     0.310 C 
HETATM   28  C   UNK N   1      27.394  14.395   2.412  0.00  0.00     0.291 C 
HETATM   29  C   UNK N   1      28.769  14.819   2.902  0.00  0.00     0.153 C 
ENDBRANCH  20  23
ENDBRANCH  14  17
ENDBRANCH   1  13
BRANCH  10  30
HETATM   30  C   UNK N   1      35.884  11.310  11.604  0.00  0.00     0.245 C 
BRANCH  30  31
HETATM   31  C   UNK N   1      35.378  11.349  13.045  0.00  0.00    -0.020 A 
HETATM   32  C   UNK N   1      34.151  10.738  13.340  0.00  0.00     0.010 A 
HETATM   33  C   UNK N   1      33.659  10.724  14.648  0.00  0.00     0.001 A 
HETATM   34  C   UNK N   1      34.385  11.325  15.678  0.00  0.00     0.000 A 
HETATM   35  C   UNK N   1      35.606  11.942  15.400  0.00  0.00     0.001 A 
HETATM   36  C   UNK N   1      36.098  11.951  14.094  0.00  0.00     0.010 A 
ENDBRANCH  30  31
BRANCH  30  37
HETATM   37  O   UNK N   1      37.191  11.806  11.568  0.00  0.00    -0.377 OA
HETATM   38  C   UNK N   1      37.851  11.015  10.623  0.00  0.00     0.203 C 
ENDBRANCH  30  37
ENDBRANCH  10  30
TORSDOF 6
ENDMDL
MODEL 6
REMARK VINA RESULT:      -9.2      5.154     12.783
REMARK  6 active torsions:
REMARK  status: ('A' for Active; 'I' for Inactive)
REMARK    1  A    between atoms: N_5  and  C_8 
REMARK    2  A    between atoms: C_11  and  C_14 
REMARK       I    between atoms: C_14  and  N_16 
REMARK    3  A    between atoms: N_16  and  C_17 
REMARK       I    between atoms: N_24  and  C_26 
REMARK    4  A    between atoms: C_26  and  C_28 
REMARK    5  A    between atoms: C_28  and  C_29 
REMARK    6  A    between atoms: C_28  and  O_35 
ROOT
HETATM    1  C   UNK N   1      28.264  18.534   4.769  0.00  0.00     0.132 A 
HETATM    2  C   UNK N   1      27.071  17.946   4.920  0.00  0.00     0.031 A 
HETATM    3  C   UNK N   1      26.192  18.684   4.293  0.00  0.00     0.055 A 
HETATM    4  N   UNK N   1      26.808  19.749   3.727  0.00  0.00    -0.301 N 
HETATM    5  N   UNK N   1      28.111  19.656   4.026  0.00  0.00    -0.285 N 
ATOM      6  HN  UNK N   1      28.847  20.306   3.750  1.00  0.00     0.188 HD
HETATM    7  C   UNK N   1      24.819  18.136   4.428  0.00  0.00     0.185 A 
HETATM    8  N   UNK N   1      25.118  16.944   5.245  0.00  0.00    -0.340 N 
HETATM    9  C   UNK N   1      26.521  16.780   5.586  0.00  0.00     0.171 A 
HETATM   10  C   UNK N   1      24.208  16.020   5.667  0.00  0.00     0.254 C 
HETATM   11  O   UNK N   1      24.606  15.069   6.326  0.00  0.00    -0.270 OA
HETATM   12  H   UNK N   1      26.380  20.458   3.194  0.00  0.00     0.186 HD
ENDROOT
BRANCH   1  13
HETATM   13  N   UNK N   1      29.404  18.000   5.380  0.00  0.00    -0.307 N 
HETATM   14  C   UNK N   1      30.544  17.417   4.962  0.00  0.00     0.257 C 
HETATM   15  O   UNK N   1      30.768  17.210   3.779  0.00  0.00    -0.267 OA
HETATM   16  H   UNK N   1      29.363  18.066   6.361  0.00  0.00     0.170 HD
BRANCH  14  17
HETATM   17  C   UNK N   1      31.502  17.080   6.036  0.00  0.00     0.032 A 
HETATM   18  C   UNK N   1      32.888  17.283   5.960  0.00  0.00     0.019 A 
HETATM   19  C   UNK N   1      33.700  16.929   7.057  0.00  0.00     0.030 A 
HETATM   20  C   UNK N   1      33.128  16.381   8.230  0.00  0.00     0.030 A 
HETATM   21  C   UNK N   1      31.748  16.193   8.281  0.00  0.00     0.030 A 
HETATM   22  C   UNK N   1      30.956  16.535   7.207  0.00  0.00     0.019 A 
BRANCH  20  23
HETATM   23  N   UNK N   1      33.921  15.994   9.352  0.00  0.00    -0.378 N 
HETATM   24  C   UNK N   1      34.929  16.909   9.870  0.00  0.00     0.153 C 
HETATM   25  C   UNK N   1      35.888  16.253  10.864  0.00  0.00     0.291 C 
HETATM   26  N   UNK N   1      35.166  15.376  11.770  0.00  0.00     0.087 N 
HETATM   27  C   UNK N   1      36.137  14.844  12.708  0.00  0.00     0.310 C 
HETATM   28  C   UNK N   1      34.707  14.256  10.972  0.00  0.00     0.291 C 
HETATM   29  C   UNK N   1      33.632  14.714   9.999  0.00  0.00     0.153 C 
ENDBRANCH  20  23
ENDBRANCH  14  17
ENDBRANCH   1  13
BRANCH  10  30
HETATM   30  C   UNK N   1      22.725  16.147   5.342  0.00  0.00     0.245 C 
BRANCH  30  31
HETATM   31  C   UNK N   1      21.757  16.278   6.516  0.00  0.00    -0.020 A 
HETATM   32  C   UNK N   1      21.573  15.172   7.357  0.00  0.00     0.010 A 
HETATM   33  C   UNK N   1      20.718  15.250   8.460  0.00  0.00     0.001 A 
HETATM   34  C   UNK N   1      20.032  16.435   8.734  0.00  0.00     0.000 A 
HETATM   35  C   UNK N   1      20.201  17.544   7.903  0.00  0.00     0.001 A 
HETATM   36  C   UNK N   1      21.058  17.465   6.804  0.00  0.00     0.010 A 
ENDBRANCH  30  31
BRANCH  30  37
HETATM   37  O   UNK N   1      22.326  15.073   4.540  0.00  0.00    -0.377 OA
HETATM   38  C   UNK N   1      22.053  15.638   3.290  0.00  0.00     0.203 C 
ENDBRANCH  30  37
ENDBRANCH  10  30
TORSDOF 6
ENDMDL
MODEL 7
REMARK VINA RESULT:      -9.1      3.029     11.161
REMARK  6 active torsions:
REMARK  status: ('A' for Active; 'I' for Inactive)
REMARK    1  A    between atoms: N_5  and  C_8 
REMARK    2  A    between atoms: C_11  and  C_14 
REMARK       I    between atoms: C_14  and  N_16 
REMARK    3  A    between atoms: N_16  and  C_17 
REMARK       I    between atoms: N_24  and  C_26 
REMARK    4  A    between atoms: C_26  and  C_28 
REMARK    5  A    between atoms: C_28  and  C_29 
REMARK    6  A    between atoms: C_28  and  O_35 
ROOT
HETATM    1  C   UNK N   1      37.347  13.094  11.446  0.00  0.00     0.132 A 
HETATM    2  C   UNK N   1      36.434  13.138  10.468  0.00  0.00     0.031 A 
HETATM    3  C   UNK N   1      37.052  13.506   9.376  0.00  0.00     0.055 A 
HETATM    4  N   UNK N   1      38.368  13.695   9.636  0.00  0.00    -0.301 N 
HETATM    5  N   UNK N   1      38.554  13.437  10.937  0.00  0.00    -0.285 N 
ATOM      6  HN  UNK N   1      39.435  13.491  11.449  1.00  0.00     0.188 HD
HETATM    7  C   UNK N   1      36.117  13.621   8.229  0.00  0.00     0.185 A 
HETATM    8  N   UNK N   1      34.864  13.233   8.903  0.00  0.00    -0.340 N 
HETATM    9  C   UNK N   1      35.007  12.923  10.316  0.00  0.00     0.171 A 
HETATM   10  C   UNK N   1      33.639  13.136   8.312  0.00  0.00     0.254 C 
HETATM   11  O   UNK N   1      32.687  12.783   8.996  0.00  0.00    -0.270 OA
HETATM   12  H   UNK N   1      39.059  13.969   8.989  0.00  0.00     0.186 HD
ENDROOT
BRANCH   1  13
HETATM   13  N   UNK N   1      36.972  12.780  12.757  0.00  0.00    -0.307 N 
HETATM   14  C   UNK N   1      36.547  13.468  13.833  0.00  0.00     0.257 C 
HETATM   15  O   UNK N   1      36.438  14.685  13.821  0.00  0.00    -0.267 OA
HETATM   16  H   UNK N   1      37.035  11.814  12.938  0.00  0.00     0.170 HD
BRANCH  14  17
HETATM   17  C   UNK N   1      36.198  12.638  15.007  0.00  0.00     0.032 A 
HETATM   18  C   UNK N   1      36.682  11.342  15.237  0.00  0.00     0.019 A 
HETATM   19  C   UNK N   1      36.284  10.652  16.401  0.00  0.00     0.030 A 
HETATM   20  C   UNK N   1      35.410  11.258  17.335  0.00  0.00     0.030 A 
HETATM   21  C   UNK N   1      34.946  12.548  17.083  0.00  0.00     0.030 A 
HETATM   22  C   UNK N   1      35.333  13.219  15.944  0.00  0.00     0.019 A 
BRANCH  20  23
HETATM   23  N   UNK N   1      34.972  10.583  18.513  0.00  0.00    -0.378 N 
HETATM   24  C   UNK N   1      34.269   9.312  18.395  0.00  0.00     0.153 C 
HETATM   25  C   UNK N   1      33.607   8.863  19.698  0.00  0.00     0.291 C 
HETATM   26  N   UNK N   1      34.486   9.107  20.829  0.00  0.00     0.087 N 
HETATM   27  C   UNK N   1      33.808   8.602  22.009  0.00  0.00     0.310 C 
HETATM   28  C   UNK N   1      34.562  10.547  20.982  0.00  0.00     0.291 C 
HETATM   29  C   UNK N   1      35.321  11.156  19.814  0.00  0.00     0.153 C 
ENDBRANCH  20  23
ENDBRANCH  14  17
ENDBRANCH   1  13
BRANCH  10  30
HETATM   30  C   UNK N   1      33.433  13.454   6.836  0.00  0.00     0.245 C 
BRANCH  30  31
HETATM   31  C   UNK N   1      33.115  14.901   6.468  0.00  0.00    -0.020 A 
HETATM   32  C   UNK N   1      31.781  15.327   6.515  0.00  0.00     0.010 A 
HETATM   33  C   UNK N   1      31.443  16.649   6.212  0.00  0.00     0.001 A 
HETATM   34  C   UNK N   1      32.436  17.563   5.853  0.00  0.00     0.000 A 
HETATM   35  C   UNK N   1      33.769  17.153   5.797  0.00  0.00     0.001 A 
HETATM   36  C   UNK N   1      34.105  15.834   6.104  0.00  0.00     0.010 A 
ENDBRANCH  30  31
BRANCH  30  37
HETATM   37  O   UNK N   1      32.439  12.622   6.310  0.00  0.00    -0.377 OA
HETATM   38  C   UNK N   1      33.132  11.556   5.728  0.00  0.00     0.203 C 
ENDBRANCH  30  37
ENDBRANCH  10  30
TORSDOF 6
ENDMDL
MODEL 8
REMARK VINA RESULT:      -9.1      3.735     11.923
REMARK  6 active torsions:
REMARK  status: ('A' for Active; 'I' for Inactive)
REMARK    1  A    between atoms: N_5  and  C_8 
REMARK    2  A    between atoms: C_11  and  C_14 
REMARK       I    between atoms: C_14  and  N_16 
REMARK    3  A    between atoms: N_16  and  C_17 
REMARK       I    between atoms: N_24  and  C_26 
REMARK    4  A    between atoms: C_26  and  C_28 
REMARK    5  A    between atoms: C_28  and  C_29 
REMARK    6  A    between atoms: C_28  and  O_35 
ROOT
HETATM    1  C   UNK N   1      36.277  13.515  15.496  0.00  0.00     0.132 A 
HETATM    2  C   UNK N   1      35.997  13.422  14.190  0.00  0.00     0.031 A 
HETATM    3  C   UNK N   1      36.500  14.480  13.608  0.00  0.00     0.055 A 
HETATM    4  N   UNK N   1      37.115  15.260  14.530  0.00  0.00    -0.301 N 
HETATM    5  N   UNK N   1      36.974  14.655  15.717  0.00  0.00    -0.285 N 
ATOM      6  HN  UNK N   1      37.322  14.989  16.615  1.00  0.00     0.188 HD
HETATM    7  C   UNK N   1      36.214  14.494  12.152  0.00  0.00     0.185 A 
HETATM    8  N   UNK N   1      35.463  13.229  12.045  0.00  0.00    -0.340 N 
HETATM    9  C   UNK N   1      35.294  12.517  13.300  0.00  0.00     0.171 A 
HETATM   10  C   UNK N   1      34.954  12.701  10.895  0.00  0.00     0.254 C 
HETATM   11  O   UNK N   1      34.366  11.629  10.956  0.00  0.00    -0.270 OA
HETATM   12  H   UNK N   1      37.579  16.113  14.359  0.00  0.00     0.186 HD
ENDROOT
BRANCH   1  13
HETATM   13  N   UNK N   1      35.816  12.546  16.393  0.00  0.00    -0.307 N 
HETATM   14  C   UNK N   1      36.043  11.236  16.605  0.00  0.00     0.257 C 
HETATM   15  O   UNK N   1      36.798  10.588  15.895  0.00  0.00    -0.267 OA
HETATM   16  H   UNK N   1      35.162  12.914  17.030  0.00  0.00     0.170 HD
BRANCH  14  17
HETATM   17  C   UNK N   1      35.337  10.660  17.770  0.00  0.00     0.032 A 
HETATM   18  C   UNK N   1      34.585   9.477  17.741  0.00  0.00     0.019 A 
HETATM   19  C   UNK N   1      33.964   9.023  18.923  0.00  0.00     0.030 A 
HETATM   20  C   UNK N   1      34.100   9.746  20.132  0.00  0.00     0.030 A 
HETATM   21  C   UNK N   1      34.856  10.917  20.134  0.00  0.00     0.030 A 
HETATM   22  C   UNK N   1      35.459  11.362  18.978  0.00  0.00     0.019 A 
BRANCH  20  23
HETATM   23  N   UNK N   1      33.471   9.327  21.342  0.00  0.00    -0.378 N 
HETATM   24  C   UNK N   1      32.802  10.310  22.184  0.00  0.00     0.153 C 
HETATM   25  C   UNK N   1      32.441   9.775  23.570  0.00  0.00     0.291 C 
HETATM   26  N   UNK N   1      31.921   8.421  23.477  0.00  0.00     0.087 N 
HETATM   27  C   UNK N   1      31.552   8.016  24.821  0.00  0.00     0.310 C 
HETATM   28  C   UNK N   1      33.037   7.583  23.085  0.00  0.00     0.291 C 
HETATM   29  C   UNK N   1      33.448   7.897  21.655  0.00  0.00     0.153 C 
ENDBRANCH  20  23
ENDBRANCH  14  17
ENDBRANCH   1  13
BRANCH  10  30
HETATM   30  C   UNK N   1      35.099  13.408   9.554  0.00  0.00     0.245 C 
BRANCH  30  31
HETATM   31  C   UNK N   1      34.162  14.582   9.274  0.00  0.00    -0.020 A 
HETATM   32  C   UNK N   1      34.715  15.863   9.145  0.00  0.00     0.010 A 
HETATM   33  C   UNK N   1      33.902  16.965   8.864  0.00  0.00     0.001 A 
HETATM   34  C   UNK N   1      32.524  16.800   8.711  0.00  0.00     0.000 A 
HETATM   35  C   UNK N   1      31.957  15.531   8.841  0.00  0.00     0.001 A 
HETATM   36  C   UNK N   1      32.771  14.431   9.118  0.00  0.00     0.010 A 
ENDBRANCH  30  31
BRANCH  30  37
HETATM   37  O   UNK N   1      34.985  12.478   8.516  0.00  0.00    -0.377 OA
HETATM   38  C   UNK N   1      36.123  12.676   7.728  0.00  0.00     0.203 C 
ENDBRANCH  30  37
ENDBRANCH  10  30
TORSDOF 6
ENDMDL
MODEL 9
REMARK VINA RESULT:      -9.1      3.459     12.103
REMARK  6 active torsions:
REMARK  status: ('A' for Active; 'I' for Inactive)
REMARK    1  A    between atoms: N_5  and  C_8 
REMARK    2  A    between atoms: C_11  and  C_14 
REMARK       I    between atoms: C_14  and  N_16 
REMARK    3  A    between atoms: N_16  and  C_17 
REMARK       I    between atoms: N_24  and  C_26 
REMARK    4  A    between atoms: C_26  and  C_28 
REMARK    5  A    between atoms: C_28  and  C_29 
REMARK    6  A    between atoms: C_28  and  O_35 
ROOT
HETATM    1  C   UNK N   1      32.870  16.145   4.762  0.00  0.00     0.132 A 
HETATM    2  C   UNK N   1      31.536  16.185   4.648  0.00  0.00     0.031 A 
HETATM    3  C   UNK N   1      31.260  16.368   3.383  0.00  0.00     0.055 A 
HETATM    4  N   UNK N   1      32.409  16.441   2.669  0.00  0.00    -0.301 N 
HETATM    5  N   UNK N   1      33.421  16.303   3.536  0.00  0.00    -0.285 N 
ATOM      6  HN  UNK N   1      34.417  16.316   3.315  1.00  0.00     0.188 HD
HETATM    7  C   UNK N   1      29.797  16.461   3.149  0.00  0.00     0.185 A 
HETATM    8  N   UNK N   1      29.322  16.283   4.534  0.00  0.00    -0.340 N 
HETATM    9  C   UNK N   1      30.377  16.108   5.518  0.00  0.00     0.171 A 
HETATM   10  C   UNK N   1      28.018  16.256   4.931  0.00  0.00     0.254 C 
HETATM   11  O   UNK N   1      27.773  16.080   6.117  0.00  0.00    -0.270 OA
HETATM   12  H   UNK N   1      32.486  16.571   1.695  0.00  0.00     0.186 HD
ENDROOT
BRANCH   1  13
HETATM   13  N   UNK N   1      33.473  16.013   6.017  0.00  0.00    -0.307 N 
HETATM   14  C   UNK N   1      34.171  16.812   6.845  0.00  0.00     0.257 C 
HETATM   15  O   UNK N   1      34.450  17.964   6.549  0.00  0.00    -0.267 OA
HETATM   16  H   UNK N   1      33.360  15.108   6.388  0.00  0.00     0.170 HD
BRANCH  14  17
HETATM   17  C   UNK N   1      34.542  16.199   8.139  0.00  0.00     0.032 A 
HETATM   18  C   UNK N   1      34.580  16.883   9.363  0.00  0.00     0.019 A 
HETATM   19  C   UNK N   1      34.940  16.185  10.534  0.00  0.00     0.030 A 
HETATM   20  C   UNK N   1      35.256  14.806  10.483  0.00  0.00     0.030 A 
HETATM   21  C   UNK N   1      35.208  14.150   9.254  0.00  0.00     0.030 A 
HETATM   22  C   UNK N   1      34.859  14.834   8.111  0.00  0.00     0.019 A 
BRANCH  20  23
HETATM   23  N   UNK N   1      35.643  14.072  11.645  0.00  0.00    -0.378 N 
HETATM   24  C   UNK N   1      35.639  12.616  11.611  0.00  0.00     0.153 C 
HETATM   25  C   UNK N   1      35.784  11.978  12.992  0.00  0.00     0.291 C 
HETATM   26  N   UNK N   1      36.777  12.685  13.782  0.00  0.00     0.087 N 
HETATM   27  C   UNK N   1      36.892  11.983  15.047  0.00  0.00     0.310 C 
HETATM   28  C   UNK N   1      36.210  13.985  14.081  0.00  0.00     0.291 C 
HETATM   29  C   UNK N   1      36.115  14.818  12.813  0.00  0.00     0.153 C 
ENDBRANCH  20  23
ENDBRANCH  14  17
ENDBRANCH   1  13
BRANCH  10  30
HETATM   30  C   UNK N   1      26.874  16.437   3.942  0.00  0.00     0.245 C 
BRANCH  30  31
HETATM   31  C   UNK N   1      26.213  17.813   3.878  0.00  0.00    -0.020 A 
HETATM   32  C   UNK N   1      27.034  18.948   3.820  0.00  0.00     0.010 A 
HETATM   33  C   UNK N   1      26.477  20.226   3.734  0.00  0.00     0.001 A 
HETATM   34  C   UNK N   1      25.090  20.388   3.709  0.00  0.00     0.000 A 
HETATM   35  C   UNK N   1      24.259  19.268   3.771  0.00  0.00     0.001 A 
HETATM   36  C   UNK N   1      24.817  17.991   3.853  0.00  0.00     0.010 A 
ENDBRANCH  30  31
BRANCH  30  37
HETATM   37  O   UNK N   1      25.891  15.470   4.175  0.00  0.00    -0.377 OA
HETATM   38  C   UNK N   1      26.077  14.517   3.170  0.00  0.00     0.203 C 
ENDBRANCH  30  37
ENDBRANCH  10  30
TORSDOF 6
ENDMDL
