MODEL 1
REMARK VINA RESULT:      -6.5      0.000      0.000
REMARK  4 active torsions:
REMARK  status: ('A' for Active; 'I' for Inactive)
REMARK    1  A    between atoms: O_2  and  C_3 
REMARK    2  A    between atoms: C_8  and  C_9 
REMARK    3  A    between atoms: N_16  and  C_17 
REMARK    4  A    between atoms: C_17  and  C_18 
REMARK       I    between atoms: C_18  and  N_20 
ROOT
HETATM    1  C   UNK N   1      32.770  17.134   7.936  0.00  0.00     0.055 A 
HETATM    2  C   UNK N   1      33.572  18.280   7.867  0.00  0.00     0.105 A 
HETATM    3  C   UNK N   1      34.704  18.391   8.643  0.00  0.00     0.249 A 
HETATM    4  O   UNK N   1      35.399  19.387   8.573  0.00  0.00    -0.268 OA
HETATM    5  N   UNK N   1      35.046  17.378   9.482  0.00  0.00    -0.300 N 
HETATM    6  C   UNK N   1      34.300  16.249   9.569  0.00  0.00     0.181 A 
HETATM    7  S   UNK N   1      34.766  15.205  10.448  0.00  0.00    -0.040 SA
HETATM    8  N   UNK N   1      33.148  16.106   8.802  0.00  0.00    -0.314 N 
HETATM    9  H   UNK N   1      35.853  17.466  10.039  0.00  0.00     0.171 HD
ENDROOT
BRANCH   1  10
HETATM   10  C   UNK N   1      31.519  17.103   7.067  0.00  0.00     0.026 A 
HETATM   11  C   UNK N   1      31.630  16.915   5.681  0.00  0.00     0.040 A 
HETATM   12  C   UNK N   1      30.515  16.832   4.851  0.00  0.00     0.035 A 
HETATM   13  C   UNK N   1      29.239  16.941   5.391  0.00  0.00     0.026 A 
HETATM   14 Cl   UNK N   1      30.721  16.570   3.134  0.00  0.00    -0.084 Cl
HETATM   15  C   UNK N   1      29.084  17.134   6.759  0.00  0.00     0.039 A 
HETATM   16  C   UNK N   1      30.200  17.215   7.614  0.00  0.00     0.080 A 
BRANCH  16  17
HETATM   17  O   UNK N   1      30.014  17.408   8.944  0.00  0.00    -0.355 OA
HETATM   18  C   UNK N   1      29.755  18.638   9.509  0.00  0.00     0.210 C 
ENDBRANCH  16  17
ENDBRANCH   1  10
BRANCH   8  19
HETATM   19  C   UNK N   1      32.390  14.835   8.840  0.00  0.00     0.234 C 
BRANCH  19  20
HETATM   20  C   UNK N   1      32.687  13.908   7.692  0.00  0.00     0.233 C 
HETATM   21  O   UNK N   1      31.854  13.697   6.828  0.00  0.00    -0.272 OA
HETATM   22  N   UNK N   1      33.859  13.246   7.658  0.00  0.00    -0.369 N 
HETATM   23  H   UNK N   1      34.722  13.714   7.730  0.00  0.00     0.159 HD
HETATM   24  H   UNK N   1      33.852  12.267   7.559  0.00  0.00     0.159 HD
ENDBRANCH  19  20
ENDBRANCH   8  19
TORSDOF 4
ENDMDL
MODEL 2
REMARK VINA RESULT:      -6.4      1.878      2.634
REMARK  4 active torsions:
REMARK  status: ('A' for Active; 'I' for Inactive)
REMARK    1  A    between atoms: O_2  and  C_3 
REMARK    2  A    between atoms: C_8  and  C_9 
REMARK    3  A    between atoms: N_16  and  C_17 
REMARK    4  A    between atoms: C_17  and  C_18 
REMARK       I    between atoms: C_18  and  N_20 
ROOT
HETATM    1  C   UNK N   1      32.890  17.093   7.578  0.00  0.00     0.055 A 
HETATM    2  C   UNK N   1      33.685  18.244   7.638  0.00  0.00     0.105 A 
HETATM    3  C   UNK N   1      34.697  18.348   8.567  0.00  0.00     0.249 A 
HETATM    4  O   UNK N   1      35.389  19.348   8.609  0.00  0.00    -0.268 OA
HETATM    5  N   UNK N   1      34.925  17.323   9.430  0.00  0.00    -0.300 N 
HETATM    6  C   UNK N   1      34.182  16.189   9.395  0.00  0.00     0.181 A 
HETATM    7  S   UNK N   1      34.528  15.134  10.314  0.00  0.00    -0.040 SA
HETATM    8  N   UNK N   1      33.149  16.053   8.472  0.00  0.00    -0.314 N 
HETATM    9  H   UNK N   1      35.645  17.406  10.096  0.00  0.00     0.171 HD
ENDROOT
BRANCH   1  10
HETATM   10  C   UNK N   1      31.772  17.070   6.541  0.00  0.00     0.026 A 
HETATM   11  C   UNK N   1      30.454  17.365   6.923  0.00  0.00     0.040 A 
HETATM   12  C   UNK N   1      29.407  17.404   6.005  0.00  0.00     0.035 A 
HETATM   13  C   UNK N   1      29.651  17.143   4.663  0.00  0.00     0.026 A 
HETATM   14 Cl   UNK N   1      27.790  17.803   6.540  0.00  0.00    -0.084 Cl
HETATM   15  C   UNK N   1      30.942  16.840   4.243  0.00  0.00     0.039 A 
HETATM   16  C   UNK N   1      32.014  16.802   5.156  0.00  0.00     0.080 A 
BRANCH  16  17
HETATM   17  O   UNK N   1      33.261  16.499   4.715  0.00  0.00    -0.355 OA
HETATM   18  C   UNK N   1      33.515  15.613   3.690  0.00  0.00     0.210 C 
ENDBRANCH  16  17
ENDBRANCH   1  10
BRANCH   8  19
HETATM   19  C   UNK N   1      32.402  14.778   8.384  0.00  0.00     0.234 C 
BRANCH  19  20
HETATM   20  C   UNK N   1      32.814  13.903   7.231  0.00  0.00     0.233 C 
HETATM   21  O   UNK N   1      33.992  13.692   6.997  0.00  0.00    -0.272 OA
HETATM   22  N   UNK N   1      31.874  13.407   6.404  0.00  0.00    -0.369 N 
HETATM   23  H   UNK N   1      31.103  12.898   6.740  0.00  0.00     0.159 HD
HETATM   24  H   UNK N   1      31.963  13.560   5.435  0.00  0.00     0.159 HD
ENDBRANCH  19  20
ENDBRANCH   8  19
TORSDOF 4
ENDMDL
MODEL 3
REMARK VINA RESULT:      -6.0     10.201     11.905
REMARK  4 active torsions:
REMARK  status: ('A' for Active; 'I' for Inactive)
REMARK    1  A    between atoms: O_2  and  C_3 
REMARK    2  A    between atoms: C_8  and  C_9 
REMARK    3  A    between atoms: N_16  and  C_17 
REMARK    4  A    between atoms: C_17  and  C_18 
REMARK       I    between atoms: C_18  and  N_20 
ROOT
HETATM    1  C   UNK N   1      21.894  17.693   4.945  0.00  0.00     0.055 A 
HETATM    2  C   UNK N   1      21.635  17.956   6.295  0.00  0.00     0.105 A 
HETATM    3  C   UNK N   1      20.667  17.249   6.974  0.00  0.00     0.249 A 
HETATM    4  O   UNK N   1      20.452  17.479   8.150  0.00  0.00    -0.268 OA
HETATM    5  N   UNK N   1      19.959  16.287   6.326  0.00  0.00    -0.300 N 
HETATM    6  C   UNK N   1      20.189  15.996   5.022  0.00  0.00     0.181 A 
HETATM    7  S   UNK N   1      19.426  14.926   4.430  0.00  0.00    -0.040 SA
HETATM    8  N   UNK N   1      21.157  16.695   4.305  0.00  0.00    -0.314 N 
HETATM    9  H   UNK N   1      19.264  15.790   6.815  0.00  0.00     0.171 HD
ENDROOT
BRANCH   1  10
HETATM   10  C   UNK N   1      22.960  18.540   4.260  0.00  0.00     0.026 A 
HETATM   11  C   UNK N   1      24.310  18.167   4.335  0.00  0.00     0.040 A 
HETATM   12  C   UNK N   1      25.315  18.881   3.687  0.00  0.00     0.035 A 
HETATM   13  C   UNK N   1      24.993  20.006   2.938  0.00  0.00     0.026 A 
HETATM   14 Cl   UNK N   1      26.978  18.349   3.800  0.00  0.00    -0.084 Cl
HETATM   15  C   UNK N   1      23.668  20.415   2.842  0.00  0.00     0.039 A 
HETATM   16  C   UNK N   1      22.638  19.701   3.486  0.00  0.00     0.080 A 
BRANCH  16  17
HETATM   17  O   UNK N   1      21.355  20.129   3.376  0.00  0.00    -0.355 OA
HETATM   18  C   UNK N   1      20.915  20.978   2.384  0.00  0.00     0.210 C 
ENDBRANCH  16  17
ENDBRANCH   1  10
BRANCH   8  19
HETATM   19  C   UNK N   1      21.459  16.311   2.908  0.00  0.00     0.234 C 
BRANCH  19  20
HETATM   20  C   UNK N   1      20.512  16.892   1.893  0.00  0.00     0.233 C 
HETATM   21  O   UNK N   1      20.614  16.610   0.711  0.00  0.00    -0.272 OA
HETATM   22  N   UNK N   1      19.588  17.790   2.283  0.00  0.00    -0.369 N 
HETATM   23  H   UNK N   1      18.960  17.604   3.018  0.00  0.00     0.159 HD
HETATM   24  H   UNK N   1      19.539  18.657   1.820  0.00  0.00     0.159 HD
ENDBRANCH  19  20
ENDBRANCH   8  19
TORSDOF 4
ENDMDL
MODEL 4
REMARK VINA RESULT:      -5.9      3.278      4.629
REMARK  4 active torsions:
REMARK  status: ('A' for Active; 'I' for Inactive)
REMARK    1  A    between atoms: O_2  and  C_3 
REMARK    2  A    between atoms: C_8  and  C_9 
REMARK    3  A    between atoms: N_16  and  C_17 
REMARK    4  A    between atoms: C_17  and  C_18 
REMARK       I    between atoms: C_18  and  N_20 
ROOT
HETATM    1  C   UNK N   1      28.954  17.649   7.021  0.00  0.00     0.055 A 
HETATM    2  C   UNK N   1      28.825  18.376   8.211  0.00  0.00     0.105 A 
HETATM    3  C   UNK N   1      29.785  18.289   9.194  0.00  0.00     0.249 A 
HETATM    4  O   UNK N   1      29.669  18.928  10.222  0.00  0.00    -0.268 OA
HETATM    5  N   UNK N   1      30.868  17.489   9.005  0.00  0.00    -0.300 N 
HETATM    6  C   UNK N   1      31.033  16.778   7.862  0.00  0.00     0.181 A 
HETATM    7  S   UNK N   1      32.237  15.998   7.728  0.00  0.00    -0.040 SA
HETATM    8  N   UNK N   1      30.079  16.841   6.851  0.00  0.00    -0.314 N 
HETATM    9  H   UNK N   1      31.548  17.426   9.714  0.00  0.00     0.171 HD
ENDROOT
BRANCH   1  10
HETATM   10  C   UNK N   1      27.832  17.779   5.998  0.00  0.00     0.026 A 
HETATM   11  C   UNK N   1      27.732  18.934   5.207  0.00  0.00     0.040 A 
HETATM   12  C   UNK N   1      26.755  19.079   4.226  0.00  0.00     0.035 A 
HETATM   13  C   UNK N   1      25.834  18.063   4.008  0.00  0.00     0.026 A 
HETATM   14 Cl   UNK N   1      26.700  20.534   3.255  0.00  0.00    -0.084 Cl
HETATM   15  C   UNK N   1      25.892  16.904   4.774  0.00  0.00     0.039 A 
HETATM   16  C   UNK N   1      26.878  16.737   5.766  0.00  0.00     0.080 A 
BRANCH  16  17
HETATM   17  O   UNK N   1      26.905  15.595   6.500  0.00  0.00    -0.355 OA
HETATM   18  C   UNK N   1      25.808  15.082   7.156  0.00  0.00     0.210 C 
ENDBRANCH  16  17
ENDBRANCH   1  10
BRANCH   8  19
HETATM   19  C   UNK N   1      30.311  16.130   5.574  0.00  0.00     0.234 C 
BRANCH  19  20
HETATM   20  C   UNK N   1      30.793  17.016   4.456  0.00  0.00     0.233 C 
HETATM   21  O   UNK N   1      31.746  17.760   4.616  0.00  0.00    -0.272 OA
HETATM   22  N   UNK N   1      30.119  17.042   3.291  0.00  0.00    -0.369 N 
HETATM   23  H   UNK N   1      29.921  16.221   2.787  0.00  0.00     0.159 HD
HETATM   24  H   UNK N   1      29.816  17.908   2.934  0.00  0.00     0.159 HD
ENDBRANCH  19  20
ENDBRANCH   8  19
TORSDOF 4
ENDMDL
MODEL 5
REMARK VINA RESULT:      -5.9      2.049      2.516
REMARK  4 active torsions:
REMARK  status: ('A' for Active; 'I' for Inactive)
REMARK    1  A    between atoms: O_2  and  C_3 
REMARK    2  A    between atoms: C_8  and  C_9 
REMARK    3  A    between atoms: N_16  and  C_17 
REMARK    4  A    between atoms: C_17  and  C_18 
REMARK       I    between atoms: C_18  and  N_20 
ROOT
HETATM    1  C   UNK N   1      33.912  16.237   7.178  0.00  0.00     0.055 A 
HETATM    2  C   UNK N   1      34.096  17.622   7.267  0.00  0.00     0.105 A 
HETATM    3  C   UNK N   1      34.675  18.182   8.385  0.00  0.00     0.249 A 
HETATM    4  O   UNK N   1      34.838  19.385   8.453  0.00  0.00    -0.268 OA
HETATM    5  N   UNK N   1      35.072  17.380   9.409  0.00  0.00    -0.300 N 
HETATM    6  C   UNK N   1      34.919  16.033   9.354  0.00  0.00     0.181 A 
HETATM    7  S   UNK N   1      35.415  15.258  10.463  0.00  0.00    -0.040 SA
HETATM    8  N   UNK N   1      34.334  15.436   8.240  0.00  0.00    -0.314 N 
HETATM    9  H   UNK N   1      35.479  17.786  10.208  0.00  0.00     0.171 HD
ENDROOT
BRANCH   1  10
HETATM   10  C   UNK N   1      33.237  15.702   5.920  0.00  0.00     0.026 A 
HETATM   11  C   UNK N   1      34.007  15.375   4.794  0.00  0.00     0.040 A 
HETATM   12  C   UNK N   1      33.442  14.839   3.639  0.00  0.00     0.035 A 
HETATM   13  C   UNK N   1      32.072  14.615   3.576  0.00  0.00     0.026 A 
HETATM   14 Cl   UNK N   1      34.461  14.428   2.278  0.00  0.00    -0.084 Cl
HETATM   15  C   UNK N   1      31.272  14.931   4.668  0.00  0.00     0.039 A 
HETATM   16  C   UNK N   1      31.826  15.468   5.846  0.00  0.00     0.080 A 
BRANCH  16  17
HETATM   17  O   UNK N   1      31.016  15.770   6.892  0.00  0.00    -0.355 OA
HETATM   18  C   UNK N   1      30.135  16.830   6.896  0.00  0.00     0.210 C 
ENDBRANCH  16  17
ENDBRANCH   1  10
BRANCH   8  19
HETATM   19  C   UNK N   1      34.252  13.961   8.153  0.00  0.00     0.234 C 
BRANCH  19  20
HETATM   20  C   UNK N   1      32.998  13.380   8.748  0.00  0.00     0.233 C 
HETATM   21  O   UNK N   1      32.791  12.179   8.717  0.00  0.00    -0.272 OA
HETATM   22  N   UNK N   1      32.059  14.202   9.253  0.00  0.00    -0.369 N 
HETATM   23  H   UNK N   1      32.273  14.880   9.933  0.00  0.00     0.159 HD
HETATM   24  H   UNK N   1      31.131  14.121   8.933  0.00  0.00     0.159 HD
ENDBRANCH  19  20
ENDBRANCH   8  19
TORSDOF 4
ENDMDL
MODEL 6
REMARK VINA RESULT:      -5.9      3.183      5.242
REMARK  4 active torsions:
REMARK  status: ('A' for Active; 'I' for Inactive)
REMARK    1  A    between atoms: O_2  and  C_3 
REMARK    2  A    between atoms: C_8  and  C_9 
REMARK    3  A    between atoms: N_16  and  C_17 
REMARK    4  A    between atoms: C_17  and  C_18 
REMARK       I    between atoms: C_18  and  N_20 
ROOT
HETATM    1  C   UNK N   1      33.796  14.105   9.344  0.00  0.00     0.055 A 
HETATM    2  C   UNK N   1      33.401  12.925   8.702  0.00  0.00     0.105 A 
HETATM    3  C   UNK N   1      33.640  11.698   9.282  0.00  0.00     0.249 A 
HETATM    4  O   UNK N   1      33.288  10.677   8.722  0.00  0.00    -0.268 OA
HETATM    5  N   UNK N   1      34.263  11.635  10.488  0.00  0.00    -0.300 N 
HETATM    6  C   UNK N   1      34.650  12.757  11.145  0.00  0.00     0.181 A 
HETATM    7  S   UNK N   1      35.258  12.598  12.442  0.00  0.00    -0.040 SA
HETATM    8  N   UNK N   1      34.428  14.012  10.584  0.00  0.00    -0.314 N 
HETATM    9  H   UNK N   1      34.437  10.756  10.895  0.00  0.00     0.171 HD
ENDROOT
BRANCH   1  10
HETATM   10  C   UNK N   1      33.521  15.418   8.620  0.00  0.00     0.026 A 
HETATM   11  C   UNK N   1      32.390  16.180   8.951  0.00  0.00     0.040 A 
HETATM   12  C   UNK N   1      32.122  17.409   8.353  0.00  0.00     0.035 A 
HETATM   13  C   UNK N   1      32.987  17.915   7.391  0.00  0.00     0.026 A 
HETATM   14 Cl   UNK N   1      30.708  18.322   8.829  0.00  0.00    -0.084 Cl
HETATM   15  C   UNK N   1      34.116  17.190   7.028  0.00  0.00     0.039 A 
HETATM   16  C   UNK N   1      34.406  15.948   7.627  0.00  0.00     0.080 A 
BRANCH  16  17
HETATM   17  O   UNK N   1      35.514  15.263   7.248  0.00  0.00    -0.355 OA
HETATM   18  C   UNK N   1      35.659  14.666   6.014  0.00  0.00     0.210 C 
ENDBRANCH  16  17
ENDBRANCH   1  10
BRANCH   8  19
HETATM   19  C   UNK N   1      34.776  15.232  11.347  0.00  0.00     0.234 C 
BRANCH  19  20
HETATM   20  C   UNK N   1      35.998  15.948  10.838  0.00  0.00     0.233 C 
HETATM   21  O   UNK N   1      35.956  17.134  10.562  0.00  0.00    -0.272 OA
HETATM   22  N   UNK N   1      37.129  15.253  10.615  0.00  0.00    -0.369 N 
HETATM   23  H   UNK N   1      37.538  14.688  11.308  0.00  0.00     0.159 HD
HETATM   24  H   UNK N   1      37.560  15.314   9.731  0.00  0.00     0.159 HD
ENDBRANCH  19  20
ENDBRANCH   8  19
TORSDOF 4
ENDMDL
MODEL 7
REMARK VINA RESULT:      -5.8      2.853      4.767
REMARK  4 active torsions:
REMARK  status: ('A' for Active; 'I' for Inactive)
REMARK    1  A    between atoms: O_2  and  C_3 
REMARK    2  A    between atoms: C_8  and  C_9 
REMARK    3  A    between atoms: N_16  and  C_17 
REMARK    4  A    between atoms: C_17  and  C_18 
REMARK       I    between atoms: C_18  and  N_20 
ROOT
HETATM    1  C   UNK N   1      30.243  16.111   5.323  0.00  0.00     0.055 A 
HETATM    2  C   UNK N   1      29.584  14.876   5.285  0.00  0.00     0.105 A 
HETATM    3  C   UNK N   1      30.260  13.732   4.922  0.00  0.00     0.249 A 
HETATM    4  O   UNK N   1      29.683  12.661   4.898  0.00  0.00    -0.268 OA
HETATM    5  N   UNK N   1      31.578  13.805   4.598  0.00  0.00    -0.300 N 
HETATM    6  C   UNK N   1      32.252  14.981   4.634  0.00  0.00     0.181 A 
HETATM    7  S   UNK N   1      33.660  14.955   4.324  0.00  0.00    -0.040 SA
HETATM    8  N   UNK N   1      31.598  16.157   4.993  0.00  0.00    -0.314 N 
HETATM    9  H   UNK N   1      32.054  12.985   4.333  0.00  0.00     0.171 HD
ENDROOT
BRANCH   1  10
HETATM   10  C   UNK N   1      29.415  17.332   5.706  0.00  0.00     0.026 A 
HETATM   11  C   UNK N   1      28.790  18.099   4.710  0.00  0.00     0.040 A 
HETATM   12  C   UNK N   1      27.985  19.194   5.013  0.00  0.00     0.035 A 
HETATM   13  C   UNK N   1      27.783  19.562   6.337  0.00  0.00     0.026 A 
HETATM   14 Cl   UNK N   1      27.212  20.092   3.726  0.00  0.00    -0.084 Cl
HETATM   15  C   UNK N   1      28.389  18.834   7.355  0.00  0.00     0.039 A 
HETATM   16  C   UNK N   1      29.201  17.720   7.068  0.00  0.00     0.080 A 
BRANCH  16  17
HETATM   17  O   UNK N   1      29.782  17.033   8.085  0.00  0.00    -0.355 OA
HETATM   18  C   UNK N   1      29.596  17.335   9.416  0.00  0.00     0.210 C 
ENDBRANCH  16  17
ENDBRANCH   1  10
BRANCH   8  19
HETATM   19  C   UNK N   1      32.362  17.418   5.112  0.00  0.00     0.234 C 
BRANCH  19  20
HETATM   20  C   UNK N   1      33.194  17.517   6.362  0.00  0.00     0.233 C 
HETATM   21  O   UNK N   1      34.337  17.940   6.319  0.00  0.00    -0.272 OA
HETATM   22  N   UNK N   1      32.698  17.064   7.528  0.00  0.00    -0.369 N 
HETATM   23  H   UNK N   1      31.829  17.367   7.876  0.00  0.00     0.159 HD
HETATM   24  H   UNK N   1      33.220  16.410   8.048  0.00  0.00     0.159 HD
ENDBRANCH  19  20
ENDBRANCH   8  19
TORSDOF 4
ENDMDL
MODEL 8
REMARK VINA RESULT:      -5.6     10.467     12.174
REMARK  4 active torsions:
REMARK  status: ('A' for Active; 'I' for Inactive)
REMARK    1  A    between atoms: O_2  and  C_3 
REMARK    2  A    between atoms: C_8  and  C_9 
REMARK    3  A    between atoms: N_16  and  C_17 
REMARK    4  A    between atoms: C_17  and  C_18 
REMARK       I    between atoms: C_18  and  N_20 
ROOT
HETATM    1  C   UNK N   1      21.768  15.334   6.197  0.00  0.00     0.055 A 
HETATM    2  C   UNK N   1      22.624  16.442   6.255  0.00  0.00     0.105 A 
HETATM    3  C   UNK N   1      22.970  17.120   5.107  0.00  0.00     0.249 A 
HETATM    4  O   UNK N   1      23.708  18.085   5.166  0.00  0.00    -0.268 OA
HETATM    5  N   UNK N   1      22.476  16.710   3.909  0.00  0.00    -0.300 N 
HETATM    6  C   UNK N   1      21.637  15.649   3.815  0.00  0.00     0.181 A 
HETATM    7  S   UNK N   1      21.121  15.317   2.511  0.00  0.00    -0.040 SA
HETATM    8  N   UNK N   1      21.270  14.939   4.955  0.00  0.00    -0.314 N 
HETATM    9  H   UNK N   1      22.732  17.195   3.092  0.00  0.00     0.171 HD
ENDROOT
BRANCH   1  10
HETATM   10  C   UNK N   1      21.459  14.622   7.509  0.00  0.00     0.026 A 
HETATM   11  C   UNK N   1      22.286  13.579   7.954  0.00  0.00     0.040 A 
HETATM   12  C   UNK N   1      22.073  12.930   9.168  0.00  0.00     0.035 A 
HETATM   13  C   UNK N   1      21.011  13.307   9.979  0.00  0.00     0.026 A 
HETATM   14 Cl   UNK N   1      23.156  11.654   9.678  0.00  0.00    -0.084 Cl
HETATM   15  C   UNK N   1      20.163  14.331   9.573  0.00  0.00     0.039 A 
HETATM   16  C   UNK N   1      20.366  15.003   8.351  0.00  0.00     0.080 A 
BRANCH  16  17
HETATM   17  O   UNK N   1      19.518  15.996   7.982  0.00  0.00    -0.355 OA
HETATM   18  C   UNK N   1      19.487  17.237   8.579  0.00  0.00     0.210 C 
ENDBRANCH  16  17
ENDBRANCH   1  10
BRANCH   8  19
HETATM   19  C   UNK N   1      20.287  13.837   4.853  0.00  0.00     0.234 C 
BRANCH  19  20
HETATM   20  C   UNK N   1      18.852  14.287   4.910  0.00  0.00     0.233 C 
HETATM   21  O   UNK N   1      17.946  13.520   4.634  0.00  0.00    -0.272 OA
HETATM   22  N   UNK N   1      18.569  15.572   5.198  0.00  0.00    -0.369 N 
HETATM   23  H   UNK N   1      18.921  16.014   6.004  0.00  0.00     0.159 HD
HETATM   24  H   UNK N   1      17.994  16.083   4.583  0.00  0.00     0.159 HD
ENDBRANCH  19  20
ENDBRANCH   8  19
TORSDOF 4
ENDMDL
MODEL 9
REMARK VINA RESULT:      -5.6     10.442     11.786
REMARK  4 active torsions:
REMARK  status: ('A' for Active; 'I' for Inactive)
REMARK    1  A    between atoms: O_2  and  C_3 
REMARK    2  A    between atoms: C_8  and  C_9 
REMARK    3  A    between atoms: N_16  and  C_17 
REMARK    4  A    between atoms: C_17  and  C_18 
REMARK       I    between atoms: C_18  and  N_20 
ROOT
HETATM    1  C   UNK N   1      22.656  18.253   4.258  0.00  0.00     0.055 A 
HETATM    2  C   UNK N   1      23.935  18.823   4.292  0.00  0.00     0.105 A 
HETATM    3  C   UNK N   1      24.213  19.963   3.571  0.00  0.00     0.249 A 
HETATM    4  O   UNK N   1      25.324  20.457   3.611  0.00  0.00    -0.268 OA
HETATM    5  N   UNK N   1      23.236  20.539   2.822  0.00  0.00    -0.300 N 
HETATM    6  C   UNK N   1      21.983  20.022   2.772  0.00  0.00     0.181 A 
HETATM    7  S   UNK N   1      20.998  20.727   1.992  0.00  0.00    -0.040 SA
HETATM    8  N   UNK N   1      21.670  18.868   3.486  0.00  0.00    -0.314 N 
HETATM    9  H   UNK N   1      23.442  21.350   2.303  0.00  0.00     0.171 HD
ENDROOT
BRANCH   1  10
HETATM   10  C   UNK N   1      22.440  16.975   5.060  0.00  0.00     0.026 A 
HETATM   11  C   UNK N   1      21.849  17.034   6.332  0.00  0.00     0.040 A 
HETATM   12  C   UNK N   1      21.587  15.891   7.082  0.00  0.00     0.035 A 
HETATM   13  C   UNK N   1      21.918  14.639   6.579  0.00  0.00     0.026 A 
HETATM   14 Cl   UNK N   1      20.823  16.031   8.650  0.00  0.00    -0.084 Cl
HETATM   15  C   UNK N   1      22.512  14.535   5.326  0.00  0.00     0.039 A 
HETATM   16  C   UNK N   1      22.778  15.680   4.550  0.00  0.00     0.080 A 
BRANCH  16  17
HETATM   17  O   UNK N   1      23.363  15.545   3.333  0.00  0.00    -0.355 OA
HETATM   18  C   UNK N   1      22.870  14.735   2.333  0.00  0.00     0.210 C 
ENDBRANCH  16  17
ENDBRANCH   1  10
BRANCH   8  19
HETATM   19  C   UNK N   1      20.280  18.361   3.494  0.00  0.00     0.234 C 
BRANCH  19  20
HETATM   20  C   UNK N   1      20.054  17.171   2.601  0.00  0.00     0.233 C 
HETATM   21  O   UNK N   1      20.323  17.223   1.413  0.00  0.00    -0.272 OA
HETATM   22  N   UNK N   1      19.479  16.062   3.104  0.00  0.00    -0.369 N 
HETATM   23  H   UNK N   1      19.831  15.612   3.905  0.00  0.00     0.159 HD
HETATM   24  H   UNK N   1      18.683  15.692   2.656  0.00  0.00     0.159 HD
ENDBRANCH  19  20
ENDBRANCH   8  19
TORSDOF 4
ENDMDL
