MODEL 1
REMARK VINA RESULT:      -7.2      0.000      0.000
REMARK  4 active torsions:
REMARK  status: ('A' for Active; 'I' for Inactive)
REMARK    1  A    between atoms: C_3  and  C_16 
REMARK    2  A    between atoms: N_7  and  C_8 
REMARK    3  A    between atoms: C_16  and  C_17 
REMARK    4  A    between atoms: C_17  and  C_18 
ROOT
HETATM    1  C   UNK N   1      34.732  12.190  13.434  0.00  0.00     0.072 C 
HETATM    2  C   UNK N   1      35.576  13.342  13.897  0.00  0.00     0.050 A 
HETATM    3  C   UNK N   1      36.002  14.335  13.088  0.00  0.00     0.111 A 
HETATM    4  N   UNK N   1      36.769  15.205  13.772  0.00  0.00    -0.337 N 
ATOM      5  HN  UNK N   1      37.235  16.042  13.422  1.00  0.00     0.168 HD
HETATM    6  C   UNK N   1      36.776  14.711  15.033  0.00  0.00     0.085 A 
HETATM    7  N   UNK N   1      36.041  13.569  15.137  0.00  0.00    -0.303 N 
HETATM    8  C   UNK N   1      37.509  15.376  16.148  0.00  0.00     0.089 C 
ENDROOT
BRANCH   3   9
HETATM    9  C   UNK N   1      35.713  14.346  11.713  0.00  0.00    -0.041 C 
BRANCH   9  10
HETATM   10  C   UNK N   1      35.451  14.571  10.578  0.00  0.00    -0.060 C 
BRANCH  10  11
HETATM   11  C   UNK N   1      35.101  14.907   9.260  0.00  0.00     0.022 A 
HETATM   12  C   UNK N   1      35.560  14.175   8.158  0.00  0.00     0.038 A 
HETATM   13  C   UNK N   1      35.372  14.718   6.882  0.00  0.00     0.090 A 
HETATM   14  N   UNK N   1      34.796  15.948   6.745  0.00  0.00    -0.357 N 
HETATM   15  C   UNK N   1      34.353  16.648   7.827  0.00  0.00     0.104 A 
ATOM     16  HN  UNK N   1      34.697  16.352   5.813  1.00  0.00     0.166 HD
HETATM   17  C   UNK N   1      34.499  16.129   9.094  0.00  0.00     0.063 A 
HETATM   18 Cl   UNK N   1      33.696  18.255   7.666  0.00  0.00    -0.065 Cl
ENDBRANCH  10  11
ENDBRANCH   9  10
ENDBRANCH   3   9
BRANCH   7  19
HETATM   19  C   UNK N   1      35.731  12.765  16.294  0.00  0.00     0.041 A 
HETATM   20  C   UNK N   1      36.106  11.418  16.368  0.00  0.00     0.033 A 
HETATM   21  C   UNK N   1      35.950  10.716  17.569  0.00  0.00     0.044 A 
HETATM   22  C   UNK N   1      35.427  11.359  18.696  0.00  0.00     0.116 A 
HETATM   23  C   UNK N   1      35.018  12.684  18.617  0.00  0.00     0.044 A 
HETATM   24  F   UNK N   1      35.336  10.707  19.877  0.00  0.00    -0.206 F 
HETATM   25  C   UNK N   1      35.170  13.374  17.427  0.00  0.00     0.033 A 
ENDBRANCH   7  19
TORSDOF 4
ENDMDL
MODEL 2
REMARK VINA RESULT:      -7.0      5.494      8.890
REMARK  4 active torsions:
REMARK  status: ('A' for Active; 'I' for Inactive)
REMARK    1  A    between atoms: C_3  and  C_16 
REMARK    2  A    between atoms: N_7  and  C_8 
REMARK    3  A    between atoms: C_16  and  C_17 
REMARK    4  A    between atoms: C_17  and  C_18 
ROOT
HETATM    1  C   UNK N   1      30.814  17.305   8.640  0.00  0.00     0.072 C 
HETATM    2  C   UNK N   1      31.747  16.799   7.577  0.00  0.00     0.050 A 
HETATM    3  C   UNK N   1      31.476  16.839   6.256  0.00  0.00     0.111 A 
HETATM    4  N   UNK N   1      32.477  16.283   5.550  0.00  0.00    -0.337 N 
ATOM      5  HN  UNK N   1      32.544  16.163   4.540  1.00  0.00     0.168 HD
HETATM    6  C   UNK N   1      33.377  15.919   6.495  0.00  0.00     0.085 A 
HETATM    7  N   UNK N   1      32.955  16.235   7.751  0.00  0.00    -0.303 N 
HETATM    8  C   UNK N   1      34.671  15.261   6.155  0.00  0.00     0.089 C 
ENDROOT
BRANCH   3   9
HETATM    9  C   UNK N   1      30.256  17.335   5.766  0.00  0.00    -0.041 C 
BRANCH   9  10
HETATM   10  C   UNK N   1      29.240  17.897   5.514  0.00  0.00    -0.060 C 
BRANCH  10  11
HETATM   11  C   UNK N   1      28.077  18.633   5.241  0.00  0.00     0.022 A 
HETATM   12  C   UNK N   1      27.508  18.680   3.963  0.00  0.00     0.038 A 
HETATM   13  C   UNK N   1      26.505  19.625   3.722  0.00  0.00     0.090 A 
HETATM   14  N   UNK N   1      26.140  20.495   4.709  0.00  0.00    -0.357 N 
HETATM   15  C   UNK N   1      26.701  20.436   5.950  0.00  0.00     0.104 A 
ATOM     16  HN  UNK N   1      25.433  21.205   4.513  1.00  0.00     0.166 HD
HETATM   17  C   UNK N   1      27.672  19.500   6.226  0.00  0.00     0.063 A 
HETATM   18 Cl   UNK N   1      26.302  21.598   7.187  0.00  0.00    -0.065 Cl
ENDBRANCH  10  11
ENDBRANCH   9  10
ENDBRANCH   3   9
BRANCH   7  19
HETATM   19  C   UNK N   1      33.622  16.088   9.021  0.00  0.00     0.041 A 
HETATM   20  C   UNK N   1      33.443  14.947   9.811  0.00  0.00     0.033 A 
HETATM   21  C   UNK N   1      34.237  14.754  10.948  0.00  0.00     0.044 A 
HETATM   22  C   UNK N   1      35.213  15.697  11.291  0.00  0.00     0.116 A 
HETATM   23  C   UNK N   1      35.368  16.850  10.532  0.00  0.00     0.044 A 
HETATM   24  F   UNK N   1      36.029  15.485  12.348  0.00  0.00    -0.206 F 
HETATM   25  C   UNK N   1      34.579  17.038   9.411  0.00  0.00     0.033 A 
ENDBRANCH   7  19
TORSDOF 4
ENDMDL
MODEL 3
REMARK VINA RESULT:      -6.9      7.446     11.288
REMARK  4 active torsions:
REMARK  status: ('A' for Active; 'I' for Inactive)
REMARK    1  A    between atoms: C_3  and  C_16 
REMARK    2  A    between atoms: N_7  and  C_8 
REMARK    3  A    between atoms: C_16  and  C_17 
REMARK    4  A    between atoms: C_17  and  C_18 
ROOT
HETATM    1  C   UNK N   1      29.365  17.726   7.413  0.00  0.00     0.072 C 
HETATM    2  C   UNK N   1      30.179  17.597   6.158  0.00  0.00     0.050 A 
HETATM    3  C   UNK N   1      29.703  17.860   4.923  0.00  0.00     0.111 A 
HETATM    4  N   UNK N   1      30.646  17.620   3.992  0.00  0.00    -0.337 N 
ATOM      5  HN  UNK N   1      30.570  17.719   2.980  1.00  0.00     0.168 HD
HETATM    6  C   UNK N   1      31.719  17.218   4.714  0.00  0.00     0.085 A 
HETATM    7  N   UNK N   1      31.459  17.204   6.051  0.00  0.00    -0.303 N 
HETATM    8  C   UNK N   1      33.017  16.851   4.078  0.00  0.00     0.089 C 
ENDROOT
BRANCH   3   9
HETATM    9  C   UNK N   1      28.370  18.249   4.710  0.00  0.00    -0.041 C 
BRANCH   9  10
HETATM   10  C   UNK N   1      27.306  18.607   4.324  0.00  0.00    -0.060 C 
BRANCH  10  11
HETATM   11  C   UNK N   1      26.025  18.949   3.862  0.00  0.00     0.022 A 
HETATM   12  C   UNK N   1      25.783  20.124   3.141  0.00  0.00     0.038 A 
HETATM   13  C   UNK N   1      24.453  20.509   2.936  0.00  0.00     0.090 A 
HETATM   14  N   UNK N   1      23.440  19.767   3.472  0.00  0.00    -0.357 N 
HETATM   15  C   UNK N   1      23.691  18.623   4.170  0.00  0.00     0.104 A 
ATOM     16  HN  UNK N   1      22.475  20.076   3.348  1.00  0.00     0.166 HD
HETATM   17  C   UNK N   1      24.988  18.204   4.366  0.00  0.00     0.063 A 
HETATM   18 Cl   UNK N   1      22.409  17.719   4.930  0.00  0.00    -0.065 Cl
ENDBRANCH  10  11
ENDBRANCH   9  10
ENDBRANCH   3   9
BRANCH   7  19
HETATM   19  C   UNK N   1      32.328  16.909   7.164  0.00  0.00     0.041 A 
HETATM   20  C   UNK N   1      32.450  15.610   7.670  0.00  0.00     0.033 A 
HETATM   21  C   UNK N   1      33.429  15.324   8.629  0.00  0.00     0.044 A 
HETATM   22  C   UNK N   1      34.289  16.333   9.077  0.00  0.00     0.116 A 
HETATM   23  C   UNK N   1      34.147  17.632   8.606  0.00  0.00     0.044 A 
HETATM   24  F   UNK N   1      35.280  16.050   9.952  0.00  0.00    -0.206 F 
HETATM   25  C   UNK N   1      33.176  17.911   7.660  0.00  0.00     0.033 A 
ENDBRANCH   7  19
TORSDOF 4
ENDMDL
MODEL 4
REMARK VINA RESULT:      -6.8      4.786      9.385
REMARK  4 active torsions:
REMARK  status: ('A' for Active; 'I' for Inactive)
REMARK    1  A    between atoms: C_3  and  C_16 
REMARK    2  A    between atoms: N_7  and  C_8 
REMARK    3  A    between atoms: C_16  and  C_17 
REMARK    4  A    between atoms: C_17  and  C_18 
ROOT
HETATM    1  C   UNK N   1      33.876  13.705   9.225  0.00  0.00     0.072 C 
HETATM    2  C   UNK N   1      34.254  15.155   9.324  0.00  0.00     0.050 A 
HETATM    3  C   UNK N   1      34.852  15.704  10.402  0.00  0.00     0.111 A 
HETATM    4  N   UNK N   1      35.033  17.025  10.220  0.00  0.00    -0.337 N 
ATOM      5  HN  UNK N   1      35.448  17.698  10.865  1.00  0.00     0.168 HD
HETATM    6  C   UNK N   1      34.538  17.253   8.980  0.00  0.00     0.085 A 
HETATM    7  N   UNK N   1      34.060  16.115   8.404  0.00  0.00    -0.303 N 
HETATM    8  C   UNK N   1      34.543  18.607   8.355  0.00  0.00     0.089 C 
ENDROOT
BRANCH   3   9
HETATM    9  C   UNK N   1      35.141  14.951  11.553  0.00  0.00    -0.041 C 
BRANCH   9  10
HETATM   10  C   UNK N   1      35.590  14.321  12.453  0.00  0.00    -0.060 C 
BRANCH  10  11
HETATM   11  C   UNK N   1      36.119  13.508  13.467  0.00  0.00     0.022 A 
HETATM   12  C   UNK N   1      36.965  12.427  13.190  0.00  0.00     0.038 A 
HETATM   13  C   UNK N   1      37.244  11.526  14.224  0.00  0.00     0.090 A 
HETATM   14  N   UNK N   1      36.661  11.694  15.447  0.00  0.00    -0.357 N 
HETATM   15  C   UNK N   1      35.841  12.752  15.703  0.00  0.00     0.104 A 
ATOM     16  HN  UNK N   1      36.842  11.011  16.185  1.00  0.00     0.166 HD
HETATM   17  C   UNK N   1      35.568  13.670  14.714  0.00  0.00     0.063 A 
HETATM   18 Cl   UNK N   1      35.025  12.924  17.234  0.00  0.00    -0.065 Cl
ENDBRANCH  10  11
ENDBRANCH   9  10
ENDBRANCH   3   9
BRANCH   7  19
HETATM   19  C   UNK N   1      33.515  15.898   7.087  0.00  0.00     0.041 A 
HETATM   20  C   UNK N   1      32.153  16.080   6.822  0.00  0.00     0.033 A 
HETATM   21  C   UNK N   1      31.687  16.034   5.502  0.00  0.00     0.044 A 
HETATM   22  C   UNK N   1      32.582  15.815   4.449  0.00  0.00     0.116 A 
HETATM   23  C   UNK N   1      33.928  15.596   4.709  0.00  0.00     0.044 A 
HETATM   24  F   UNK N   1      32.150  15.837   3.168  0.00  0.00    -0.206 F 
HETATM   25  C   UNK N   1      34.384  15.639   6.016  0.00  0.00     0.033 A 
ENDBRANCH   7  19
TORSDOF 4
ENDMDL
MODEL 5
REMARK VINA RESULT:      -6.8     10.920     14.461
REMARK  4 active torsions:
REMARK  status: ('A' for Active; 'I' for Inactive)
REMARK    1  A    between atoms: C_3  and  C_16 
REMARK    2  A    between atoms: N_7  and  C_8 
REMARK    3  A    between atoms: C_16  and  C_17 
REMARK    4  A    between atoms: C_17  and  C_18 
ROOT
HETATM    1  C   UNK N   1      25.961  16.758   5.095  0.00  0.00     0.072 C 
HETATM    2  C   UNK N   1      26.157  18.234   5.289  0.00  0.00     0.050 A 
HETATM    3  C   UNK N   1      25.273  19.170   4.886  0.00  0.00     0.111 A 
HETATM    4  N   UNK N   1      25.735  20.405   5.159  0.00  0.00    -0.337 N 
ATOM      5  HN  UNK N   1      25.289  21.301   4.960  1.00  0.00     0.168 HD
HETATM    6  C   UNK N   1      26.927  20.180   5.760  0.00  0.00     0.085 A 
HETATM    7  N   UNK N   1      27.206  18.851   5.860  0.00  0.00    -0.303 N 
HETATM    8  C   UNK N   1      27.797  21.289   6.249  0.00  0.00     0.089 C 
ENDROOT
BRANCH   3   9
HETATM    9  C   UNK N   1      24.091  18.829   4.207  0.00  0.00    -0.041 C 
BRANCH   9  10
HETATM   10  C   UNK N   1      22.993  18.645   3.795  0.00  0.00    -0.060 C 
BRANCH  10  11
HETATM   11  C   UNK N   1      21.700  18.348   3.337  0.00  0.00     0.022 A 
HETATM   12  C   UNK N   1      20.815  19.343   2.906  0.00  0.00     0.038 A 
HETATM   13  C   UNK N   1      19.476  18.992   2.704  0.00  0.00     0.090 A 
HETATM   14  N   UNK N   1      19.059  17.719   2.969  0.00  0.00    -0.357 N 
HETATM   15  C   UNK N   1      19.933  16.759   3.387  0.00  0.00     0.104 A 
ATOM     16  HN  UNK N   1      18.073  17.481   2.854  1.00  0.00     0.166 HD
HETATM   17  C   UNK N   1      21.262  17.067   3.570  0.00  0.00     0.063 A 
HETATM   18 Cl   UNK N   1      19.393  15.157   3.810  0.00  0.00    -0.065 Cl
ENDBRANCH  10  11
ENDBRANCH   9  10
ENDBRANCH   3   9
BRANCH   7  19
HETATM   19  C   UNK N   1      28.320  18.179   6.482  0.00  0.00     0.041 A 
HETATM   20  C   UNK N   1      29.390  17.686   5.726  0.00  0.00     0.033 A 
HETATM   21  C   UNK N   1      30.533  17.200   6.369  0.00  0.00     0.044 A 
HETATM   22  C   UNK N   1      30.612  17.212   7.766  0.00  0.00     0.116 A 
HETATM   23  C   UNK N   1      29.539  17.664   8.523  0.00  0.00     0.044 A 
HETATM   24  F   UNK N   1      31.740  16.807   8.392  0.00  0.00    -0.206 F 
HETATM   25  C   UNK N   1      28.408  18.141   7.883  0.00  0.00     0.033 A 
ENDBRANCH   7  19
TORSDOF 4
ENDMDL
MODEL 6
REMARK VINA RESULT:      -6.7      2.082      2.537
REMARK  4 active torsions:
REMARK  status: ('A' for Active; 'I' for Inactive)
REMARK    1  A    between atoms: C_3  and  C_16 
REMARK    2  A    between atoms: N_7  and  C_8 
REMARK    3  A    between atoms: C_16  and  C_17 
REMARK    4  A    between atoms: C_17  and  C_18 
ROOT
HETATM    1  C   UNK N   1      34.925  12.282  11.742  0.00  0.00     0.072 C 
HETATM    2  C   UNK N   1      35.560  13.305  12.640  0.00  0.00     0.050 A 
HETATM    3  C   UNK N   1      35.808  14.579  12.271  0.00  0.00     0.111 A 
HETATM    4  N   UNK N   1      36.416  15.250  13.267  0.00  0.00    -0.337 N 
ATOM      5  HN  UNK N   1      36.731  16.220  13.272  1.00  0.00     0.168 HD
HETATM    6  C   UNK N   1      36.510  14.337  14.263  0.00  0.00     0.085 A 
HETATM    7  N   UNK N   1      35.982  13.134  13.904  0.00  0.00    -0.303 N 
HETATM    8  C   UNK N   1      37.121  14.657  15.585  0.00  0.00     0.089 C 
ENDROOT
BRANCH   3   9
HETATM    9  C   UNK N   1      35.518  15.046  10.978  0.00  0.00    -0.041 C 
BRANCH   9  10
HETATM   10  C   UNK N   1      35.185  15.610   9.987  0.00  0.00    -0.060 C 
BRANCH  10  11
HETATM   11  C   UNK N   1      34.873  16.285   8.797  0.00  0.00     0.022 A 
HETATM   12  C   UNK N   1      34.288  17.557   8.794  0.00  0.00     0.038 A 
HETATM   13  C   UNK N   1      33.785  18.048   7.584  0.00  0.00     0.090 A 
HETATM   14  N   UNK N   1      33.835  17.272   6.462  0.00  0.00    -0.357 N 
HETATM   15  C   UNK N   1      34.409  16.036   6.479  0.00  0.00     0.104 A 
ATOM     16  HN  UNK N   1      33.433  17.624   5.592  1.00  0.00     0.166 HD
HETATM   17  C   UNK N   1      34.937  15.535   7.649  0.00  0.00     0.063 A 
HETATM   18 Cl   UNK N   1      34.399  15.005   5.073  0.00  0.00    -0.065 Cl
ENDBRANCH  10  11
ENDBRANCH   9  10
ENDBRANCH   3   9
BRANCH   7  19
HETATM   19  C   UNK N   1      35.817  11.924  14.672  0.00  0.00     0.041 A 
HETATM   20  C   UNK N   1      34.568  11.546  15.178  0.00  0.00     0.033 A 
HETATM   21  C   UNK N   1      34.405  10.285  15.764  0.00  0.00     0.044 A 
HETATM   22  C   UNK N   1      35.487   9.400  15.837  0.00  0.00     0.116 A 
HETATM   23  C   UNK N   1      36.737   9.784  15.371  0.00  0.00     0.044 A 
HETATM   24  F   UNK N   1      35.321   8.156  16.340  0.00  0.00    -0.206 F 
HETATM   25  C   UNK N   1      36.895  11.034  14.795  0.00  0.00     0.033 A 
ENDBRANCH   7  19
TORSDOF 4
ENDMDL
MODEL 7
REMARK VINA RESULT:      -6.7     18.666     23.059
REMARK  4 active torsions:
REMARK  status: ('A' for Active; 'I' for Inactive)
REMARK    1  A    between atoms: C_3  and  C_16 
REMARK    2  A    between atoms: N_7  and  C_8 
REMARK    3  A    between atoms: C_16  and  C_17 
REMARK    4  A    between atoms: C_17  and  C_18 
ROOT
HETATM    1  C   UNK N   1      29.238  25.124  -4.004  0.00  0.00     0.072 C 
HETATM    2  C   UNK N   1      28.339  24.636  -5.103  0.00  0.00     0.050 A 
HETATM    3  C   UNK N   1      28.431  23.412  -5.662  0.00  0.00     0.111 A 
HETATM    4  N   UNK N   1      27.521  23.271  -6.644  0.00  0.00    -0.337 N 
ATOM      5  HN  UNK N   1      27.365  22.463  -7.246  1.00  0.00     0.168 HD
HETATM    6  C   UNK N   1      26.861  24.454  -6.647  0.00  0.00     0.085 A 
HETATM    7  N   UNK N   1      27.340  25.308  -5.700  0.00  0.00    -0.303 N 
HETATM    8  C   UNK N   1      25.740  24.741  -7.588  0.00  0.00     0.089 C 
ENDROOT
BRANCH   3   9
HETATM    9  C   UNK N   1      29.420  22.493  -5.275  0.00  0.00    -0.041 C 
BRANCH   9  10
HETATM   10  C   UNK N   1      30.312  21.868  -4.802  0.00  0.00    -0.060 C 
BRANCH  10  11
HETATM   11  C   UNK N   1      31.402  21.202  -4.220  0.00  0.00     0.022 A 
HETATM   12  C   UNK N   1      31.936  21.586  -2.984  0.00  0.00     0.038 A 
HETATM   13  C   UNK N   1      33.163  21.037  -2.597  0.00  0.00     0.090 A 
HETATM   14  N   UNK N   1      33.823  20.187  -3.437  0.00  0.00    -0.357 N 
HETATM   15  C   UNK N   1      33.290  19.819  -4.636  0.00  0.00     0.104 A 
ATOM     16  HN  UNK N   1      34.735  19.820  -3.161  1.00  0.00     0.166 HD
HETATM   17  C   UNK N   1      32.071  20.322  -5.034  0.00  0.00     0.063 A 
HETATM   18 Cl   UNK N   1      34.165  18.804  -5.750  0.00  0.00    -0.065 Cl
ENDBRANCH  10  11
ENDBRANCH   9  10
ENDBRANCH   3   9
BRANCH   7  19
HETATM   19  C   UNK N   1      26.888  26.624  -5.321  0.00  0.00     0.041 A 
HETATM   20  C   UNK N   1      25.977  26.810  -4.275  0.00  0.00     0.033 A 
HETATM   21  C   UNK N   1      25.695  28.102  -3.816  0.00  0.00     0.044 A 
HETATM   22  C   UNK N   1      26.329  29.207  -4.396  0.00  0.00     0.116 A 
HETATM   23  C   UNK N   1      27.205  29.031  -5.460  0.00  0.00     0.044 A 
HETATM   24  F   UNK N   1      26.113  30.451  -3.914  0.00  0.00    -0.206 F 
HETATM   25  C   UNK N   1      27.478  27.752  -5.913  0.00  0.00     0.033 A 
ENDBRANCH   7  19
TORSDOF 4
ENDMDL
MODEL 8
REMARK VINA RESULT:      -6.6      4.153      6.995
REMARK  4 active torsions:
REMARK  status: ('A' for Active; 'I' for Inactive)
REMARK    1  A    between atoms: C_3  and  C_16 
REMARK    2  A    between atoms: N_7  and  C_8 
REMARK    3  A    between atoms: C_16  and  C_17 
REMARK    4  A    between atoms: C_17  and  C_18 
ROOT
HETATM    1  C   UNK N   1      35.720  11.815  20.100  0.00  0.00     0.072 C 
HETATM    2  C   UNK N   1      34.988  10.619  19.565  0.00  0.00     0.050 A 
HETATM    3  C   UNK N   1      35.014  10.238  18.271  0.00  0.00     0.111 A 
HETATM    4  N   UNK N   1      34.235   9.156  18.081  0.00  0.00    -0.337 N 
ATOM      5  HN  UNK N   1      34.054   8.657  17.210  1.00  0.00     0.168 HD
HETATM    6  C   UNK N   1      33.749   8.885  19.315  0.00  0.00     0.085 A 
HETATM    7  N   UNK N   1      34.206   9.766  20.249  0.00  0.00    -0.303 N 
HETATM    8  C   UNK N   1      32.832   7.739  19.579  0.00  0.00     0.089 C 
ENDROOT
BRANCH   3   9
HETATM    9  C   UNK N   1      35.715  10.969  17.297  0.00  0.00    -0.041 C 
BRANCH   9  10
HETATM   10  C   UNK N   1      36.121  11.581  16.365  0.00  0.00    -0.060 C 
BRANCH  10  11
HETATM   11  C   UNK N   1      36.536  12.357  15.271  0.00  0.00     0.022 A 
HETATM   12  C   UNK N   1      36.251  13.725  15.178  0.00  0.00     0.038 A 
HETATM   13  C   UNK N   1      36.479  14.364  13.954  0.00  0.00     0.090 A 
HETATM   14  N   UNK N   1      36.925  13.643  12.884  0.00  0.00    -0.357 N 
HETATM   15  C   UNK N   1      37.200  12.312  12.990  0.00  0.00     0.104 A 
ATOM     16  HN  UNK N   1      37.054  14.111  11.985  1.00  0.00     0.166 HD
HETATM   17  C   UNK N   1      37.011  11.660  14.188  0.00  0.00     0.063 A 
HETATM   18 Cl   UNK N   1      37.686  11.369  11.607  0.00  0.00    -0.065 Cl
ENDBRANCH  10  11
ENDBRANCH   9  10
ENDBRANCH   3   9
BRANCH   7  19
HETATM   19  C   UNK N   1      33.994   9.802  21.675  0.00  0.00     0.041 A 
HETATM   20  C   UNK N   1      34.925   9.253  22.564  0.00  0.00     0.033 A 
HETATM   21  C   UNK N   1      34.780   9.460  23.941  0.00  0.00     0.044 A 
HETATM   22  C   UNK N   1      33.712  10.221  24.428  0.00  0.00     0.116 A 
HETATM   23  C   UNK N   1      32.764  10.736  23.553  0.00  0.00     0.044 A 
HETATM   24  F   UNK N   1      33.603  10.481  25.751  0.00  0.00    -0.206 F 
HETATM   25  C   UNK N   1      32.909  10.526  22.193  0.00  0.00     0.033 A 
ENDBRANCH   7  19
TORSDOF 4
ENDMDL
MODEL 9
REMARK VINA RESULT:      -6.6      2.325      3.386
REMARK  4 active torsions:
REMARK  status: ('A' for Active; 'I' for Inactive)
REMARK    1  A    between atoms: C_3  and  C_16 
REMARK    2  A    between atoms: N_7  and  C_8 
REMARK    3  A    between atoms: C_16  and  C_17 
REMARK    4  A    between atoms: C_17  and  C_18 
ROOT
HETATM    1  C   UNK N   1      34.579  12.952  16.152  0.00  0.00     0.072 C 
HETATM    2  C   UNK N   1      35.650  11.982  15.743  0.00  0.00     0.050 A 
HETATM    3  C   UNK N   1      36.378  12.099  14.612  0.00  0.00     0.111 A 
HETATM    4  N   UNK N   1      37.232  11.066  14.492  0.00  0.00    -0.337 N 
ATOM      5  HN  UNK N   1      37.895  10.883  13.739  1.00  0.00     0.168 HD
HETATM    6  C   UNK N   1      37.007  10.326  15.604  0.00  0.00     0.085 A 
HETATM    7  N   UNK N   1      36.043  10.875  16.395  0.00  0.00    -0.303 N 
HETATM    8  C   UNK N   1      37.756   9.070  15.893  0.00  0.00     0.089 C 
ENDROOT
BRANCH   3   9
HETATM    9  C   UNK N   1      36.159  13.140  13.694  0.00  0.00    -0.041 C 
BRANCH   9  10
HETATM   10  C   UNK N   1      35.833  13.883  12.827  0.00  0.00    -0.060 C 
BRANCH  10  11
HETATM   11  C   UNK N   1      35.454  14.696  11.748  0.00  0.00     0.022 A 
HETATM   12  C   UNK N   1      35.910  16.012  11.611  0.00  0.00     0.038 A 
HETATM   13  C   UNK N   1      35.295  16.827  10.654  0.00  0.00     0.090 A 
HETATM   14  N   UNK N   1      34.253  16.341   9.917  0.00  0.00    -0.357 N 
HETATM   15  C   UNK N   1      33.821  15.056  10.059  0.00  0.00     0.104 A 
ATOM     16  HN  UNK N   1      33.787  16.954   9.247  1.00  0.00     0.166 HD
HETATM   17  C   UNK N   1      34.423  14.222  10.975  0.00  0.00     0.063 A 
HETATM   18 Cl   UNK N   1      32.437  14.457   9.185  0.00  0.00    -0.065 Cl
ENDBRANCH  10  11
ENDBRANCH   9  10
ENDBRANCH   3   9
BRANCH   7  19
HETATM   19  C   UNK N   1      35.549  10.457  17.684  0.00  0.00     0.041 A 
HETATM   20  C   UNK N   1      35.944  11.103  18.861  0.00  0.00     0.033 A 
HETATM   21  C   UNK N   1      35.314  10.792  20.072  0.00  0.00     0.044 A 
HETATM   22  C   UNK N   1      34.286   9.843  20.106  0.00  0.00     0.116 A 
HETATM   23  C   UNK N   1      33.916   9.172  18.948  0.00  0.00     0.044 A 
HETATM   24  F   UNK N   1      33.628   9.588  21.259  0.00  0.00    -0.206 F 
HETATM   25  C   UNK N   1      34.543   9.480  17.753  0.00  0.00     0.033 A 
ENDBRANCH   7  19
TORSDOF 4
ENDMDL
