MODEL 1
REMARK VINA RESULT:      -6.2      0.000      0.000
REMARK  24 active torsions:
REMARK  status: ('A' for Active; 'I' for Inactive)
REMARK    1  A    between atoms: C_2  and  C_3 
REMARK    2  A    between atoms: C_3  and  C_4 
REMARK    3  A    between atoms: C_4  and  C_5 
REMARK    4  A    between atoms: C_5  and  C_6 
REMARK    5  A    between atoms: C_7  and  C_8 
REMARK    6  A    between atoms: C_8  and  C_9 
REMARK    7  A    between atoms: C_10  and  C_11 
REMARK    8  A    between atoms: C_12  and  C_13 
REMARK    9  A    between atoms: C_14  and  C_15 
REMARK   10  A    between atoms: C_15  and  C_16 
REMARK   11  A    between atoms: C_15  and  S_24 
REMARK   12  A    between atoms: C_16  and  C_17 
REMARK   13  A    between atoms: C_16  and  O_23 
REMARK   14  A    between atoms: C_17  and  C_18 
REMARK   15  A    between atoms: C_18  and  C_19 
REMARK   16  A    between atoms: C_19  and  C_20 
REMARK   17  A    between atoms: C_20  and  O_22 
REMARK   18  A    between atoms: S_24  and  C_25 
REMARK   19  A    between atoms: C_25  and  C_26 
REMARK   20  A    between atoms: C_26  and  C_27 
REMARK   21  A    between atoms: C_26  and  N_34 
REMARK       I    between atoms: C_27  and  N_29 
REMARK   22  A    between atoms: N_29  and  C_30 
REMARK   23  A    between atoms: C_30  and  C_31 
REMARK   24  A    between atoms: C_31  and  O_33 
ROOT
HETATM    1  C   UNK N   1      22.806  16.511   6.157  0.00  0.00     0.098 C 
ENDROOT
BRANCH   1   2
HETATM    2  C   UNK N   1      23.980  16.296   5.257  0.00  0.00    -0.009 C 
HETATM    3  C   UNK N   1      24.764  17.257   4.761  0.00  0.00    -0.003 C 
BRANCH   3   4
HETATM    4  C   UNK N   1      25.834  16.883   3.810  0.00  0.00    -0.000 C 
HETATM    5  C   UNK N   1      26.916  16.237   4.261  0.00  0.00    -0.000 C 
BRANCH   5   6
HETATM    6  C   UNK N   1      28.059  15.886   3.413  0.00  0.00    -0.004 C 
HETATM    7  C   UNK N   1      29.206  16.576   3.493  0.00  0.00    -0.023 C 
BRANCH   7   8
HETATM    8  C   UNK N   1      29.408  17.678   4.494  0.00  0.00     0.054 C 
BRANCH   8   9
HETATM    9  C   UNK N   1      30.044  17.167   5.748  0.00  0.00    -0.027 C 
HETATM   10  C   UNK N   1      29.427  17.211   6.937  0.00  0.00    -0.030 C 
BRANCH  10  11
HETATM   11  C   UNK N   1      28.060  17.793   7.121  0.00  0.00     0.027 C 
BRANCH  11  12
HETATM   12  C   UNK N   1      28.169  19.292   7.322  0.00  0.00     0.004 C 
BRANCH  12  13
HETATM   13  C   UNK N   1      27.030  19.990   6.606  0.00  0.00    -0.000 C 
BRANCH  13  14
HETATM   14  C   UNK N   1      27.576  20.811   5.456  0.00  0.00    -0.005 C 
HETATM   15  C   UNK N   1      26.972  20.323   4.156  0.00  0.00     0.005 C 
ENDBRANCH  13  14
ENDBRANCH  12  13
ENDBRANCH  11  12
ENDBRANCH  10  11
ENDBRANCH   8   9
ENDBRANCH   7   8
ENDBRANCH   5   6
ENDBRANCH   3   4
ENDBRANCH   1   2
BRANCH   1  16
HETATM   16  C   UNK N   1      22.061  17.781   5.710  0.00  0.00     0.135 C 
BRANCH  16  17
HETATM   17  C   UNK N   1      20.967  17.453   4.713  0.00  0.00     0.034 C 
BRANCH  17  18
HETATM   18  C   UNK N   1      21.286  17.937   3.315  0.00  0.00     0.013 C 
BRANCH  18  19
HETATM   19  C   UNK N   1      22.043  19.252   3.411  0.00  0.00     0.110 C 
BRANCH  19  20
HETATM   20  C   UNK N   1      21.170  20.420   3.077  0.00  0.00     0.139 C 
HETATM   21  O   UNK N   1      19.955  20.326   3.148  0.00  0.00    -0.650 OA
BRANCH  20  22
HETATM   22  O   UNK N   1      21.728  21.574   2.667  0.00  0.00    -0.776 OA
HETATM   23  H   UNK N   1      22.372  21.675   1.994  0.00  0.00     0.167 HD
ENDBRANCH  20  22
ENDBRANCH  19  20
ENDBRANCH  18  19
ENDBRANCH  17  18
ENDBRANCH  16  17
BRANCH  16  24
HETATM   24  O   UNK N   1      21.450  18.401   6.803  0.00  0.00    -0.394 OA
HETATM   25  H   UNK N   1      21.921  18.869   7.511  0.00  0.00     0.210 HD
ENDBRANCH  16  24
ENDBRANCH   1  16
BRANCH   1  26
HETATM   26  S   UNK N   1      21.691  15.069   6.095  0.00  0.00    -0.155 SA
BRANCH  26  27
HETATM   27  C   UNK N   1      22.333  14.334   7.626  0.00  0.00     0.108 C 
BRANCH  27  28
HETATM   28  C   UNK N   1      21.426  14.741   8.777  0.00  0.00     0.176 C 
BRANCH  28  29
HETATM   29  C   UNK N   1      21.345  13.674   9.841  0.00  0.00     0.241 C 
HETATM   30  O   UNK N   1      20.253  13.281  10.218  0.00  0.00    -0.271 OA
HETATM   31  N   UNK N   1      22.484  13.139  10.354  0.00  0.00    -0.349 N 
HETATM   32  H   UNK N   1      23.353  13.494  10.056  0.00  0.00     0.163 HD
BRANCH  31  33
HETATM   33  C   UNK N   1      22.463  12.065  11.320  0.00  0.00     0.232 C 
BRANCH  33  34
HETATM   34  C   UNK N   1      23.678  12.117  12.200  0.00  0.00     0.158 C 
HETATM   35  O   UNK N   1      23.550  12.000  13.408  0.00  0.00    -0.649 OA
BRANCH  34  36
HETATM   36  O   UNK N   1      24.904  12.309  11.675  0.00  0.00    -0.775 OA
HETATM   37  H   UNK N   1      25.018  12.496  10.764  0.00  0.00     0.167 HD
ENDBRANCH  34  36
ENDBRANCH  33  34
ENDBRANCH  31  33
ENDBRANCH  28  29
BRANCH  28  38
HETATM   38  N   UNK N   1      20.110  15.078   8.263  0.00  0.00    -0.418 N 
HETATM   39  H   UNK N   1      19.380  14.410   8.014  0.00  0.00     0.150 HD
HETATM   40  H   UNK N   1      19.896  16.068   8.141  0.00  0.00     0.150 HD
ENDBRANCH  28  38
ENDBRANCH  27  28
ENDBRANCH  26  27
ENDBRANCH   1  26
TORSDOF 24
ENDMDL
MODEL 2
REMARK VINA RESULT:      -6.2      3.281      4.770
REMARK  24 active torsions:
REMARK  status: ('A' for Active; 'I' for Inactive)
REMARK    1  A    between atoms: C_2  and  C_3 
REMARK    2  A    between atoms: C_3  and  C_4 
REMARK    3  A    between atoms: C_4  and  C_5 
REMARK    4  A    between atoms: C_5  and  C_6 
REMARK    5  A    between atoms: C_7  and  C_8 
REMARK    6  A    between atoms: C_8  and  C_9 
REMARK    7  A    between atoms: C_10  and  C_11 
REMARK    8  A    between atoms: C_12  and  C_13 
REMARK    9  A    between atoms: C_14  and  C_15 
REMARK   10  A    between atoms: C_15  and  C_16 
REMARK   11  A    between atoms: C_15  and  S_24 
REMARK   12  A    between atoms: C_16  and  C_17 
REMARK   13  A    between atoms: C_16  and  O_23 
REMARK   14  A    between atoms: C_17  and  C_18 
REMARK   15  A    between atoms: C_18  and  C_19 
REMARK   16  A    between atoms: C_19  and  C_20 
REMARK   17  A    between atoms: C_20  and  O_22 
REMARK   18  A    between atoms: S_24  and  C_25 
REMARK   19  A    between atoms: C_25  and  C_26 
REMARK   20  A    between atoms: C_26  and  C_27 
REMARK   21  A    between atoms: C_26  and  N_34 
REMARK       I    between atoms: C_27  and  N_29 
REMARK   22  A    between atoms: N_29  and  C_30 
REMARK   23  A    between atoms: C_30  and  C_31 
REMARK   24  A    between atoms: C_31  and  O_33 
ROOT
HETATM    1  C   UNK N   1      21.113  18.027   4.720  0.00  0.00     0.098 C 
ENDROOT
BRANCH   1   2
HETATM    2  C   UNK N   1      22.296  18.762   4.179  0.00  0.00    -0.009 C 
HETATM    3  C   UNK N   1      22.250  19.765   3.298  0.00  0.00    -0.003 C 
BRANCH   3   4
HETATM    4  C   UNK N   1      23.522  20.330   2.793  0.00  0.00    -0.000 C 
HETATM    5  C   UNK N   1      24.665  20.036   3.423  0.00  0.00    -0.000 C 
BRANCH   5   6
HETATM    6  C   UNK N   1      25.964  20.599   3.045  0.00  0.00    -0.004 C 
HETATM    7  C   UNK N   1      27.096  20.140   3.598  0.00  0.00    -0.023 C 
BRANCH   7   8
HETATM    8  C   UNK N   1      27.104  18.987   4.562  0.00  0.00     0.054 C 
BRANCH   8   9
HETATM    9  C   UNK N   1      27.459  17.705   3.876  0.00  0.00    -0.027 C 
HETATM   10  C   UNK N   1      28.654  17.118   4.023  0.00  0.00    -0.030 C 
BRANCH  10  11
HETATM   11  C   UNK N   1      29.746  17.699   4.867  0.00  0.00     0.027 C 
BRANCH  11  12
HETATM   12  C   UNK N   1      30.113  16.721   5.965  0.00  0.00     0.004 C 
BRANCH  12  13
HETATM   13  C   UNK N   1      30.017  17.405   7.315  0.00  0.00    -0.000 C 
BRANCH  13  14
HETATM   14  C   UNK N   1      28.578  17.406   7.786  0.00  0.00    -0.005 C 
HETATM   15  C   UNK N   1      28.275  18.717   8.480  0.00  0.00     0.005 C 
ENDBRANCH  13  14
ENDBRANCH  12  13
ENDBRANCH  11  12
ENDBRANCH  10  11
ENDBRANCH   8   9
ENDBRANCH   7   8
ENDBRANCH   5   6
ENDBRANCH   3   4
ENDBRANCH   1   2
BRANCH   1  16
HETATM   16  C   UNK N   1      20.294  17.466   3.545  0.00  0.00     0.135 C 
BRANCH  16  17
HETATM   17  C   UNK N   1      20.947  16.228   2.961  0.00  0.00     0.034 C 
BRANCH  17  18
HETATM   18  C   UNK N   1      19.958  15.319   2.264  0.00  0.00     0.013 C 
BRANCH  18  19
HETATM   19  C   UNK N   1      20.238  15.344   0.770  0.00  0.00     0.110 C 
BRANCH  19  20
HETATM   20  C   UNK N   1      19.637  16.547   0.113  0.00  0.00     0.139 C 
HETATM   21  O   UNK N   1      20.350  17.447  -0.303  0.00  0.00    -0.650 OA
BRANCH  20  22
HETATM   22  O   UNK N   1      18.300  16.649   0.007  0.00  0.00    -0.776 OA
HETATM   23  H   UNK N   1      17.711  16.970   0.661  0.00  0.00     0.167 HD
ENDBRANCH  20  22
ENDBRANCH  19  20
ENDBRANCH  18  19
ENDBRANCH  17  18
ENDBRANCH  16  17
BRANCH  16  24
HETATM   24  O   UNK N   1      19.016  17.096   3.971  0.00  0.00    -0.394 OA
HETATM   25  H   UNK N   1      18.529  17.515   4.699  0.00  0.00     0.210 HD
ENDBRANCH  16  24
ENDBRANCH   1  16
BRANCH   1  26
HETATM   26  S   UNK N   1      21.658  16.673   5.813  0.00  0.00    -0.155 SA
BRANCH  26  27
HETATM   27  C   UNK N   1      20.652  17.221   7.222  0.00  0.00     0.108 C 
BRANCH  27  28
HETATM   28  C   UNK N   1      19.659  16.122   7.565  0.00  0.00     0.176 C 
BRANCH  28  29
HETATM   29  C   UNK N   1      18.821  16.469   8.772  0.00  0.00     0.241 C 
HETATM   30  O   UNK N   1      18.510  15.593   9.562  0.00  0.00    -0.271 OA
HETATM   31  N   UNK N   1      18.442  17.756   8.987  0.00  0.00    -0.349 N 
HETATM   32  H   UNK N   1      18.679  18.440   8.319  0.00  0.00     0.163 HD
BRANCH  31  33
HETATM   33  C   UNK N   1      17.703  18.155  10.163  0.00  0.00     0.232 C 
BRANCH  33  34
HETATM   34  C   UNK N   1      18.502  19.117  10.992  0.00  0.00     0.158 C 
HETATM   35  O   UNK N   1      19.502  19.632  10.520  0.00  0.00    -0.649 OA
BRANCH  34  36
HETATM   36  O   UNK N   1      18.139  19.405  12.258  0.00  0.00    -0.775 OA
HETATM   37  H   UNK N   1      17.499  18.890  12.709  0.00  0.00     0.167 HD
ENDBRANCH  34  36
ENDBRANCH  33  34
ENDBRANCH  31  33
ENDBRANCH  28  29
BRANCH  28  38
HETATM   38  N   UNK N   1      20.368  14.868   7.756  0.00  0.00    -0.418 N 
HETATM   39  H   UNK N   1      20.198  14.198   8.506  0.00  0.00     0.150 HD
HETATM   40  H   UNK N   1      21.098  14.638   7.081  0.00  0.00     0.150 HD
ENDBRANCH  28  38
ENDBRANCH  27  28
ENDBRANCH  26  27
ENDBRANCH   1  26
TORSDOF 24
ENDMDL
MODEL 3
REMARK VINA RESULT:      -6.1      3.997      8.108
REMARK  24 active torsions:
REMARK  status: ('A' for Active; 'I' for Inactive)
REMARK    1  A    between atoms: C_2  and  C_3 
REMARK    2  A    between atoms: C_3  and  C_4 
REMARK    3  A    between atoms: C_4  and  C_5 
REMARK    4  A    between atoms: C_5  and  C_6 
REMARK    5  A    between atoms: C_7  and  C_8 
REMARK    6  A    between atoms: C_8  and  C_9 
REMARK    7  A    between atoms: C_10  and  C_11 
REMARK    8  A    between atoms: C_12  and  C_13 
REMARK    9  A    between atoms: C_14  and  C_15 
REMARK   10  A    between atoms: C_15  and  C_16 
REMARK   11  A    between atoms: C_15  and  S_24 
REMARK   12  A    between atoms: C_16  and  C_17 
REMARK   13  A    between atoms: C_16  and  O_23 
REMARK   14  A    between atoms: C_17  and  C_18 
REMARK   15  A    between atoms: C_18  and  C_19 
REMARK   16  A    between atoms: C_19  and  C_20 
REMARK   17  A    between atoms: C_20  and  O_22 
REMARK   18  A    between atoms: S_24  and  C_25 
REMARK   19  A    between atoms: C_25  and  C_26 
REMARK   20  A    between atoms: C_26  and  C_27 
REMARK   21  A    between atoms: C_26  and  N_34 
REMARK       I    between atoms: C_27  and  N_29 
REMARK   22  A    between atoms: N_29  and  C_30 
REMARK   23  A    between atoms: C_30  and  C_31 
REMARK   24  A    between atoms: C_31  and  O_33 
ROOT
HETATM    1  C   UNK N   1      21.529  16.276   5.565  0.00  0.00     0.098 C 
ENDROOT
BRANCH   1   2
HETATM    2  C   UNK N   1      21.620  15.723   6.950  0.00  0.00    -0.009 C 
HETATM    3  C   UNK N   1      20.660  15.036   7.576  0.00  0.00    -0.003 C 
BRANCH   3   4
HETATM    4  C   UNK N   1      20.875  14.634   8.984  0.00  0.00    -0.000 C 
HETATM    5  C   UNK N   1      20.931  13.334   9.293  0.00  0.00    -0.000 C 
BRANCH   5   6
HETATM    6  C   UNK N   1      21.070  12.834  10.664  0.00  0.00    -0.004 C 
HETATM    7  C   UNK N   1      22.089  12.030  10.999  0.00  0.00    -0.023 C 
BRANCH   7   8
HETATM    8  C   UNK N   1      23.173  11.665  10.024  0.00  0.00     0.054 C 
BRANCH   8   9
HETATM    9  C   UNK N   1      24.452  12.374  10.340  0.00  0.00    -0.027 C 
HETATM   10  C   UNK N   1      25.004  13.267   9.508  0.00  0.00    -0.030 C 
BRANCH  10  11
HETATM   11  C   UNK N   1      24.404  13.620   8.182  0.00  0.00     0.027 C 
BRANCH  11  12
HETATM   12  C   UNK N   1      25.277  13.076   7.069  0.00  0.00     0.004 C 
BRANCH  12  13
HETATM   13  C   UNK N   1      24.487  12.091   6.230  0.00  0.00    -0.000 C 
BRANCH  13  14
HETATM   14  C   UNK N   1      23.005  12.360   6.388  0.00  0.00    -0.005 C 
HETATM   15  C   UNK N   1      22.256  11.045   6.437  0.00  0.00     0.005 C 
ENDBRANCH  13  14
ENDBRANCH  12  13
ENDBRANCH  11  12
ENDBRANCH  10  11
ENDBRANCH   8   9
ENDBRANCH   7   8
ENDBRANCH   5   6
ENDBRANCH   3   4
ENDBRANCH   1   2
BRANCH   1  16
HETATM   16  C   UNK N   1      22.830  17.030   5.242  0.00  0.00     0.135 C 
BRANCH  16  17
HETATM   17  C   UNK N   1      23.938  16.073   4.849  0.00  0.00     0.034 C 
BRANCH  17  18
HETATM   18  C   UNK N   1      25.263  16.415   5.495  0.00  0.00     0.013 C 
BRANCH  18  19
HETATM   19  C   UNK N   1      26.147  17.101   4.465  0.00  0.00     0.110 C 
BRANCH  19  20
HETATM   20  C   UNK N   1      26.128  18.590   4.623  0.00  0.00     0.139 C 
HETATM   21  O   UNK N   1      25.966  19.313   3.653  0.00  0.00    -0.650 OA
BRANCH  20  22
HETATM   22  O   UNK N   1      26.320  19.134   5.838  0.00  0.00    -0.776 OA
HETATM   23  H   UNK N   1      26.917  19.823   6.054  0.00  0.00     0.167 HD
ENDBRANCH  20  22
ENDBRANCH  19  20
ENDBRANCH  18  19
ENDBRANCH  17  18
ENDBRANCH  16  17
BRANCH  16  24
HETATM   24  O   UNK N   1      22.637  17.901   4.166  0.00  0.00    -0.394 OA
HETATM   25  H   UNK N   1      22.780  18.861   4.195  0.00  0.00     0.210 HD
ENDBRANCH  16  24
ENDBRANCH   1  16
BRANCH   1  26
HETATM   26  S   UNK N   1      21.266  14.927   4.365  0.00  0.00    -0.155 SA
BRANCH  26  27
HETATM   27  C   UNK N   1      19.888  15.759   3.523  0.00  0.00     0.108 C 
BRANCH  27  28
HETATM   28  C   UNK N   1      20.136  15.710   2.024  0.00  0.00     0.176 C 
BRANCH  28  29
HETATM   29  C   UNK N   1      20.322  17.086   1.433  0.00  0.00     0.241 C 
HETATM   30  O   UNK N   1      20.300  17.230   0.222  0.00  0.00    -0.271 OA
HETATM   31  N   UNK N   1      20.485  18.159   2.251  0.00  0.00    -0.349 N 
HETATM   32  H   UNK N   1      20.530  18.013   3.224  0.00  0.00     0.163 HD
BRANCH  31  33
HETATM   33  C   UNK N   1      20.593  19.506   1.741  0.00  0.00     0.232 C 
BRANCH  33  34
HETATM   34  C   UNK N   1      21.033  20.451   2.822  0.00  0.00     0.158 C 
HETATM   35  O   UNK N   1      21.819  21.345   2.556  0.00  0.00    -0.649 OA
BRANCH  34  36
HETATM   36  O   UNK N   1      20.585  20.311   4.085  0.00  0.00    -0.775 OA
HETATM   37  H   UNK N   1      19.977  19.636   4.314  0.00  0.00     0.167 HD
ENDBRANCH  34  36
ENDBRANCH  33  34
ENDBRANCH  31  33
ENDBRANCH  28  29
BRANCH  28  38
HETATM   38  N   UNK N   1      19.049  14.997   1.375  0.00  0.00    -0.418 N 
HETATM   39  H   UNK N   1      18.149  14.771   1.800  0.00  0.00     0.150 HD
HETATM   40  H   UNK N   1      19.197  14.698   0.411  0.00  0.00     0.150 HD
ENDBRANCH  28  38
ENDBRANCH  27  28
ENDBRANCH  26  27
ENDBRANCH   1  26
TORSDOF 24
ENDMDL
MODEL 4
REMARK VINA RESULT:      -6.1      1.629      3.025
REMARK  24 active torsions:
REMARK  status: ('A' for Active; 'I' for Inactive)
REMARK    1  A    between atoms: C_2  and  C_3 
REMARK    2  A    between atoms: C_3  and  C_4 
REMARK    3  A    between atoms: C_4  and  C_5 
REMARK    4  A    between atoms: C_5  and  C_6 
REMARK    5  A    between atoms: C_7  and  C_8 
REMARK    6  A    between atoms: C_8  and  C_9 
REMARK    7  A    between atoms: C_10  and  C_11 
REMARK    8  A    between atoms: C_12  and  C_13 
REMARK    9  A    between atoms: C_14  and  C_15 
REMARK   10  A    between atoms: C_15  and  C_16 
REMARK   11  A    between atoms: C_15  and  S_24 
REMARK   12  A    between atoms: C_16  and  C_17 
REMARK   13  A    between atoms: C_16  and  O_23 
REMARK   14  A    between atoms: C_17  and  C_18 
REMARK   15  A    between atoms: C_18  and  C_19 
REMARK   16  A    between atoms: C_19  and  C_20 
REMARK   17  A    between atoms: C_20  and  O_22 
REMARK   18  A    between atoms: S_24  and  C_25 
REMARK   19  A    between atoms: C_25  and  C_26 
REMARK   20  A    between atoms: C_26  and  C_27 
REMARK   21  A    between atoms: C_26  and  N_34 
REMARK       I    between atoms: C_27  and  N_29 
REMARK   22  A    between atoms: N_29  and  C_30 
REMARK   23  A    between atoms: C_30  and  C_31 
REMARK   24  A    between atoms: C_31  and  O_33 
ROOT
HETATM    1  C   UNK N   1      20.861  16.618   5.475  0.00  0.00     0.098 C 
ENDROOT
BRANCH   1   2
HETATM    2  C   UNK N   1      22.099  17.038   4.750  0.00  0.00    -0.009 C 
HETATM    3  C   UNK N   1      22.814  18.136   5.007  0.00  0.00    -0.003 C 
BRANCH   3   4
HETATM    4  C   UNK N   1      23.967  18.456   4.137  0.00  0.00    -0.000 C 
HETATM    5  C   UNK N   1      24.111  19.701   3.669  0.00  0.00    -0.000 C 
BRANCH   5   6
HETATM    6  C   UNK N   1      25.176  20.100   2.746  0.00  0.00    -0.004 C 
HETATM    7  C   UNK N   1      26.379  20.471   3.209  0.00  0.00    -0.023 C 
BRANCH   7   8
HETATM    8  C   UNK N   1      26.721  20.425   4.671  0.00  0.00     0.054 C 
BRANCH   8   9
HETATM    9  C   UNK N   1      28.139  19.995   4.886  0.00  0.00    -0.027 C 
HETATM   10  C   UNK N   1      28.500  18.707   4.939  0.00  0.00    -0.030 C 
BRANCH  10  11
HETATM   11  C   UNK N   1      27.519  17.583   4.807  0.00  0.00     0.027 C 
BRANCH  11  12
HETATM   12  C   UNK N   1      27.827  16.783   3.556  0.00  0.00     0.004 C 
BRANCH  12  13
HETATM   13  C   UNK N   1      26.538  16.429   2.843  0.00  0.00    -0.000 C 
BRANCH  13  14
HETATM   14  C   UNK N   1      25.955  15.165   3.439  0.00  0.00    -0.005 C 
HETATM   15  C   UNK N   1      24.548  14.963   2.916  0.00  0.00     0.005 C 
ENDBRANCH  13  14
ENDBRANCH  12  13
ENDBRANCH  11  12
ENDBRANCH  10  11
ENDBRANCH   8   9
ENDBRANCH   7   8
ENDBRANCH   5   6
ENDBRANCH   3   4
ENDBRANCH   1   2
BRANCH   1  16
HETATM   16  C   UNK N   1      19.642  16.885   4.576  0.00  0.00     0.135 C 
BRANCH  16  17
HETATM   17  C   UNK N   1      20.061  17.131   3.140  0.00  0.00     0.034 C 
BRANCH  17  18
HETATM   18  C   UNK N   1      19.486  18.412   2.575  0.00  0.00     0.013 C 
BRANCH  18  19
HETATM   19  C   UNK N   1      20.630  19.301   2.114  0.00  0.00     0.110 C 
BRANCH  19  20
HETATM   20  C   UNK N   1      20.779  20.509   2.986  0.00  0.00     0.139 C 
HETATM   21  O   UNK N   1      20.315  20.519   4.115  0.00  0.00    -0.650 OA
BRANCH  20  22
HETATM   22  O   UNK N   1      21.405  21.601   2.510  0.00  0.00    -0.776 OA
HETATM   23  H   UNK N   1      22.225  21.946   2.801  0.00  0.00     0.167 HD
ENDBRANCH  20  22
ENDBRANCH  19  20
ENDBRANCH  18  19
ENDBRANCH  17  18
ENDBRANCH  16  17
BRANCH  16  24
HETATM   24  O   UNK N   1      18.785  15.781   4.572  0.00  0.00    -0.394 OA
HETATM   25  H   UNK N   1      18.868  15.015   3.980  0.00  0.00     0.210 HD
ENDBRANCH  16  24
ENDBRANCH   1  16
BRANCH   1  26
HETATM   26  S   UNK N   1      20.953  14.848   5.906  0.00  0.00    -0.155 SA
BRANCH  26  27
HETATM   27  C   UNK N   1      22.317  15.065   7.085  0.00  0.00     0.108 C 
BRANCH  27  28
HETATM   28  C   UNK N   1      21.841  14.627   8.462  0.00  0.00     0.176 C 
BRANCH  28  29
HETATM   29  C   UNK N   1      22.521  13.360   8.921  0.00  0.00     0.241 C 
HETATM   30  O   UNK N   1      23.313  12.799   8.181  0.00  0.00    -0.271 OA
HETATM   31  N   UNK N   1      22.272  12.867  10.162  0.00  0.00    -0.349 N 
HETATM   32  H   UNK N   1      21.606  13.320  10.729  0.00  0.00     0.163 HD
BRANCH  31  33
HETATM   33  C   UNK N   1      22.950  11.701  10.679  0.00  0.00     0.232 C 
BRANCH  33  34
HETATM   34  C   UNK N   1      23.964  12.090  11.715  0.00  0.00     0.158 C 
HETATM   35  O   UNK N   1      23.682  11.991  12.898  0.00  0.00    -0.649 OA
BRANCH  34  36
HETATM   36  O   UNK N   1      25.173  12.563  11.354  0.00  0.00    -0.775 OA
HETATM   37  H   UNK N   1      25.397  13.466  11.472  0.00  0.00     0.167 HD
ENDBRANCH  34  36
ENDBRANCH  33  34
ENDBRANCH  31  33
ENDBRANCH  28  29
BRANCH  28  38
HETATM   38  N   UNK N   1      20.396  14.479   8.453  0.00  0.00    -0.418 N 
HETATM   39  H   UNK N   1      19.750  14.994   7.855  0.00  0.00     0.150 HD
HETATM   40  H   UNK N   1      19.992  13.801   9.099  0.00  0.00     0.150 HD
ENDBRANCH  28  38
ENDBRANCH  27  28
ENDBRANCH  26  27
ENDBRANCH   1  26
TORSDOF 24
ENDMDL
MODEL 5
REMARK VINA RESULT:      -6.0      1.186      2.629
REMARK  24 active torsions:
REMARK  status: ('A' for Active; 'I' for Inactive)
REMARK    1  A    between atoms: C_2  and  C_3 
REMARK    2  A    between atoms: C_3  and  C_4 
REMARK    3  A    between atoms: C_4  and  C_5 
REMARK    4  A    between atoms: C_5  and  C_6 
REMARK    5  A    between atoms: C_7  and  C_8 
REMARK    6  A    between atoms: C_8  and  C_9 
REMARK    7  A    between atoms: C_10  and  C_11 
REMARK    8  A    between atoms: C_12  and  C_13 
REMARK    9  A    between atoms: C_14  and  C_15 
REMARK   10  A    between atoms: C_15  and  C_16 
REMARK   11  A    between atoms: C_15  and  S_24 
REMARK   12  A    between atoms: C_16  and  C_17 
REMARK   13  A    between atoms: C_16  and  O_23 
REMARK   14  A    between atoms: C_17  and  C_18 
REMARK   15  A    between atoms: C_18  and  C_19 
REMARK   16  A    between atoms: C_19  and  C_20 
REMARK   17  A    between atoms: C_20  and  O_22 
REMARK   18  A    between atoms: S_24  and  C_25 
REMARK   19  A    between atoms: C_25  and  C_26 
REMARK   20  A    between atoms: C_26  and  C_27 
REMARK   21  A    between atoms: C_26  and  N_34 
REMARK       I    between atoms: C_27  and  N_29 
REMARK   22  A    between atoms: N_29  and  C_30 
REMARK   23  A    between atoms: C_30  and  C_31 
REMARK   24  A    between atoms: C_31  and  O_33 
ROOT
HETATM    1  C   UNK N   1      22.663  15.678   6.615  0.00  0.00     0.098 C 
ENDROOT
BRANCH   1   2
HETATM    2  C   UNK N   1      24.134  15.735   6.354  0.00  0.00    -0.009 C 
HETATM    3  C   UNK N   1      25.014  14.777   6.657  0.00  0.00    -0.003 C 
BRANCH   3   4
HETATM    4  C   UNK N   1      26.452  15.027   6.413  0.00  0.00    -0.000 C 
HETATM    5  C   UNK N   1      26.934  16.267   6.546  0.00  0.00    -0.000 C 
BRANCH   5   6
HETATM    6  C   UNK N   1      28.324  16.629   6.259  0.00  0.00    -0.004 C 
HETATM    7  C   UNK N   1      28.706  17.915   6.235  0.00  0.00    -0.023 C 
BRANCH   7   8
HETATM    8  C   UNK N   1      27.762  19.035   6.573  0.00  0.00     0.054 C 
BRANCH   8   9
HETATM    9  C   UNK N   1      27.764  20.089   5.510  0.00  0.00    -0.027 C 
HETATM   10  C   UNK N   1      26.827  20.149   4.555  0.00  0.00    -0.030 C 
BRANCH  10  11
HETATM   11  C   UNK N   1      25.708  19.159   4.452  0.00  0.00     0.027 C 
BRANCH  11  12
HETATM   12  C   UNK N   1      25.995  18.183   3.328  0.00  0.00     0.004 C 
BRANCH  12  13
HETATM   13  C   UNK N   1      25.072  16.986   3.439  0.00  0.00    -0.000 C 
BRANCH  13  14
HETATM   14  C   UNK N   1      25.659  15.816   2.677  0.00  0.00    -0.005 C 
HETATM   15  C   UNK N   1      27.168  15.838   2.802  0.00  0.00     0.005 C 
ENDBRANCH  13  14
ENDBRANCH  12  13
ENDBRANCH  11  12
ENDBRANCH  10  11
ENDBRANCH   8   9
ENDBRANCH   7   8
ENDBRANCH   5   6
ENDBRANCH   3   4
ENDBRANCH   1   2
BRANCH   1  16
HETATM   16  C   UNK N   1      21.968  16.779   5.795  0.00  0.00     0.135 C 
BRANCH  16  17
HETATM   17  C   UNK N   1      21.310  16.208   4.554  0.00  0.00     0.034 C 
BRANCH  17  18
HETATM   18  C   UNK N   1      20.552  17.251   3.762  0.00  0.00     0.013 C 
BRANCH  18  19
HETATM   19  C   UNK N   1      21.552  18.174   3.083  0.00  0.00     0.110 C 
BRANCH  19  20
HETATM   20  C   UNK N   1      21.466  19.571   3.613  0.00  0.00     0.139 C 
HETATM   21  O   UNK N   1      20.734  19.832   4.555  0.00  0.00    -0.650 OA
BRANCH  20  22
HETATM   22  O   UNK N   1      22.178  20.551   3.027  0.00  0.00    -0.776 OA
HETATM   23  H   UNK N   1      22.151  21.463   3.238  0.00  0.00     0.167 HD
ENDBRANCH  20  22
ENDBRANCH  19  20
ENDBRANCH  18  19
ENDBRANCH  17  18
ENDBRANCH  16  17
BRANCH  16  24
HETATM   24  O   UNK N   1      20.964  17.390   6.550  0.00  0.00    -0.394 OA
HETATM   25  H   UNK N   1      21.076  18.203   7.070  0.00  0.00     0.210 HD
ENDBRANCH  16  24
ENDBRANCH   1  16
BRANCH   1  26
HETATM   26  S   UNK N   1      22.006  14.039   6.157  0.00  0.00    -0.155 SA
BRANCH  26  27
HETATM   27  C   UNK N   1      20.692  14.064   7.409  0.00  0.00     0.108 C 
BRANCH  27  28
HETATM   28  C   UNK N   1      21.269  14.606   8.707  0.00  0.00     0.176 C 
BRANCH  28  29
HETATM   29  C   UNK N   1      21.247  13.578   9.812  0.00  0.00     0.241 C 
HETATM   30  O   UNK N   1      20.178  13.186  10.250  0.00  0.00    -0.271 OA
HETATM   31  N   UNK N   1      22.414  13.074  10.294  0.00  0.00    -0.349 N 
HETATM   32  H   UNK N   1      23.265  13.428   9.946  0.00  0.00     0.163 HD
BRANCH  31  33
HETATM   33  C   UNK N   1      22.448  12.036  11.297  0.00  0.00     0.232 C 
BRANCH  33  34
HETATM   34  C   UNK N   1      23.717  12.110  12.096  0.00  0.00     0.158 C 
HETATM   35  O   UNK N   1      24.791  11.981  11.532  0.00  0.00    -0.649 OA
BRANCH  34  36
HETATM   36  O   UNK N   1      23.683  12.299  13.430  0.00  0.00    -0.775 OA
HETATM   37  H   UNK N   1      24.404  12.049  13.975  0.00  0.00     0.167 HD
ENDBRANCH  34  36
ENDBRANCH  33  34
ENDBRANCH  31  33
ENDBRANCH  28  29
BRANCH  28  38
HETATM   38  N   UNK N   1      20.554  15.811   9.091  0.00  0.00    -0.418 N 
HETATM   39  H   UNK N   1      20.976  16.728   9.247  0.00  0.00     0.150 HD
HETATM   40  H   UNK N   1      19.545  15.736   9.215  0.00  0.00     0.150 HD
ENDBRANCH  28  38
ENDBRANCH  27  28
ENDBRANCH  26  27
ENDBRANCH   1  26
TORSDOF 24
ENDMDL
MODEL 6
REMARK VINA RESULT:      -6.0      2.073      7.775
REMARK  24 active torsions:
REMARK  status: ('A' for Active; 'I' for Inactive)
REMARK    1  A    between atoms: C_2  and  C_3 
REMARK    2  A    between atoms: C_3  and  C_4 
REMARK    3  A    between atoms: C_4  and  C_5 
REMARK    4  A    between atoms: C_5  and  C_6 
REMARK    5  A    between atoms: C_7  and  C_8 
REMARK    6  A    between atoms: C_8  and  C_9 
REMARK    7  A    between atoms: C_10  and  C_11 
REMARK    8  A    between atoms: C_12  and  C_13 
REMARK    9  A    between atoms: C_14  and  C_15 
REMARK   10  A    between atoms: C_15  and  C_16 
REMARK   11  A    between atoms: C_15  and  S_24 
REMARK   12  A    between atoms: C_16  and  C_17 
REMARK   13  A    between atoms: C_16  and  O_23 
REMARK   14  A    between atoms: C_17  and  C_18 
REMARK   15  A    between atoms: C_18  and  C_19 
REMARK   16  A    between atoms: C_19  and  C_20 
REMARK   17  A    between atoms: C_20  and  O_22 
REMARK   18  A    between atoms: S_24  and  C_25 
REMARK   19  A    between atoms: C_25  and  C_26 
REMARK   20  A    between atoms: C_26  and  C_27 
REMARK   21  A    between atoms: C_26  and  N_34 
REMARK       I    between atoms: C_27  and  N_29 
REMARK   22  A    between atoms: N_29  and  C_30 
REMARK   23  A    between atoms: C_30  and  C_31 
REMARK   24  A    between atoms: C_31  and  O_33 
ROOT
HETATM    1  C   UNK N   1      22.620  14.025   6.765  0.00  0.00     0.098 C 
ENDROOT
BRANCH   1   2
HETATM    2  C   UNK N   1      24.080  14.288   6.949  0.00  0.00    -0.009 C 
HETATM    3  C   UNK N   1      24.767  15.282   6.380  0.00  0.00    -0.003 C 
BRANCH   3   4
HETATM    4  C   UNK N   1      26.229  15.351   6.595  0.00  0.00    -0.000 C 
HETATM    5  C   UNK N   1      26.809  16.542   6.785  0.00  0.00    -0.000 C 
BRANCH   5   6
HETATM    6  C   UNK N   1      28.255  16.722   6.936  0.00  0.00    -0.004 C 
HETATM    7  C   UNK N   1      28.831  17.901   6.657  0.00  0.00    -0.023 C 
BRANCH   7   8
HETATM    8  C   UNK N   1      28.028  19.107   6.256  0.00  0.00     0.054 C 
BRANCH   8   9
HETATM    9  C   UNK N   1      28.180  19.403   4.797  0.00  0.00    -0.027 C 
HETATM   10  C   UNK N   1      27.147  19.367   3.945  0.00  0.00    -0.030 C 
BRANCH  10  11
HETATM   11  C   UNK N   1      25.756  19.009   4.370  0.00  0.00     0.027 C 
BRANCH  11  12
HETATM   12  C   UNK N   1      25.284  17.797   3.591  0.00  0.00     0.004 C 
BRANCH  12  13
HETATM   13  C   UNK N   1      26.470  16.927   3.226  0.00  0.00    -0.000 C 
BRANCH  13  14
HETATM   14  C   UNK N   1      26.016  15.793   2.330  0.00  0.00    -0.005 C 
HETATM   15  C   UNK N   1      26.294  14.469   3.011  0.00  0.00     0.005 C 
ENDBRANCH  13  14
ENDBRANCH  12  13
ENDBRANCH  11  12
ENDBRANCH  10  11
ENDBRANCH   8   9
ENDBRANCH   7   8
ENDBRANCH   5   6
ENDBRANCH   3   4
ENDBRANCH   1   2
BRANCH   1  16
HETATM   16  C   UNK N   1      22.209  12.842   7.658  0.00  0.00     0.135 C 
BRANCH  16  17
HETATM   17  C   UNK N   1      23.158  12.684   8.830  0.00  0.00     0.034 C 
BRANCH  17  18
HETATM   18  C   UNK N   1      22.578  13.207  10.127  0.00  0.00     0.013 C 
BRANCH  18  19
HETATM   19  C   UNK N   1      22.220  12.027  11.016  0.00  0.00     0.110 C 
BRANCH  19  20
HETATM   20  C   UNK N   1      23.202  11.856  12.132  0.00  0.00     0.139 C 
HETATM   21  O   UNK N   1      24.390  12.074  11.951  0.00  0.00    -0.650 OA
BRANCH  20  22
HETATM   22  O   UNK N   1      22.776  11.431  13.336  0.00  0.00    -0.776 OA
HETATM   23  H   UNK N   1      21.912  11.140  13.551  0.00  0.00     0.167 HD
ENDBRANCH  20  22
ENDBRANCH  19  20
ENDBRANCH  18  19
ENDBRANCH  17  18
ENDBRANCH  16  17
BRANCH  16  24
HETATM   24  O   UNK N   1      20.932  13.048   8.186  0.00  0.00    -0.394 OA
HETATM   25  H   UNK N   1      20.715  13.045   9.133  0.00  0.00     0.210 HD
ENDBRANCH  16  24
ENDBRANCH   1  16
BRANCH   1  26
HETATM   26  S   UNK N   1      21.653  15.510   7.199  0.00  0.00    -0.155 SA
BRANCH  26  27
HETATM   27  C   UNK N   1      21.283  15.942   5.475  0.00  0.00     0.108 C 
BRANCH  27  28
HETATM   28  C   UNK N   1      21.229  17.457   5.355  0.00  0.00     0.176 C 
BRANCH  28  29
HETATM   29  C   UNK N   1      20.924  17.905   3.947  0.00  0.00     0.241 C 
HETATM   30  O   UNK N   1      20.984  17.100   3.032  0.00  0.00    -0.271 OA
HETATM   31  N   UNK N   1      20.559  19.192   3.707  0.00  0.00    -0.349 N 
HETATM   32  H   UNK N   1      20.547  19.830   4.457  0.00  0.00     0.163 HD
BRANCH  31  33
HETATM   33  C   UNK N   1      20.185  19.655   2.391  0.00  0.00     0.232 C 
BRANCH  33  34
HETATM   34  C   UNK N   1      21.168  20.670   1.885  0.00  0.00     0.158 C 
HETATM   35  O   UNK N   1      21.450  20.694   0.698  0.00  0.00    -0.649 OA
BRANCH  34  36
HETATM   36  O   UNK N   1      21.755  21.543   2.727  0.00  0.00    -0.775 OA
HETATM   37  H   UNK N   1      22.140  21.257   3.532  0.00  0.00     0.167 HD
ENDBRANCH  34  36
ENDBRANCH  33  34
ENDBRANCH  31  33
ENDBRANCH  28  29
BRANCH  28  38
HETATM   38  N   UNK N   1      22.476  18.028   5.835  0.00  0.00    -0.418 N 
HETATM   39  H   UNK N   1      23.404  17.625   5.702  0.00  0.00     0.150 HD
HETATM   40  H   UNK N   1      22.420  18.907   6.349  0.00  0.00     0.150 HD
ENDBRANCH  28  38
ENDBRANCH  27  28
ENDBRANCH  26  27
ENDBRANCH   1  26
TORSDOF 24
ENDMDL
MODEL 7
REMARK VINA RESULT:      -6.0      7.051      9.854
REMARK  24 active torsions:
REMARK  status: ('A' for Active; 'I' for Inactive)
REMARK    1  A    between atoms: C_2  and  C_3 
REMARK    2  A    between atoms: C_3  and  C_4 
REMARK    3  A    between atoms: C_4  and  C_5 
REMARK    4  A    between atoms: C_5  and  C_6 
REMARK    5  A    between atoms: C_7  and  C_8 
REMARK    6  A    between atoms: C_8  and  C_9 
REMARK    7  A    between atoms: C_10  and  C_11 
REMARK    8  A    between atoms: C_12  and  C_13 
REMARK    9  A    between atoms: C_14  and  C_15 
REMARK   10  A    between atoms: C_15  and  C_16 
REMARK   11  A    between atoms: C_15  and  S_24 
REMARK   12  A    between atoms: C_16  and  C_17 
REMARK   13  A    between atoms: C_16  and  O_23 
REMARK   14  A    between atoms: C_17  and  C_18 
REMARK   15  A    between atoms: C_18  and  C_19 
REMARK   16  A    between atoms: C_19  and  C_20 
REMARK   17  A    between atoms: C_20  and  O_22 
REMARK   18  A    between atoms: S_24  and  C_25 
REMARK   19  A    between atoms: C_25  and  C_26 
REMARK   20  A    between atoms: C_26  and  C_27 
REMARK   21  A    between atoms: C_26  and  N_34 
REMARK       I    between atoms: C_27  and  N_29 
REMARK   22  A    between atoms: N_29  and  C_30 
REMARK   23  A    between atoms: C_30  and  C_31 
REMARK   24  A    between atoms: C_31  and  O_33 
ROOT
HETATM    1  C   UNK N   1      31.796  14.040   4.085  0.00  0.00     0.098 C 
ENDROOT
BRANCH   1   2
HETATM    2  C   UNK N   1      30.606  14.530   4.845  0.00  0.00    -0.009 C 
HETATM    3  C   UNK N   1      29.334  14.212   4.586  0.00  0.00    -0.003 C 
BRANCH   3   4
HETATM    4  C   UNK N   1      28.264  14.854   5.380  0.00  0.00    -0.000 C 
HETATM    5  C   UNK N   1      27.061  15.045   4.826  0.00  0.00    -0.000 C 
BRANCH   5   6
HETATM    6  C   UNK N   1      25.959  15.732   5.504  0.00  0.00    -0.004 C 
HETATM    7  C   UNK N   1      25.466  16.881   5.017  0.00  0.00    -0.023 C 
BRANCH   7   8
HETATM    8  C   UNK N   1      25.956  17.477   3.727  0.00  0.00     0.054 C 
BRANCH   8   9
HETATM    9  C   UNK N   1      25.400  18.850   3.516  0.00  0.00    -0.027 C 
HETATM   10  C   UNK N   1      26.120  19.959   3.733  0.00  0.00    -0.030 C 
BRANCH  10  11
HETATM   11  C   UNK N   1      27.534  19.925   4.225  0.00  0.00     0.027 C 
BRANCH  11  12
HETATM   12  C   UNK N   1      27.602  20.523   5.616  0.00  0.00     0.004 C 
BRANCH  12  13
HETATM   13  C   UNK N   1      27.749  19.419   6.643  0.00  0.00    -0.000 C 
BRANCH  13  14
HETATM   14  C   UNK N   1      28.696  18.358   6.122  0.00  0.00    -0.005 C 
HETATM   15  C   UNK N   1      29.388  17.683   7.288  0.00  0.00     0.005 C 
ENDBRANCH  13  14
ENDBRANCH  12  13
ENDBRANCH  11  12
ENDBRANCH  10  11
ENDBRANCH   8   9
ENDBRANCH   7   8
ENDBRANCH   5   6
ENDBRANCH   3   4
ENDBRANCH   1   2
BRANCH   1  16
HETATM   16  C   UNK N   1      32.361  15.197   3.244  0.00  0.00     0.135 C 
BRANCH  16  17
HETATM   17  C   UNK N   1      31.786  16.529   3.685  0.00  0.00     0.034 C 
BRANCH  17  18
HETATM   18  C   UNK N   1      32.845  17.480   4.201  0.00  0.00     0.013 C 
BRANCH  18  19
HETATM   19  C   UNK N   1      32.795  17.493   5.721  0.00  0.00     0.110 C 
BRANCH  19  20
HETATM   20  C   UNK N   1      34.154  17.314   6.322  0.00  0.00     0.139 C 
HETATM   21  O   UNK N   1      34.856  16.370   5.997  0.00  0.00    -0.650 OA
BRANCH  20  22
HETATM   22  O   UNK N   1      34.592  18.186   7.249  0.00  0.00    -0.776 OA
HETATM   23  H   UNK N   1      35.323  18.766   7.168  0.00  0.00     0.167 HD
ENDBRANCH  20  22
ENDBRANCH  19  20
ENDBRANCH  18  19
ENDBRANCH  17  18
ENDBRANCH  16  17
BRANCH  16  24
HETATM   24  O   UNK N   1      33.748  15.278   3.392  0.00  0.00    -0.394 OA
HETATM   25  H   UNK N   1      34.378  14.592   3.115  0.00  0.00     0.210 HD
ENDBRANCH  16  24
ENDBRANCH   1  16
BRANCH   1  26
HETATM   26  S   UNK N   1      33.066  13.416   5.236  0.00  0.00    -0.155 SA
BRANCH  26  27
HETATM   27  C   UNK N   1      32.274  14.122   6.709  0.00  0.00     0.108 C 
BRANCH  27  28
HETATM   28  C   UNK N   1      33.008  13.617   7.942  0.00  0.00     0.176 C 
BRANCH  28  29
HETATM   29  C   UNK N   1      33.231  14.712   8.958  0.00  0.00     0.241 C 
HETATM   30  O   UNK N   1      32.489  15.681   8.971  0.00  0.00    -0.271 OA
HETATM   31  N   UNK N   1      34.235  14.601   9.866  0.00  0.00    -0.349 N 
HETATM   32  H   UNK N   1      34.839  13.824   9.816  0.00  0.00     0.163 HD
BRANCH  31  33
HETATM   33  C   UNK N   1      34.446  15.583  10.905  0.00  0.00     0.232 C 
BRANCH  33  34
HETATM   34  C   UNK N   1      35.566  16.512  10.539  0.00  0.00     0.158 C 
HETATM   35  O   UNK N   1      36.714  16.210  10.820  0.00  0.00    -0.649 OA
BRANCH  34  36
HETATM   36  O   UNK N   1      35.318  17.683   9.920  0.00  0.00    -0.775 OA
HETATM   37  H   UNK N   1      34.441  17.964   9.744  0.00  0.00     0.167 HD
ENDBRANCH  34  36
ENDBRANCH  33  34
ENDBRANCH  31  33
ENDBRANCH  28  29
BRANCH  28  38
HETATM   38  N   UNK N   1      34.261  13.000   7.544  0.00  0.00    -0.418 N 
HETATM   39  H   UNK N   1      35.049  12.804   8.162  0.00  0.00     0.150 HD
HETATM   40  H   UNK N   1      34.362  12.740   6.563  0.00  0.00     0.150 HD
ENDBRANCH  28  38
ENDBRANCH  27  28
ENDBRANCH  26  27
ENDBRANCH   1  26
TORSDOF 24
ENDMDL
MODEL 8
REMARK VINA RESULT:      -5.9      1.678      2.856
REMARK  24 active torsions:
REMARK  status: ('A' for Active; 'I' for Inactive)
REMARK    1  A    between atoms: C_2  and  C_3 
REMARK    2  A    between atoms: C_3  and  C_4 
REMARK    3  A    between atoms: C_4  and  C_5 
REMARK    4  A    between atoms: C_5  and  C_6 
REMARK    5  A    between atoms: C_7  and  C_8 
REMARK    6  A    between atoms: C_8  and  C_9 
REMARK    7  A    between atoms: C_10  and  C_11 
REMARK    8  A    between atoms: C_12  and  C_13 
REMARK    9  A    between atoms: C_14  and  C_15 
REMARK   10  A    between atoms: C_15  and  C_16 
REMARK   11  A    between atoms: C_15  and  S_24 
REMARK   12  A    between atoms: C_16  and  C_17 
REMARK   13  A    between atoms: C_16  and  O_23 
REMARK   14  A    between atoms: C_17  and  C_18 
REMARK   15  A    between atoms: C_18  and  C_19 
REMARK   16  A    between atoms: C_19  and  C_20 
REMARK   17  A    between atoms: C_20  and  O_22 
REMARK   18  A    between atoms: S_24  and  C_25 
REMARK   19  A    between atoms: C_25  and  C_26 
REMARK   20  A    between atoms: C_26  and  C_27 
REMARK   21  A    between atoms: C_26  and  N_34 
REMARK       I    between atoms: C_27  and  N_29 
REMARK   22  A    between atoms: N_29  and  C_30 
REMARK   23  A    between atoms: C_30  and  C_31 
REMARK   24  A    between atoms: C_31  and  O_33 
ROOT
HETATM    1  C   UNK N   1      21.319  17.068   4.843  0.00  0.00     0.098 C 
ENDROOT
BRANCH   1   2
HETATM    2  C   UNK N   1      22.600  17.550   4.242  0.00  0.00    -0.009 C 
HETATM    3  C   UNK N   1      23.146  18.753   4.440  0.00  0.00    -0.003 C 
BRANCH   3   4
HETATM    4  C   UNK N   1      24.377  19.107   3.700  0.00  0.00    -0.000 C 
HETATM    5  C   UNK N   1      25.292  19.888   4.284  0.00  0.00    -0.000 C 
BRANCH   5   6
HETATM    6  C   UNK N   1      26.508  20.352   3.611  0.00  0.00    -0.004 C 
HETATM    7  C   UNK N   1      27.711  19.875   3.965  0.00  0.00    -0.023 C 
BRANCH   7   8
HETATM    8  C   UNK N   1      27.870  18.799   5.002  0.00  0.00     0.054 C 
BRANCH   8   9
HETATM    9  C   UNK N   1      28.103  17.462   4.369  0.00  0.00    -0.027 C 
HETATM   10  C   UNK N   1      29.234  16.768   4.550  0.00  0.00    -0.030 C 
BRANCH  10  11
HETATM   11  C   UNK N   1      30.372  17.273   5.382  0.00  0.00     0.027 C 
BRANCH  11  12
HETATM   12  C   UNK N   1      30.401  16.533   6.705  0.00  0.00     0.004 C 
BRANCH  12  13
HETATM   13  C   UNK N   1      30.692  17.505   7.831  0.00  0.00    -0.000 C 
BRANCH  13  14
HETATM   14  C   UNK N   1      29.392  18.060   8.375  0.00  0.00    -0.005 C 
HETATM   15  C   UNK N   1      29.620  18.598   9.772  0.00  0.00     0.005 C 
ENDBRANCH  13  14
ENDBRANCH  12  13
ENDBRANCH  11  12
ENDBRANCH  10  11
ENDBRANCH   8   9
ENDBRANCH   7   8
ENDBRANCH   5   6
ENDBRANCH   3   4
ENDBRANCH   1   2
BRANCH   1  16
HETATM   16  C   UNK N   1      20.161  17.418   3.893  0.00  0.00     0.135 C 
BRANCH  16  17
HETATM   17  C   UNK N   1      20.514  17.098   2.454  0.00  0.00     0.034 C 
BRANCH  17  18
HETATM   18  C   UNK N   1      20.247  18.255   1.515  0.00  0.00     0.013 C 
BRANCH  18  19
HETATM   19  C   UNK N   1      20.160  19.537   2.329  0.00  0.00     0.110 C 
BRANCH  19  20
HETATM   20  C   UNK N   1      21.066  20.599   1.789  0.00  0.00     0.139 C 
HETATM   21  O   UNK N   1      21.334  20.639   0.599  0.00  0.00    -0.650 OA
BRANCH  20  22
HETATM   22  O   UNK N   1      21.613  21.498   2.629  0.00  0.00    -0.776 OA
HETATM   23  H   UNK N   1      22.514  21.750   2.666  0.00  0.00     0.167 HD
ENDBRANCH  20  22
ENDBRANCH  19  20
ENDBRANCH  18  19
ENDBRANCH  17  18
ENDBRANCH  16  17
BRANCH  16  24
HETATM   24  O   UNK N   1      19.023  16.674   4.213  0.00  0.00    -0.394 OA
HETATM   25  H   UNK N   1      18.219  16.625   3.670  0.00  0.00     0.210 HD
ENDBRANCH  16  24
ENDBRANCH   1  16
BRANCH   1  26
HETATM   26  S   UNK N   1      21.389  15.266   5.116  0.00  0.00    -0.155 SA
BRANCH  26  27
HETATM   27  C   UNK N   1      22.122  15.407   6.771  0.00  0.00     0.108 C 
BRANCH  27  28
HETATM   28  C   UNK N   1      21.005  15.358   7.802  0.00  0.00     0.176 C 
BRANCH  28  29
HETATM   29  C   UNK N   1      20.943  14.026   8.509  0.00  0.00     0.241 C 
HETATM   30  O   UNK N   1      20.669  13.020   7.874  0.00  0.00    -0.271 OA
HETATM   31  N   UNK N   1      21.218  13.947   9.837  0.00  0.00    -0.349 N 
HETATM   32  H   UNK N   1      21.406  14.777  10.333  0.00  0.00     0.163 HD
BRANCH  31  33
HETATM   33  C   UNK N   1      21.244  12.689  10.546  0.00  0.00     0.232 C 
BRANCH  33  34
HETATM   34  C   UNK N   1      22.652  12.189  10.690  0.00  0.00     0.158 C 
HETATM   35  O   UNK N   1      23.139  11.502   9.807  0.00  0.00    -0.649 OA
BRANCH  34  36
HETATM   36  O   UNK N   1      23.377  12.474  11.789  0.00  0.00    -0.775 OA
HETATM   37  H   UNK N   1      23.985  11.855  12.144  0.00  0.00     0.167 HD
ENDBRANCH  34  36
ENDBRANCH  33  34
ENDBRANCH  31  33
ENDBRANCH  28  29
BRANCH  28  38
HETATM   38  N   UNK N   1      19.740  15.679   7.164  0.00  0.00    -0.418 N 
HETATM   39  H   UNK N   1      18.936  15.057   7.093  0.00  0.00     0.150 HD
HETATM   40  H   UNK N   1      19.649  16.608   6.752  0.00  0.00     0.150 HD
ENDBRANCH  28  38
ENDBRANCH  27  28
ENDBRANCH  26  27
ENDBRANCH   1  26
TORSDOF 24
ENDMDL
MODEL 9
REMARK VINA RESULT:      -5.9      1.731      2.808
REMARK  24 active torsions:
REMARK  status: ('A' for Active; 'I' for Inactive)
REMARK    1  A    between atoms: C_2  and  C_3 
REMARK    2  A    between atoms: C_3  and  C_4 
REMARK    3  A    between atoms: C_4  and  C_5 
REMARK    4  A    between atoms: C_5  and  C_6 
REMARK    5  A    between atoms: C_7  and  C_8 
REMARK    6  A    between atoms: C_8  and  C_9 
REMARK    7  A    between atoms: C_10  and  C_11 
REMARK    8  A    between atoms: C_12  and  C_13 
REMARK    9  A    between atoms: C_14  and  C_15 
REMARK   10  A    between atoms: C_15  and  C_16 
REMARK   11  A    between atoms: C_15  and  S_24 
REMARK   12  A    between atoms: C_16  and  C_17 
REMARK   13  A    between atoms: C_16  and  O_23 
REMARK   14  A    between atoms: C_17  and  C_18 
REMARK   15  A    between atoms: C_18  and  C_19 
REMARK   16  A    between atoms: C_19  and  C_20 
REMARK   17  A    between atoms: C_20  and  O_22 
REMARK   18  A    between atoms: S_24  and  C_25 
REMARK   19  A    between atoms: C_25  and  C_26 
REMARK   20  A    between atoms: C_26  and  C_27 
REMARK   21  A    between atoms: C_26  and  N_34 
REMARK       I    between atoms: C_27  and  N_29 
REMARK   22  A    between atoms: N_29  and  C_30 
REMARK   23  A    between atoms: C_30  and  C_31 
REMARK   24  A    between atoms: C_31  and  O_33 
ROOT
HETATM    1  C   UNK N   1      21.134  16.539   5.138  0.00  0.00     0.098 C 
ENDROOT
BRANCH   1   2
HETATM    2  C   UNK N   1      22.563  16.872   4.855  0.00  0.00    -0.009 C 
HETATM    3  C   UNK N   1      23.619  16.369   5.501  0.00  0.00    -0.003 C 
BRANCH   3   4
HETATM    4  C   UNK N   1      24.969  16.870   5.158  0.00  0.00    -0.000 C 
HETATM    5  C   UNK N   1      25.147  17.543   4.016  0.00  0.00    -0.000 C 
BRANCH   5   6
HETATM    6  C   UNK N   1      26.455  18.017   3.553  0.00  0.00    -0.004 C 
HETATM    7  C   UNK N   1      26.853  19.274   3.799  0.00  0.00    -0.023 C 
BRANCH   7   8
HETATM    8  C   UNK N   1      26.028  20.228   4.618  0.00  0.00     0.054 C 
BRANCH   8   9
HETATM    9  C   UNK N   1      26.881  21.285   5.247  0.00  0.00    -0.027 C 
HETATM   10  C   UNK N   1      27.414  21.146   6.467  0.00  0.00    -0.030 C 
BRANCH  10  11
HETATM   11  C   UNK N   1      27.191  19.934   7.318  0.00  0.00     0.027 C 
BRANCH  11  12
HETATM   12  C   UNK N   1      28.419  19.047   7.270  0.00  0.00     0.004 C 
BRANCH  12  13
HETATM   13  C   UNK N   1      28.063  17.651   7.743  0.00  0.00    -0.000 C 
BRANCH  13  14
HETATM   14  C   UNK N   1      28.163  17.582   9.252  0.00  0.00    -0.005 C 
HETATM   15  C   UNK N   1      29.441  18.255   9.706  0.00  0.00     0.005 C 
ENDBRANCH  13  14
ENDBRANCH  12  13
ENDBRANCH  11  12
ENDBRANCH  10  11
ENDBRANCH   8   9
ENDBRANCH   7   8
ENDBRANCH   5   6
ENDBRANCH   3   4
ENDBRANCH   1   2
BRANCH   1  16
HETATM   16  C   UNK N   1      20.242  17.255   4.109  0.00  0.00     0.135 C 
BRANCH  16  17
HETATM   17  C   UNK N   1      20.756  17.049   2.698  0.00  0.00     0.034 C 
BRANCH  17  18
HETATM   18  C   UNK N   1      20.428  18.207   1.781  0.00  0.00     0.013 C 
BRANCH  18  19
HETATM   19  C   UNK N   1      20.406  19.489   2.598  0.00  0.00     0.110 C 
BRANCH  19  20
HETATM   20  C   UNK N   1      21.103  20.609   1.890  0.00  0.00     0.139 C 
HETATM   21  O   UNK N   1      21.317  20.546   0.690  0.00  0.00    -0.650 OA
BRANCH  20  22
HETATM   22  O   UNK N   1      21.521  21.681   2.589  0.00  0.00    -0.776 OA
HETATM   23  H   UNK N   1      21.714  22.530   2.246  0.00  0.00     0.167 HD
ENDBRANCH  20  22
ENDBRANCH  19  20
ENDBRANCH  18  19
ENDBRANCH  17  18
ENDBRANCH  16  17
BRANCH  16  24
HETATM   24  O   UNK N   1      18.941  16.748   4.152  0.00  0.00    -0.394 OA
HETATM   25  H   UNK N   1      18.416  16.630   4.960  0.00  0.00     0.210 HD
ENDBRANCH  16  24
ENDBRANCH   1  16
BRANCH   1  26
HETATM   26  S   UNK N   1      20.877  14.736   5.050  0.00  0.00    -0.155 SA
BRANCH  26  27
HETATM   27  C   UNK N   1      20.095  14.628   6.685  0.00  0.00     0.108 C 
BRANCH  27  28
HETATM   28  C   UNK N   1      21.177  14.737   7.748  0.00  0.00     0.176 C 
BRANCH  28  29
HETATM   29  C   UNK N   1      21.446  13.414   8.422  0.00  0.00     0.241 C 
HETATM   30  O   UNK N   1      21.022  12.385   7.921  0.00  0.00    -0.271 OA
HETATM   31  N   UNK N   1      22.180  13.371   9.565  0.00  0.00    -0.349 N 
HETATM   32  H   UNK N   1      22.485  14.217   9.967  0.00  0.00     0.163 HD
BRANCH  31  33
HETATM   33  C   UNK N   1      22.529  12.127  10.210  0.00  0.00     0.232 C 
BRANCH  33  34
HETATM   34  C   UNK N   1      21.796  11.978  11.512  0.00  0.00     0.158 C 
HETATM   35  O   UNK N   1      20.598  12.202  11.556  0.00  0.00    -0.649 OA
BRANCH  34  36
HETATM   36  O   UNK N   1      22.449  11.618  12.635  0.00  0.00    -0.775 OA
HETATM   37  H   UNK N   1      22.087  10.988  13.227  0.00  0.00     0.167 HD
ENDBRANCH  34  36
ENDBRANCH  33  34
ENDBRANCH  31  33
ENDBRANCH  28  29
BRANCH  28  38
HETATM   38  N   UNK N   1      20.809  15.759   8.713  0.00  0.00    -0.418 N 
HETATM   39  H   UNK N   1      21.461  16.320   9.262  0.00  0.00     0.150 HD
HETATM   40  H   UNK N   1      19.813  15.930   8.855  0.00  0.00     0.150 HD
ENDBRANCH  28  38
ENDBRANCH  27  28
ENDBRANCH  26  27
ENDBRANCH   1  26
TORSDOF 24
ENDMDL
