REMARK  9 active torsions:
REMARK  status: ('A' for Active; 'I' for Inactive)
REMARK       I    between atoms: C_2  and  N_4 
REMARK    1  A    between atoms: N_4  and  C_5 
REMARK    2  A    between atoms: C_5  and  C_6 
REMARK    3  A    between atoms: C_6  and  O_7 
REMARK    4  A    between atoms: O_7  and  C_8 
REMARK    5  A    between atoms: C_8  and  C_10 
REMARK    6  A    between atoms: C_10  and  C_11 
REMARK    7  A    between atoms: C_10  and  O_18 
REMARK    8  A    between atoms: O_18  and  C_19 
REMARK    9  A    between atoms: C_23  and  C_25 
ROOT
HETATM    1  C   UNK N   1       1.545  -5.159   0.531  0.00  0.00     0.261 C 
ENDROOT
BRANCH   1   2
HETATM    2  C   UNK N   1       1.017  -6.100  -0.550  0.00  0.00     0.293 C 
HETATM    3  O   UNK N   1       1.756  -6.953  -1.010  0.00  0.00    -0.262 OA
BRANCH   2   4
HETATM    4  O   UNK N   1      -0.283  -6.078  -0.953  0.00  0.00    -0.318 OA
BRANCH   4   5
HETATM    5  C   UNK N   1      -1.165  -5.086  -0.603  0.00  0.00     0.198 C 
BRANCH   5   6
HETATM    6  C   UNK N   1      -2.284  -5.614   0.262  0.00  0.00     0.149 C 
BRANCH   6   7
HETATM    7  N   UNK N   1      -3.060  -4.492   0.730  0.00  0.00    -0.359 N 
HETATM    8  C   UNK N   1      -4.151  -4.038   0.069  0.00  0.00     0.213 C 
HETATM    9  C   UNK N   1      -4.630  -4.698  -1.186  0.00  0.00     0.117 C 
HETATM   10  O   UNK N   1      -4.753  -3.068   0.498  0.00  0.00    -0.274 OA
HETATM   11  H   UNK N   1      -2.786  -4.040   1.561  0.00  0.00     0.162 HD
ENDBRANCH   6   7
ENDBRANCH   5   6
ENDBRANCH   4   5
ENDBRANCH   2   4
ENDBRANCH   1   2
BRANCH   1  12
HETATM   12  C   UNK N   1       1.376  -3.668   0.322  0.00  0.00    -0.019 A 
HETATM   13  C   UNK N   1       1.013  -3.130  -0.926  0.00  0.00     0.012 A 
HETATM   14  C   UNK N   1       0.943  -1.747  -1.104  0.00  0.00     0.024 A 
HETATM   15  C   UNK N   1       1.244  -0.890  -0.043  0.00  0.00     0.034 A 
HETATM   16  C   UNK N   1       1.606  -1.416   1.200  0.00  0.00     0.024 A 
HETATM   17 Cl   UNK N   1       1.183   0.843  -0.274  0.00  0.00    -0.084 Cl
HETATM   18  C   UNK N   1       1.674  -2.800   1.380  0.00  0.00     0.012 A 
ENDBRANCH   1  12
BRANCH   1  19
HETATM   19  O   UNK N   1       2.858  -5.487   0.875  0.00  0.00    -0.331 OA
BRANCH  19  20
HETATM   20  C   UNK N   1       3.999  -5.063   0.254  0.00  0.00     0.071 A 
HETATM   21  C   UNK N   1       3.990  -4.040  -0.711  0.00  0.00     0.037 A 
HETATM   22  C   UNK N   1       5.174  -3.591  -1.291  0.00  0.00     0.004 A 
HETATM   23  C   UNK N   1       6.387  -4.173  -0.930  0.00  0.00     0.016 A 
HETATM   24  C   UNK N   1       6.418  -5.212   0.008  0.00  0.00     0.050 A 
HETATM   25  C   UNK N   1       5.222  -5.647   0.605  0.00  0.00     0.052 A 
BRANCH  24  26
HETATM   26  C   UNK N   1       7.730  -5.851   0.351  0.00  0.00     0.417 C 
HETATM   27  F   UNK N   1       8.309  -6.349  -0.802  0.00  0.00    -0.166 F 
HETATM   28  F   UNK N   1       7.560  -6.890   1.249  0.00  0.00    -0.166 F 
HETATM   29  F   UNK N   1       8.572  -4.907   0.910  0.00  0.00    -0.166 F 
ENDBRANCH  24  26
ENDBRANCH  19  20
ENDBRANCH   1  19
TORSDOF 9
