REMARK  5 active torsions:
REMARK  status: ('A' for Active; 'I' for Inactive)
REMARK    1  A    between atoms: C_2  and  C_5 
REMARK    2  A    between atoms: C_5  and  N_6 
REMARK    3  A    between atoms: C_11  and  C_14 
REMARK    4  A    between atoms: C_15  and  C_24 
REMARK    5  A    between atoms: C_17  and  C_20 
REMARK       I    between atoms: C_33  and  N_34 
ROOT
HETATM    1  N   UNK N   1      -1.445  -1.422  -0.543  0.00  0.00    -0.166 N 
HETATM    2  C   UNK N   1      -0.220  -0.936  -0.346  0.00  0.00     0.151 A 
HETATM    3  C   UNK N   1      -0.266   0.418  -0.304  0.00  0.00     0.094 A 
HETATM    4  C   UNK N   1       0.881   1.168  -0.141  0.00  0.00     0.036 A 
HETATM    5  C   UNK N   1       2.084   0.454  -0.016  0.00  0.00     0.034 A 
HETATM    6  C   UNK N   1       2.102  -0.965  -0.028  0.00  0.00     0.063 A 
HETATM    7  N   UNK N   1       0.928  -1.643  -0.209  0.00  0.00    -0.338 N 
ATOM      8  HN  UNK N   1       0.917  -2.662  -0.240  1.00  0.00     0.167 HD
HETATM    9  N   UNK N   1      -1.536   0.837  -0.463  0.00  0.00    -0.188 N 
ATOM     10  HN  UNK N   1      -1.888   1.794  -0.473  1.00  0.00     0.184 HD
HETATM   11  C   UNK N   1      -2.236  -0.319  -0.607  0.00  0.00     0.680 A 
HETATM   12  N   UNK N   1      -3.628  -0.354  -0.821  0.00  0.00    -0.234 N 
HETATM   13  H   UNK N   1      -4.136   0.476  -0.970  0.00  0.00     0.174 HD
HETATM   14  H   UNK N   1      -4.099  -1.219  -0.821  0.00  0.00     0.174 HD
ENDROOT
BRANCH   6  15
HETATM   15  C   UNK N   1       3.364  -1.744   0.078  0.00  0.00     0.088 A 
HETATM   16  C   UNK N   1       4.688  -1.308   0.141  0.00  0.00     0.073 A 
HETATM   17  N   UNK N   1       5.498  -2.384   0.079  0.00  0.00    -0.343 N 
HETATM   18  C   UNK N   1       4.665  -3.449   0.021  0.00  0.00     0.090 A 
HETATM   19  H   UNK N   1       6.483  -2.393   0.076  0.00  0.00     0.167 HD
HETATM   20  N   UNK N   1       3.364  -3.088   0.009  0.00  0.00    -0.342 N 
ATOM     21  HN  UNK N   1       2.553  -3.704  -0.042  1.00  0.00     0.167 HD
BRANCH  16  22
HETATM   22  C   UNK N   1       5.190   0.082   0.205  0.00  0.00    -0.007 A 
HETATM   23  C   UNK N   1       4.542   1.042   0.992  0.00  0.00     0.017 A 
HETATM   24  C   UNK N   1       4.937   2.377   0.967  0.00  0.00     0.043 A 
HETATM   25  C   UNK N   1       5.992   2.769   0.148  0.00  0.00     0.116 A 
HETATM   26  C   UNK N   1       6.685   1.813  -0.605  0.00  0.00     0.043 A 
HETATM   27  F   UNK N   1       6.339   4.076   0.081  0.00  0.00    -0.206 F 
HETATM   28  C   UNK N   1       6.295   0.468  -0.566  0.00  0.00     0.017 A 
ENDBRANCH  16  22
BRANCH  18  29
HETATM   29  C   UNK N   1       5.133  -4.881  -0.019  0.00  0.00     0.007 C 
HETATM   30  C   UNK N   1       5.933  -5.193   1.232  0.00  0.00     0.022 C 
HETATM   31  C   UNK N   1       3.961  -5.848  -0.087  0.00  0.00     0.022 C 
HETATM   32  C   UNK N   1       6.010  -5.105  -1.235  0.00  0.00     0.022 C 
ENDBRANCH  18  29
ENDBRANCH   6  15
BRANCH   1  33
HETATM   33  C   UNK N   1      -1.766  -2.840  -0.680  0.00  0.00     0.157 C 
BRANCH  33  34
HETATM   34  C   UNK N   1      -2.632  -3.399   0.446  0.00  0.00    -0.034 C 
HETATM   35  C   UNK N   1      -4.097  -3.157   0.152  0.00  0.00     0.016 C 
HETATM   36  C   UNK N   1      -2.397  -4.892   0.507  0.00  0.00     0.016 C 
HETATM   37  C   UNK N   1      -2.270  -2.803   1.797  0.00  0.00     0.016 C 
ENDBRANCH  33  34
ENDBRANCH   1  33
TORSDOF 5
