MODEL 1
REMARK VINA RESULT:      -6.4      0.000      0.000
REMARK  5 active torsions:
REMARK  status: ('A' for Active; 'I' for Inactive)
REMARK    1  A    between atoms: C_3  and  C_19 
REMARK    2  A    between atoms: C_7  and  C_11 
REMARK    3  A    between atoms: C_12  and  C_11 
REMARK    4  A    between atoms: C_11  and  O_18 
REMARK    5  A    between atoms: C_19  and  C_20 
ROOT
HETATM    1  C   UNK N   1      33.365  14.417   7.107  0.00  0.00     0.051 C 
HETATM    2  C   UNK N   1      33.136  15.862   7.540  0.00  0.00     0.116 A 
HETATM    3  C   UNK N   1      34.042  16.892   6.827  0.00  0.00     0.117 C 
HETATM    4  C   UNK N   1      34.333  17.861   7.924  0.00  0.00     0.226 C 
HETATM    5  O   UNK N   1      34.978  18.883   7.770  0.00  0.00    -0.273 OA
HETATM    6  N   UNK N   1      33.905  17.476   9.132  0.00  0.00    -0.338 N 
HETATM    7  C   UNK N   1      33.236  16.209   9.100  0.00  0.00     0.180 A 
HETATM    8  C   UNK N   1      31.786  16.373   8.883  0.00  0.00     0.294 A 
HETATM    9  O   UNK N   1      30.853  16.175   9.645  0.00  0.00    -0.262 OA
HETATM   10  O   UNK N   1      31.777  16.141   7.588  0.00  0.00    -0.304 OA
HETATM   11  H   UNK N   1      34.035  18.003   9.951  0.00  0.00     0.164 HD
ENDROOT
BRANCH   7  12
HETATM   12  C   UNK N   1      33.834  15.088   9.982  0.00  0.00     0.167 C 
BRANCH  12  13
HETATM   13  C   UNK N   1      35.320  15.186  10.357  0.00  0.00     0.040 C 
HETATM   14  C   UNK N   1      35.582  14.945  11.855  0.00  0.00     0.011 C 
HETATM   15  C   UNK N   1      36.125  13.548  12.140  0.00  0.00     0.004 C 
HETATM   16  C   UNK N   1      37.399  13.319  11.335  0.00  0.00     0.027 C 
HETATM   17  C   UNK N   1      37.186  13.591   9.870  0.00  0.00    -0.030 C 
HETATM   18  C   UNK N   1      36.249  14.445   9.425  0.00  0.00    -0.023 C 
ENDBRANCH  12  13
BRANCH  12  19
HETATM   19  O   UNK N   1      33.049  14.859  11.114  0.00  0.00    -0.392 OA
HETATM   20  H   UNK N   1      32.660  13.984  11.266  0.00  0.00     0.210 HD
ENDBRANCH  12  19
ENDBRANCH   7  12
BRANCH   3  21
HETATM   21  C   UNK N   1      33.420  17.504   5.579  0.00  0.00     0.032 C 
BRANCH  21  22
HETATM   22  C   UNK N   1      33.553  16.516   4.430  0.00  0.00     0.115 C 
HETATM   23 Cl   UNK N   1      32.611  17.061   3.027  0.00  0.00    -0.130 Cl
ENDBRANCH  21  22
ENDBRANCH   3  21
TORSDOF 5
ENDMDL
MODEL 2
REMARK VINA RESULT:      -6.3      3.033      5.907
REMARK  5 active torsions:
REMARK  status: ('A' for Active; 'I' for Inactive)
REMARK    1  A    between atoms: C_3  and  C_19 
REMARK    2  A    between atoms: C_7  and  C_11 
REMARK    3  A    between atoms: C_12  and  C_11 
REMARK    4  A    between atoms: C_11  and  O_18 
REMARK    5  A    between atoms: C_19  and  C_20 
ROOT
HETATM    1  C   UNK N   1      32.500  14.974   9.460  0.00  0.00     0.051 C 
HETATM    2  C   UNK N   1      33.484  15.736   8.578  0.00  0.00     0.116 A 
HETATM    3  C   UNK N   1      34.226  16.886   9.297  0.00  0.00     0.117 C 
HETATM    4  C   UNK N   1      34.301  17.924   8.226  0.00  0.00     0.226 C 
HETATM    5  O   UNK N   1      34.874  18.991   8.357  0.00  0.00    -0.273 OA
HETATM    6  N   UNK N   1      33.601  17.633   7.123  0.00  0.00    -0.338 N 
HETATM    7  C   UNK N   1      32.942  16.363   7.208  0.00  0.00     0.180 A 
HETATM    8  C   UNK N   1      33.796  15.280   6.685  0.00  0.00     0.294 A 
HETATM    9  O   UNK N   1      33.674  14.605   5.674  0.00  0.00    -0.262 OA
HETATM   10  O   UNK N   1      34.257  14.850   7.839  0.00  0.00    -0.304 OA
HETATM   11  H   UNK N   1      33.546  18.225   6.340  0.00  0.00     0.164 HD
ENDROOT
BRANCH   7  12
HETATM   12  C   UNK N   1      31.404  16.372   7.056  0.00  0.00     0.167 C 
BRANCH  12  13
HETATM   13  C   UNK N   1      30.657  17.676   7.372  0.00  0.00     0.040 C 
HETATM   14  C   UNK N   1      29.262  17.745   6.726  0.00  0.00     0.011 C 
HETATM   15  C   UNK N   1      28.139  17.460   7.717  0.00  0.00     0.004 C 
HETATM   16  C   UNK N   1      28.230  18.429   8.889  0.00  0.00     0.027 C 
HETATM   17  C   UNK N   1      29.599  18.418   9.515  0.00  0.00    -0.030 C 
HETATM   18  C   UNK N   1      30.702  18.085   8.826  0.00  0.00    -0.023 C 
ENDBRANCH  12  13
BRANCH  12  19
HETATM   19  O   UNK N   1      31.013  15.863   5.815  0.00  0.00    -0.392 OA
HETATM   20  H   UNK N   1      31.633  15.871   5.069  0.00  0.00     0.210 HD
ENDBRANCH  12  19
ENDBRANCH   7  12
BRANCH   3  21
HETATM   21  C   UNK N   1      35.568  16.481   9.891  0.00  0.00     0.032 C 
BRANCH  21  22
HETATM   22  C   UNK N   1      35.400  16.285  11.390  0.00  0.00     0.115 C 
HETATM   23 Cl   UNK N   1      35.246  14.560  11.781  0.00  0.00    -0.130 Cl
ENDBRANCH  21  22
ENDBRANCH   3  21
TORSDOF 5
ENDMDL
MODEL 3
REMARK VINA RESULT:      -6.1     12.054     13.283
REMARK  5 active torsions:
REMARK  status: ('A' for Active; 'I' for Inactive)
REMARK    1  A    between atoms: C_3  and  C_19 
REMARK    2  A    between atoms: C_7  and  C_11 
REMARK    3  A    between atoms: C_12  and  C_11 
REMARK    4  A    between atoms: C_11  and  O_18 
REMARK    5  A    between atoms: C_19  and  C_20 
ROOT
HETATM    1  C   UNK N   1      22.174  15.479   4.382  0.00  0.00     0.051 C 
HETATM    2  C   UNK N   1      21.079  16.296   5.060  0.00  0.00     0.116 A 
HETATM    3  C   UNK N   1      21.524  17.705   5.514  0.00  0.00     0.117 C 
HETATM    4  C   UNK N   1      20.788  17.861   6.803  0.00  0.00     0.226 C 
HETATM    5  O   UNK N   1      20.810  18.877   7.475  0.00  0.00    -0.273 OA
HETATM    6  N   UNK N   1      20.165  16.755   7.224  0.00  0.00    -0.338 N 
HETATM    7  C   UNK N   1      20.328  15.654   6.321  0.00  0.00     0.180 A 
HETATM    8  C   UNK N   1      19.246  15.617   5.319  0.00  0.00     0.294 A 
HETATM    9  O   UNK N   1      18.332  14.819   5.183  0.00  0.00    -0.262 OA
HETATM   10  O   UNK N   1      19.895  16.208   4.340  0.00  0.00    -0.304 OA
HETATM   11  H   UNK N   1      19.651  16.702   8.061  0.00  0.00     0.164 HD
ENDROOT
BRANCH   7  12
HETATM   12  C   UNK N   1      20.988  14.380   6.896  0.00  0.00     0.167 C 
BRANCH  12  13
HETATM   13  C   UNK N   1      21.760  14.504   8.217  0.00  0.00     0.040 C 
HETATM   14  C   UNK N   1      20.851  14.429   9.457  0.00  0.00     0.011 C 
HETATM   15  C   UNK N   1      20.904  13.068  10.144  0.00  0.00     0.004 C 
HETATM   16  C   UNK N   1      22.342  12.738  10.521  0.00  0.00     0.027 C 
HETATM   17  C   UNK N   1      23.265  12.847   9.336  0.00  0.00    -0.030 C 
HETATM   18  C   UNK N   1      23.007  13.655   8.295  0.00  0.00    -0.023 C 
ENDBRANCH  12  13
BRANCH  12  19
HETATM   19  O   UNK N   1      20.083  13.317   6.947  0.00  0.00    -0.392 OA
HETATM   20  H   UNK N   1      20.138  12.600   6.296  0.00  0.00     0.210 HD
ENDBRANCH  12  19
ENDBRANCH   7  12
BRANCH   3  21
HETATM   21  C   UNK N   1      21.259  18.798   4.488  0.00  0.00     0.032 C 
BRANCH  21  22
HETATM   22  C   UNK N   1      22.551  19.091   3.740  0.00  0.00     0.115 C 
HETATM   23 Cl   UNK N   1      22.348  20.493   2.670  0.00  0.00    -0.130 Cl
ENDBRANCH  21  22
ENDBRANCH   3  21
TORSDOF 5
ENDMDL
MODEL 4
REMARK VINA RESULT:      -6.1      2.003      2.752
REMARK  5 active torsions:
REMARK  status: ('A' for Active; 'I' for Inactive)
REMARK    1  A    between atoms: C_3  and  C_19 
REMARK    2  A    between atoms: C_7  and  C_11 
REMARK    3  A    between atoms: C_12  and  C_11 
REMARK    4  A    between atoms: C_11  and  O_18 
REMARK    5  A    between atoms: C_19  and  C_20 
ROOT
HETATM    1  C   UNK N   1      31.792  17.045   8.703  0.00  0.00     0.051 C 
HETATM    2  C   UNK N   1      32.927  17.132   7.687  0.00  0.00     0.116 A 
HETATM    3  C   UNK N   1      32.713  16.275   6.418  0.00  0.00     0.117 C 
HETATM    4  C   UNK N   1      34.095  15.784   6.140  0.00  0.00     0.226 C 
HETATM    5  O   UNK N   1      34.390  15.108   5.169  0.00  0.00    -0.273 OA
HETATM    6  N   UNK N   1      34.987  16.064   7.097  0.00  0.00    -0.338 N 
HETATM    7  C   UNK N   1      34.413  16.802   8.184  0.00  0.00     0.180 A 
HETATM    8  C   UNK N   1      34.524  18.256   7.963  0.00  0.00     0.294 A 
HETATM    9  O   UNK N   1      35.206  19.087   8.542  0.00  0.00    -0.262 OA
HETATM   10  O   UNK N   1      33.308  18.454   7.501  0.00  0.00    -0.304 OA
HETATM   11  H   UNK N   1      35.932  15.794   7.059  0.00  0.00     0.164 HD
ENDROOT
BRANCH   7  12
HETATM   12  C   UNK N   1      34.506  16.153   9.584  0.00  0.00     0.167 C 
BRANCH  12  13
HETATM   13  C   UNK N   1      35.389  14.906   9.742  0.00  0.00     0.040 C 
HETATM   14  C   UNK N   1      36.411  15.031  10.886  0.00  0.00     0.011 C 
HETATM   15  C   UNK N   1      35.991  14.267  12.137  0.00  0.00     0.004 C 
HETATM   16  C   UNK N   1      35.759  12.802  11.790  0.00  0.00     0.027 C 
HETATM   17  C   UNK N   1      34.797  12.648  10.643  0.00  0.00    -0.030 C 
HETATM   18  C   UNK N   1      34.634  13.598   9.708  0.00  0.00    -0.023 C 
ENDBRANCH  12  13
BRANCH  12  19
HETATM   19  O   UNK N   1      34.805  17.101  10.565  0.00  0.00    -0.392 OA
HETATM   20  H   UNK N   1      34.830  16.843  11.499  0.00  0.00     0.210 HD
ENDBRANCH  12  19
ENDBRANCH   7  12
BRANCH   3  21
HETATM   21  C   UNK N   1      32.056  17.025   5.268  0.00  0.00     0.032 C 
BRANCH  21  22
HETATM   22  C   UNK N   1      30.628  16.526   5.110  0.00  0.00     0.115 C 
HETATM   23 Cl   UNK N   1      29.489  17.629   5.907  0.00  0.00    -0.130 Cl
ENDBRANCH  21  22
ENDBRANCH   3  21
TORSDOF 5
ENDMDL
MODEL 5
REMARK VINA RESULT:      -5.8      2.911      5.722
REMARK  5 active torsions:
REMARK  status: ('A' for Active; 'I' for Inactive)
REMARK    1  A    between atoms: C_3  and  C_19 
REMARK    2  A    between atoms: C_7  and  C_11 
REMARK    3  A    between atoms: C_12  and  C_11 
REMARK    4  A    between atoms: C_11  and  O_18 
REMARK    5  A    between atoms: C_19  and  C_20 
ROOT
HETATM    1  C   UNK N   1      33.396  17.659   5.438  0.00  0.00     0.051 C 
HETATM    2  C   UNK N   1      33.619  16.511   6.416  0.00  0.00     0.116 A 
HETATM    3  C   UNK N   1      33.431  15.104   5.802  0.00  0.00     0.117 C 
HETATM    4  C   UNK N   1      32.786  14.360   6.923  0.00  0.00     0.226 C 
HETATM    5  O   UNK N   1      32.517  13.172   6.880  0.00  0.00    -0.273 OA
HETATM    6  N   UNK N   1      32.433  15.123   7.964  0.00  0.00    -0.338 N 
HETATM    7  C   UNK N   1      32.775  16.502   7.777  0.00  0.00     0.180 A 
HETATM    8  C   UNK N   1      34.122  16.796   8.302  0.00  0.00     0.294 A 
HETATM    9  O   UNK N   1      34.458  17.461   9.269  0.00  0.00    -0.262 OA
HETATM   10  O   UNK N   1      34.772  16.727   7.160  0.00  0.00    -0.304 OA
HETATM   11  H   UNK N   1      31.988  14.775   8.770  0.00  0.00     0.164 HD
ENDROOT
BRANCH   7  12
HETATM   12  C   UNK N   1      31.610  17.516   7.831  0.00  0.00     0.167 C 
BRANCH  12  13
HETATM   13  C   UNK N   1      30.212  17.027   7.425  0.00  0.00     0.040 C 
HETATM   14  C   UNK N   1      29.095  17.560   8.341  0.00  0.00     0.011 C 
HETATM   15  C   UNK N   1      28.318  18.712   7.713  0.00  0.00     0.004 C 
HETATM   16  C   UNK N   1      27.740  18.271   6.374  0.00  0.00     0.027 C 
HETATM   17  C   UNK N   1      28.802  17.703   5.471  0.00  0.00    -0.030 C 
HETATM   18  C   UNK N   1      29.920  17.130   5.946  0.00  0.00    -0.023 C 
ENDBRANCH  12  13
BRANCH  12  19
HETATM   19  O   UNK N   1      31.567  18.177   9.061  0.00  0.00    -0.392 OA
HETATM   20  H   UNK N   1      31.054  18.995   9.156  0.00  0.00     0.210 HD
ENDBRANCH  12  19
ENDBRANCH   7  12
BRANCH   3  21
HETATM   21  C   UNK N   1      34.717  14.482   5.276  0.00  0.00     0.032 C 
BRANCH  21  22
HETATM   22  C   UNK N   1      34.462  13.936   3.879  0.00  0.00     0.115 C 
HETATM   23 Cl   UNK N   1      33.718  15.177   2.851  0.00  0.00    -0.130 Cl
ENDBRANCH  21  22
ENDBRANCH   3  21
TORSDOF 5
ENDMDL
MODEL 6
REMARK VINA RESULT:      -5.8     17.930     19.745
REMARK  5 active torsions:
REMARK  status: ('A' for Active; 'I' for Inactive)
REMARK    1  A    between atoms: C_3  and  C_19 
REMARK    2  A    between atoms: C_7  and  C_11 
REMARK    3  A    between atoms: C_12  and  C_11 
REMARK    4  A    between atoms: C_11  and  O_18 
REMARK    5  A    between atoms: C_19  and  C_20 
ROOT
HETATM    1  C   UNK N   1      28.192  24.943  -8.497  0.00  0.00     0.051 C 
HETATM    2  C   UNK N   1      27.483  23.613  -8.266  0.00  0.00     0.116 A 
HETATM    3  C   UNK N   1      26.139  23.469  -9.016  0.00  0.00     0.117 C 
HETATM    4  C   UNK N   1      25.308  22.725  -8.024  0.00  0.00     0.226 C 
HETATM    5  O   UNK N   1      24.171  22.345  -8.243  0.00  0.00    -0.273 OA
HETATM    6  N   UNK N   1      25.876  22.583  -6.821  0.00  0.00    -0.338 N 
HETATM    7  C   UNK N   1      27.183  23.168  -6.757  0.00  0.00     0.180 A 
HETATM    8  C   UNK N   1      28.226  22.191  -7.120  0.00  0.00     0.294 A 
HETATM    9  O   UNK N   1      29.080  21.662  -6.425  0.00  0.00    -0.262 OA
HETATM   10  O   UNK N   1      28.383  22.561  -8.372  0.00  0.00    -0.304 OA
HETATM   11  H   UNK N   1      25.445  22.128  -6.063  0.00  0.00     0.164 HD
ENDROOT
BRANCH   7  12
HETATM   12  C   UNK N   1      27.395  24.272  -5.695  0.00  0.00     0.167 C 
BRANCH  12  13
HETATM   13  C   UNK N   1      26.151  24.967  -5.122  0.00  0.00     0.040 C 
HETATM   14  C   UNK N   1      26.376  25.541  -3.712  0.00  0.00     0.011 C 
HETATM   15  C   UNK N   1      26.590  27.051  -3.718  0.00  0.00     0.004 C 
HETATM   16  C   UNK N   1      25.404  27.735  -4.387  0.00  0.00     0.027 C 
HETATM   17  C   UNK N   1      25.131  27.163  -5.752  0.00  0.00    -0.030 C 
HETATM   18  C   UNK N   1      25.461  25.905  -6.085  0.00  0.00    -0.023 C 
ENDBRANCH  12  13
BRANCH  12  19
HETATM   19  O   UNK N   1      28.238  23.836  -4.670  0.00  0.00    -0.392 OA
HETATM   20  H   UNK N   1      28.592  24.472  -4.029  0.00  0.00     0.210 HD
ENDBRANCH  12  19
ENDBRANCH   7  12
BRANCH   3  21
HETATM   21  C   UNK N   1      26.259  22.801 -10.379  0.00  0.00     0.032 C 
BRANCH  21  22
HETATM   22  C   UNK N   1      25.899  23.815 -11.455  0.00  0.00     0.115 C 
HETATM   23 Cl   UNK N   1      25.047  25.201 -10.745  0.00  0.00    -0.130 Cl
ENDBRANCH  21  22
ENDBRANCH   3  21
TORSDOF 5
ENDMDL
MODEL 7
REMARK VINA RESULT:      -5.8     14.327     17.214
REMARK  5 active torsions:
REMARK  status: ('A' for Active; 'I' for Inactive)
REMARK    1  A    between atoms: C_3  and  C_19 
REMARK    2  A    between atoms: C_7  and  C_11 
REMARK    3  A    between atoms: C_12  and  C_11 
REMARK    4  A    between atoms: C_11  and  O_18 
REMARK    5  A    between atoms: C_19  and  C_20 
ROOT
HETATM    1  C   UNK N   1      30.473  25.962  -3.601  0.00  0.00     0.051 C 
HETATM    2  C   UNK N   1      30.550  24.442  -3.709  0.00  0.00     0.116 A 
HETATM    3  C   UNK N   1      31.295  23.928  -4.962  0.00  0.00     0.117 C 
HETATM    4  C   UNK N   1      30.493  22.724  -5.328  0.00  0.00     0.226 C 
HETATM    5  O   UNK N   1      30.779  21.973  -6.243  0.00  0.00    -0.273 OA
HETATM    6  N   UNK N   1      29.364  22.576  -4.625  0.00  0.00    -0.338 N 
HETATM    7  C   UNK N   1      29.182  23.610  -3.650  0.00  0.00     0.180 A 
HETATM    8  C   UNK N   1      29.778  23.236  -2.353  0.00  0.00     0.294 A 
HETATM    9  O   UNK N   1      29.237  22.964  -1.292  0.00  0.00    -0.262 OA
HETATM   10  O   UNK N   1      30.911  23.890  -2.487  0.00  0.00    -0.304 OA
HETATM   11  H   UNK N   1      28.728  21.838  -4.762  0.00  0.00     0.164 HD
ENDROOT
BRANCH   7  12
HETATM   12  C   UNK N   1      27.895  24.458  -3.773  0.00  0.00     0.167 C 
BRANCH  12  13
HETATM   13  C   UNK N   1      27.210  24.530  -5.145  0.00  0.00     0.040 C 
HETATM   14  C   UNK N   1      25.681  24.678  -5.050  0.00  0.00     0.011 C 
HETATM   15  C   UNK N   1      25.210  26.105  -5.308  0.00  0.00     0.004 C 
HETATM   16  C   UNK N   1      25.704  26.570  -6.672  0.00  0.00     0.027 C 
HETATM   17  C   UNK N   1      27.193  26.395  -6.813  0.00  0.00    -0.030 C 
HETATM   18  C   UNK N   1      27.876  25.464  -6.127  0.00  0.00    -0.023 C 
ENDBRANCH  12  13
BRANCH  12  19
HETATM   19  O   UNK N   1      26.975  24.133  -2.774  0.00  0.00    -0.392 OA
HETATM   20  H   UNK N   1      26.240  24.734  -2.575  0.00  0.00     0.210 HD
ENDBRANCH  12  19
ENDBRANCH   7  12
BRANCH   3  21
HETATM   21  C   UNK N   1      32.778  23.666  -4.736  0.00  0.00     0.032 C 
BRANCH  21  22
HETATM   22  C   UNK N   1      33.573  24.404  -5.803  0.00  0.00     0.115 C 
HETATM   23 Cl   UNK N   1      34.609  25.642  -5.064  0.00  0.00    -0.130 Cl
ENDBRANCH  21  22
ENDBRANCH   3  21
TORSDOF 5
ENDMDL
MODEL 8
REMARK VINA RESULT:      -5.7     15.326     17.970
REMARK  5 active torsions:
REMARK  status: ('A' for Active; 'I' for Inactive)
REMARK    1  A    between atoms: C_3  and  C_19 
REMARK    2  A    between atoms: C_7  and  C_11 
REMARK    3  A    between atoms: C_12  and  C_11 
REMARK    4  A    between atoms: C_11  and  O_18 
REMARK    5  A    between atoms: C_19  and  C_20 
ROOT
HETATM    1  C   UNK N   1      28.366  27.339  -6.263  0.00  0.00     0.051 C 
HETATM    2  C   UNK N   1      27.112  26.976  -5.474  0.00  0.00     0.116 A 
HETATM    3  C   UNK N   1      26.882  27.837  -4.211  0.00  0.00     0.117 C 
HETATM    4  C   UNK N   1      26.337  26.836  -3.248  0.00  0.00     0.226 C 
HETATM    5  O   UNK N   1      25.956  27.115  -2.125  0.00  0.00    -0.273 OA
HETATM    6  N   UNK N   1      26.381  25.570  -3.680  0.00  0.00    -0.338 N 
HETATM    7  C   UNK N   1      26.933  25.457  -4.998  0.00  0.00     0.180 A 
HETATM    8  C   UNK N   1      25.881  25.539  -6.028  0.00  0.00     0.294 A 
HETATM    9  O   UNK N   1      25.452  24.677  -6.780  0.00  0.00    -0.262 OA
HETATM   10  O   UNK N   1      26.033  26.810  -6.332  0.00  0.00    -0.304 OA
HETATM   11  H   UNK N   1      26.070  24.801  -3.151  0.00  0.00     0.164 HD
ENDROOT
BRANCH   7  12
HETATM   12  C   UNK N   1      28.192  24.572  -5.147  0.00  0.00     0.167 C 
BRANCH  12  13
HETATM   13  C   UNK N   1      29.189  24.539  -3.980  0.00  0.00     0.040 C 
HETATM   14  C   UNK N   1      28.959  23.356  -3.022  0.00  0.00     0.011 C 
HETATM   15  C   UNK N   1      29.954  22.221  -3.238  0.00  0.00     0.004 C 
HETATM   16  C   UNK N   1      31.376  22.751  -3.095  0.00  0.00     0.027 C 
HETATM   17  C   UNK N   1      31.618  23.938  -3.988  0.00  0.00    -0.030 C 
HETATM   18  C   UNK N   1      30.629  24.755  -4.383  0.00  0.00    -0.023 C 
ENDBRANCH  12  13
BRANCH  12  19
HETATM   19  O   UNK N   1      27.857  23.278  -5.552  0.00  0.00    -0.392 OA
HETATM   20  H   UNK N   1      28.516  22.568  -5.502  0.00  0.00     0.210 HD
ENDBRANCH  12  19
ENDBRANCH   7  12
BRANCH   3  21
HETATM   21  C   UNK N   1      25.994  29.052  -4.444  0.00  0.00     0.032 C 
BRANCH  21  22
HETATM   22  C   UNK N   1      26.618  30.254  -3.753  0.00  0.00     0.115 C 
HETATM   23 Cl   UNK N   1      27.775  31.062  -4.830  0.00  0.00    -0.130 Cl
ENDBRANCH  21  22
ENDBRANCH   3  21
TORSDOF 5
ENDMDL
MODEL 9
REMARK VINA RESULT:      -5.6     17.251     19.694
REMARK  5 active torsions:
REMARK  status: ('A' for Active; 'I' for Inactive)
REMARK    1  A    between atoms: C_3  and  C_19 
REMARK    2  A    between atoms: C_7  and  C_11 
REMARK    3  A    between atoms: C_12  and  C_11 
REMARK    4  A    between atoms: C_11  and  O_18 
REMARK    5  A    between atoms: C_19  and  C_20 
ROOT
HETATM    1  C   UNK N   1      25.209  27.390  -4.620  0.00  0.00     0.051 C 
HETATM    2  C   UNK N   1      26.551  26.768  -4.246  0.00  0.00     0.116 A 
HETATM    3  C   UNK N   1      27.771  27.682  -4.502  0.00  0.00     0.117 C 
HETATM    4  C   UNK N   1      28.797  26.706  -4.972  0.00  0.00     0.226 C 
HETATM    5  O   UNK N   1      29.949  27.007  -5.230  0.00  0.00    -0.273 OA
HETATM    6  N   UNK N   1      28.330  25.470  -5.183  0.00  0.00    -0.338 N 
HETATM    7  C   UNK N   1      26.932  25.351  -4.888  0.00  0.00     0.180 A 
HETATM    8  C   UNK N   1      26.712  24.956  -3.484  0.00  0.00     0.294 A 
HETATM    9  O   UNK N   1      26.289  23.908  -3.022  0.00  0.00    -0.262 OA
HETATM   10  O   UNK N   1      26.469  26.156  -3.002  0.00  0.00    -0.304 OA
HETATM   11  H   UNK N   1      28.884  24.724  -5.505  0.00  0.00     0.164 HD
ENDROOT
BRANCH   7  12
HETATM   12  C   UNK N   1      26.018  24.891  -6.046  0.00  0.00     0.167 C 
BRANCH  12  13
HETATM   13  C   UNK N   1      26.575  24.965  -7.475  0.00  0.00     0.040 C 
HETATM   14  C   UNK N   1      26.404  23.651  -8.259  0.00  0.00     0.011 C 
HETATM   15  C   UNK N   1      25.248  23.705  -9.252  0.00  0.00     0.004 C 
HETATM   16  C   UNK N   1      25.448  24.872 -10.211  0.00  0.00     0.027 C 
HETATM   17  C   UNK N   1      25.664  26.166  -9.472  0.00  0.00    -0.030 C 
HETATM   18  C   UNK N   1      26.184  26.210  -8.234  0.00  0.00    -0.023 C 
ENDBRANCH  12  13
BRANCH  12  19
HETATM   19  O   UNK N   1      25.470  23.632  -5.791  0.00  0.00    -0.392 OA
HETATM   20  H   UNK N   1      24.523  23.544  -5.596  0.00  0.00     0.210 HD
ENDBRANCH  12  19
ENDBRANCH   7  12
BRANCH   3  21
HETATM   21  C   UNK N   1      28.184  28.515  -3.296  0.00  0.00     0.032 C 
BRANCH  21  22
HETATM   22  C   UNK N   1      27.734  29.951  -3.515  0.00  0.00     0.115 C 
HETATM   23 Cl   UNK N   1      27.649  30.321  -5.250  0.00  0.00    -0.130 Cl
ENDBRANCH  21  22
ENDBRANCH   3  21
TORSDOF 5
ENDMDL
