MODEL 1
REMARK VINA RESULT:      -7.6      0.000      0.000
REMARK  4 active torsions:
REMARK  status: ('A' for Active; 'I' for Inactive)
REMARK    1  A    between atoms: C_6  and  O_9 
REMARK    2  A    between atoms: C_22  and  C_23 
REMARK    3  A    between atoms: C_22  and  O_27 
REMARK    4  A    between atoms: C_23  and  C_24 
ROOT
HETATM    1  C   UNK N   1      36.392  13.331  11.146  0.00  0.00     0.001 C 
HETATM    2  C   UNK N   1      35.876  12.824   9.782  0.00  0.00     0.005 C 
HETATM    3  C   UNK N   1      36.265  14.853  11.307  0.00  0.00     0.048 C 
HETATM    4  C   UNK N   1      37.893  13.032  11.241  0.00  0.00     0.019 C 
HETATM    5  C   UNK N   1      34.569  13.494   9.281  0.00  0.00     0.035 C 
HETATM    6  C   UNK N   1      34.935  15.431  10.826  0.00  0.00     0.160 C 
HETATM    7  C   UNK N   1      34.690  15.052   9.340  0.00  0.00     0.147 C 
HETATM    8  C   UNK N   1      34.301  13.000   7.843  0.00  0.00     0.013 C 
HETATM    9  C   UNK N   1      33.421  15.732   8.715  0.00  0.00     0.036 A 
HETATM   10  F   UNK N   1      35.792  15.447   8.588  0.00  0.00    -0.238 F 
HETATM   11  C   UNK N   1      33.078  13.655   7.214  0.00  0.00     0.036 C 
HETATM   12  C   UNK N   1      33.239  15.134   7.320  0.00  0.00    -0.061 A 
HETATM   13  C   UNK N   1      33.585  17.246   8.693  0.00  0.00    -0.006 A 
HETATM   14  C   UNK N   1      32.168  15.430   9.533  0.00  0.00     0.028 C 
HETATM   15  C   UNK N   1      33.294  15.867   6.199  0.00  0.00     0.058 A 
HETATM   16  C   UNK N   1      33.629  17.972   7.569  0.00  0.00     0.052 A 
HETATM   17  C   UNK N   1      33.511  17.317   6.263  0.00  0.00     0.172 A 
HETATM   18  O   UNK N   1      33.598  17.972   5.238  0.00  0.00    -0.289 OA
HETATM   19  C   UNK N   1      35.619  11.325  10.003  0.00  0.00     0.013 C 
HETATM   20  C   UNK N   1      35.647  11.065  11.518  0.00  0.00     0.025 C 
HETATM   21  C   UNK N   1      35.620  12.476  12.174  0.00  0.00     0.130 C 
HETATM   22  C   UNK N   1      36.908  10.243  11.760  0.00  0.00     0.013 C 
ENDROOT
BRANCH  21  23
HETATM   23  C   UNK N   1      36.171  12.605  13.594  0.00  0.00     0.175 C 
HETATM   24  O   UNK N   1      37.008  11.804  13.983  0.00  0.00    -0.293 OA
BRANCH  23  25
HETATM   25  C   UNK N   1      35.736  13.692  14.528  0.00  0.00     0.196 C 
HETATM   26 Cl   UNK N   1      37.143  14.340  15.411  0.00  0.00    -0.122 Cl
ENDBRANCH  23  25
ENDBRANCH  21  23
BRANCH  21  27
HETATM   27  O   UNK N   1      34.283  12.884  12.223  0.00  0.00    -0.381 OA
HETATM   28  H   UNK N   1      33.592  13.464  11.867  0.00  0.00     0.211 HD
ENDBRANCH  21  27
BRANCH   6  29
HETATM   29  O   UNK N   1      34.974  16.812  11.017  0.00  0.00    -0.392 OA
HETATM   30  H   UNK N   1      34.783  17.416  10.283  0.00  0.00     0.210 HD
ENDBRANCH   6  29
TORSDOF 4
ENDMDL
MODEL 2
REMARK VINA RESULT:      -7.5      2.852      6.770
REMARK  4 active torsions:
REMARK  status: ('A' for Active; 'I' for Inactive)
REMARK    1  A    between atoms: C_6  and  O_9 
REMARK    2  A    between atoms: C_22  and  C_23 
REMARK    3  A    between atoms: C_22  and  O_27 
REMARK    4  A    between atoms: C_23  and  C_24 
ROOT
HETATM    1  C   UNK N   1      33.132  15.676   7.794  0.00  0.00     0.001 C 
HETATM    2  C   UNK N   1      33.115  14.213   8.283  0.00  0.00     0.005 C 
HETATM    3  C   UNK N   1      33.735  16.646   8.821  0.00  0.00     0.048 C 
HETATM    4  C   UNK N   1      31.684  16.140   7.594  0.00  0.00     0.019 C 
HETATM    5  C   UNK N   1      34.391  13.755   9.040  0.00  0.00     0.035 C 
HETATM    6  C   UNK N   1      35.010  16.139   9.494  0.00  0.00     0.160 C 
HETATM    7  C   UNK N   1      34.750  14.768  10.176  0.00  0.00     0.147 C 
HETATM    8  C   UNK N   1      34.131  12.341   9.603  0.00  0.00     0.013 C 
HETATM    9  C   UNK N   1      35.963  14.244  11.025  0.00  0.00     0.036 A 
HETATM   10  F   UNK N   1      33.661  14.892  11.032  0.00  0.00    -0.238 F 
HETATM   11  C   UNK N   1      35.292  11.818  10.438  0.00  0.00     0.036 C 
HETATM   12  C   UNK N   1      35.604  12.832  11.486  0.00  0.00    -0.061 A 
HETATM   13  C   UNK N   1      36.250  15.191  12.183  0.00  0.00    -0.006 A 
HETATM   14  C   UNK N   1      37.236  14.166  10.186  0.00  0.00     0.028 C 
HETATM   15  C   UNK N   1      35.485  12.494  12.778  0.00  0.00     0.058 A 
HETATM   16  C   UNK N   1      36.138  14.842  13.471  0.00  0.00     0.052 A 
HETATM   17  C   UNK N   1      35.726  13.483  13.835  0.00  0.00     0.172 A 
HETATM   18  O   UNK N   1      35.579  13.180  15.007  0.00  0.00    -0.289 OA
HETATM   19  C   UNK N   1      32.970  13.380   6.999  0.00  0.00     0.013 C 
HETATM   20  C   UNK N   1      33.249  14.310   5.807  0.00  0.00     0.025 C 
HETATM   21  C   UNK N   1      33.853  15.602   6.430  0.00  0.00     0.130 C 
HETATM   22  C   UNK N   1      31.906  14.475   5.104  0.00  0.00     0.013 C 
ENDROOT
BRANCH  21  23
HETATM   23  C   UNK N   1      33.741  16.894   5.623  0.00  0.00     0.175 C 
HETATM   24  O   UNK N   1      34.147  17.939   6.110  0.00  0.00    -0.293 OA
BRANCH  23  25
HETATM   25  C   UNK N   1      33.165  16.930   4.240  0.00  0.00     0.196 C 
HETATM   26 Cl   UNK N   1      31.655  17.878   4.229  0.00  0.00    -0.122 Cl
ENDBRANCH  23  25
ENDBRANCH  21  23
BRANCH  21  27
HETATM   27  O   UNK N   1      35.217  15.368   6.626  0.00  0.00    -0.381 OA
HETATM   28  H   UNK N   1      35.980  14.792   6.461  0.00  0.00     0.211 HD
ENDBRANCH  21  27
BRANCH   6  29
HETATM   29  O   UNK N   1      35.427  17.109  10.406  0.00  0.00    -0.392 OA
HETATM   30  H   UNK N   1      34.777  17.648  10.883  0.00  0.00     0.210 HD
ENDBRANCH   6  29
TORSDOF 4
ENDMDL
MODEL 3
REMARK VINA RESULT:      -7.5      2.477      6.679
REMARK  4 active torsions:
REMARK  status: ('A' for Active; 'I' for Inactive)
REMARK    1  A    between atoms: C_6  and  O_9 
REMARK    2  A    between atoms: C_22  and  C_23 
REMARK    3  A    between atoms: C_22  and  O_27 
REMARK    4  A    between atoms: C_23  and  C_24 
ROOT
HETATM    1  C   UNK N   1      33.198  14.851   7.261  0.00  0.00     0.001 C 
HETATM    2  C   UNK N   1      34.635  14.294   7.180  0.00  0.00     0.005 C 
HETATM    3  C   UNK N   1      32.590  14.740   8.666  0.00  0.00     0.048 C 
HETATM    4  C   UNK N   1      32.295  14.005   6.355  0.00  0.00     0.019 C 
HETATM    5  C   UNK N   1      35.547  14.642   8.387  0.00  0.00     0.035 C 
HETATM    6  C   UNK N   1      33.538  15.137   9.798  0.00  0.00     0.160 C 
HETATM    7  C   UNK N   1      34.836  14.287   9.734  0.00  0.00     0.147 C 
HETATM    8  C   UNK N   1      36.871  13.865   8.223  0.00  0.00     0.013 C 
HETATM    9  C   UNK N   1      35.802  14.518  10.949  0.00  0.00     0.036 A 
HETATM   10  F   UNK N   1      34.491  12.940   9.721  0.00  0.00    -0.238 F 
HETATM   11  C   UNK N   1      37.820  14.068   9.397  0.00  0.00     0.036 C 
HETATM   12  C   UNK N   1      37.083  13.739  10.652  0.00  0.00    -0.061 A 
HETATM   13  C   UNK N   1      35.135  14.086  12.249  0.00  0.00    -0.006 A 
HETATM   14  C   UNK N   1      36.163  15.993  11.101  0.00  0.00     0.028 C 
HETATM   15  C   UNK N   1      37.522  12.733  11.422  0.00  0.00     0.058 A 
HETATM   16  C   UNK N   1      35.586  13.087  13.018  0.00  0.00     0.052 A 
HETATM   17  C   UNK N   1      36.789  12.342  12.632  0.00  0.00     0.172 A 
HETATM   18  O   UNK N   1      37.172  11.403  13.307  0.00  0.00    -0.289 OA
HETATM   19  C   UNK N   1      35.222  14.929   5.909  0.00  0.00     0.013 C 
HETATM   20  C   UNK N   1      34.285  16.072   5.483  0.00  0.00     0.025 C 
HETATM   21  C   UNK N   1      33.323  16.280   6.689  0.00  0.00     0.130 C 
HETATM   22  C   UNK N   1      33.635  15.595   4.189  0.00  0.00     0.013 C 
ENDROOT
BRANCH  21  23
HETATM   23  C   UNK N   1      31.970  16.933   6.408  0.00  0.00     0.175 C 
HETATM   24  O   UNK N   1      31.788  17.488   5.335  0.00  0.00    -0.293 OA
BRANCH  23  25
HETATM   25  C   UNK N   1      30.844  16.904   7.395  0.00  0.00     0.196 C 
HETATM   26 Cl   UNK N   1      31.120  18.111   8.677  0.00  0.00    -0.122 Cl
ENDBRANCH  23  25
ENDBRANCH  21  23
BRANCH  21  27
HETATM   27  O   UNK N   1      33.983  17.103   7.607  0.00  0.00    -0.381 OA
HETATM   28  H   UNK N   1      34.736  17.688   7.786  0.00  0.00     0.211 HD
ENDBRANCH  21  27
BRANCH   6  29
HETATM   29  O   UNK N   1      32.858  14.969  11.004  0.00  0.00    -0.392 OA
HETATM   30  H   UNK N   1      32.498  15.736  11.477  0.00  0.00     0.210 HD
ENDBRANCH   6  29
TORSDOF 4
ENDMDL
MODEL 4
REMARK VINA RESULT:      -7.5     20.053     21.750
REMARK  4 active torsions:
REMARK  status: ('A' for Active; 'I' for Inactive)
REMARK    1  A    between atoms: C_6  and  O_9 
REMARK    2  A    between atoms: C_22  and  C_23 
REMARK    3  A    between atoms: C_22  and  O_27 
REMARK    4  A    between atoms: C_23  and  C_24 
ROOT
HETATM    1  C   UNK N   1      26.912  28.210  -4.407  0.00  0.00     0.001 C 
HETATM    2  C   UNK N   1      27.024  28.092  -5.941  0.00  0.00     0.005 C 
HETATM    3  C   UNK N   1      26.324  26.953  -3.749  0.00  0.00     0.048 C 
HETATM    4  C   UNK N   1      25.935  29.343  -4.074  0.00  0.00     0.019 C 
HETATM    5  C   UNK N   1      27.509  26.713  -6.464  0.00  0.00     0.035 C 
HETATM    6  C   UNK N   1      26.880  25.637  -4.292  0.00  0.00     0.160 C 
HETATM    7  C   UNK N   1      26.670  25.557  -5.829  0.00  0.00     0.147 C 
HETATM    8  C   UNK N   1      27.392  26.719  -8.004  0.00  0.00     0.013 C 
HETATM    9  C   UNK N   1      27.071  24.173  -6.450  0.00  0.00     0.036 A 
HETATM   10  F   UNK N   1      25.324  25.770  -6.109  0.00  0.00    -0.238 F 
HETATM   11  C   UNK N   1      27.768  25.381  -8.627  0.00  0.00     0.036 C 
HETATM   12  C   UNK N   1      26.956  24.318  -7.968  0.00  0.00    -0.061 A 
HETATM   13  C   UNK N   1      26.188  23.063  -5.893  0.00  0.00    -0.006 A 
HETATM   14  C   UNK N   1      28.514  23.808  -6.112  0.00  0.00     0.028 C 
HETATM   15  C   UNK N   1      26.108  23.590  -8.709  0.00  0.00     0.058 A 
HETATM   16  C   UNK N   1      25.352  22.333  -6.642  0.00  0.00     0.052 A 
HETATM   17  C   UNK N   1      25.250  22.575  -8.084  0.00  0.00     0.172 A 
HETATM   18  O   UNK N   1      24.455  21.943  -8.758  0.00  0.00    -0.289 OA
HETATM   19  C   UNK N   1      28.050  29.166  -6.335  0.00  0.00     0.013 C 
HETATM   20  C   UNK N   1      28.755  29.631  -5.050  0.00  0.00     0.025 C 
HETATM   21  C   UNK N   1      28.339  28.600  -3.962  0.00  0.00     0.130 C 
HETATM   22  C   UNK N   1      28.278  31.062  -4.827  0.00  0.00     0.013 C 
ENDROOT
BRANCH  21  23
HETATM   23  C   UNK N   1      28.410  29.047  -2.502  0.00  0.00     0.175 C 
HETATM   24  O   UNK N   1      27.418  28.937  -1.797  0.00  0.00    -0.293 OA
BRANCH  23  25
HETATM   25  C   UNK N   1      29.660  29.602  -1.892  0.00  0.00     0.196 C 
HETATM   26 Cl   UNK N   1      29.355  30.087  -0.204  0.00  0.00    -0.122 Cl
ENDBRANCH  23  25
ENDBRANCH  21  23
BRANCH  21  27
HETATM   27  O   UNK N   1      29.193  27.500  -4.087  0.00  0.00    -0.381 OA
HETATM   28  H   UNK N   1      29.694  26.799  -3.641  0.00  0.00     0.211 HD
ENDBRANCH  21  27
BRANCH   6  29
HETATM   29  O   UNK N   1      26.245  24.594  -3.619  0.00  0.00    -0.392 OA
HETATM   30  H   UNK N   1      25.880  23.841  -4.110  0.00  0.00     0.210 HD
ENDBRANCH   6  29
TORSDOF 4
ENDMDL
MODEL 5
REMARK VINA RESULT:      -7.4     15.831     19.265
REMARK  4 active torsions:
REMARK  status: ('A' for Active; 'I' for Inactive)
REMARK    1  A    between atoms: C_6  and  O_9 
REMARK    2  A    between atoms: C_22  and  C_23 
REMARK    3  A    between atoms: C_22  and  O_27 
REMARK    4  A    between atoms: C_23  and  C_24 
ROOT
HETATM    1  C   UNK N   1      27.797  24.286  -4.309  0.00  0.00     0.001 C 
HETATM    2  C   UNK N   1      28.270  23.507  -5.554  0.00  0.00     0.005 C 
HETATM    3  C   UNK N   1      28.600  23.945  -3.046  0.00  0.00     0.048 C 
HETATM    4  C   UNK N   1      26.351  23.879  -3.999  0.00  0.00     0.019 C 
HETATM    5  C   UNK N   1      29.810  23.365  -5.698  0.00  0.00     0.035 C 
HETATM    6  C   UNK N   1      30.111  23.861  -3.262  0.00  0.00     0.160 C 
HETATM    7  C   UNK N   1      30.439  22.826  -4.372  0.00  0.00     0.147 C 
HETATM    8  C   UNK N   1      30.092  22.419  -6.885  0.00  0.00     0.013 C 
HETATM    9  C   UNK N   1      31.975  22.559  -4.553  0.00  0.00     0.036 A 
HETATM   10  F   UNK N   1      29.838  21.614  -4.047  0.00  0.00    -0.238 F 
HETATM   11  C   UNK N   1      31.578  22.140  -7.073  0.00  0.00     0.036 C 
HETATM   12  C   UNK N   1      32.126  21.653  -5.774  0.00  0.00    -0.061 A 
HETATM   13  C   UNK N   1      32.563  21.950  -3.287  0.00  0.00    -0.006 A 
HETATM   14  C   UNK N   1      32.736  23.855  -4.821  0.00  0.00     0.028 C 
HETATM   15  C   UNK N   1      32.656  20.423  -5.710  0.00  0.00     0.058 A 
HETATM   16  C   UNK N   1      33.099  20.725  -3.233  0.00  0.00     0.052 A 
HETATM   17  C   UNK N   1      33.151  19.888  -4.436  0.00  0.00     0.172 A 
HETATM   18  O   UNK N   1      33.596  18.754  -4.376  0.00  0.00    -0.289 OA
HETATM   19  C   UNK N   1      27.729  24.317  -6.743  0.00  0.00     0.013 C 
HETATM   20  C   UNK N   1      27.275  25.685  -6.207  0.00  0.00     0.025 C 
HETATM   21  C   UNK N   1      27.841  25.763  -4.760  0.00  0.00     0.130 C 
HETATM   22  C   UNK N   1      25.755  25.678  -6.329  0.00  0.00     0.013 C 
ENDROOT
BRANCH  21  23
HETATM   23  C   UNK N   1      27.145  26.708  -3.781  0.00  0.00     0.175 C 
HETATM   24  O   UNK N   1      26.256  26.274  -3.063  0.00  0.00    -0.293 OA
BRANCH  23  25
HETATM   25  C   UNK N   1      27.524  28.152  -3.651  0.00  0.00     0.196 C 
HETATM   26 Cl   UNK N   1      26.776  29.102  -4.960  0.00  0.00    -0.122 Cl
ENDBRANCH  23  25
ENDBRANCH  21  23
BRANCH  21  27
HETATM   27  O   UNK N   1      29.168  26.191  -4.857  0.00  0.00    -0.381 OA
HETATM   28  H   UNK N   1      29.819  26.734  -5.328  0.00  0.00     0.211 HD
ENDBRANCH  21  27
BRANCH   6  29
HETATM   29  O   UNK N   1      30.699  23.529  -2.041  0.00  0.00    -0.392 OA
HETATM   30  H   UNK N   1      30.184  23.567  -1.220  0.00  0.00     0.210 HD
ENDBRANCH   6  29
TORSDOF 4
ENDMDL
MODEL 6
REMARK VINA RESULT:      -7.1      3.339      7.932
REMARK  4 active torsions:
REMARK  status: ('A' for Active; 'I' for Inactive)
REMARK    1  A    between atoms: C_6  and  O_9 
REMARK    2  A    between atoms: C_22  and  C_23 
REMARK    3  A    between atoms: C_22  and  O_27 
REMARK    4  A    between atoms: C_23  and  C_24 
ROOT
HETATM    1  C   UNK N   1      36.602  12.744  11.667  0.00  0.00     0.001 C 
HETATM    2  C   UNK N   1      36.528  13.450  13.038  0.00  0.00     0.005 C 
HETATM    3  C   UNK N   1      36.645  11.214  11.781  0.00  0.00     0.048 C 
HETATM    4  C   UNK N   1      37.915  13.143  10.983  0.00  0.00     0.019 C 
HETATM    5  C   UNK N   1      35.589  12.779  14.076  0.00  0.00     0.035 C 
HETATM    6  C   UNK N   1      35.665  10.628  12.796  0.00  0.00     0.160 C 
HETATM    7  C   UNK N   1      35.904  11.252  14.197  0.00  0.00     0.147 C 
HETATM    8  C   UNK N   1      35.774  13.505  15.425  0.00  0.00     0.013 C 
HETATM    9  C   UNK N   1      35.045  10.597  15.336  0.00  0.00     0.036 A 
HETATM   10  F   UNK N   1      37.243  11.093  14.537  0.00  0.00    -0.238 F 
HETATM   11  C   UNK N   1      34.955  12.879  16.547  0.00  0.00     0.036 C 
HETATM   12  C   UNK N   1      35.279  11.423  16.600  0.00  0.00    -0.061 A 
HETATM   13  C   UNK N   1      35.421   9.131  15.510  0.00  0.00    -0.006 A 
HETATM   14  C   UNK N   1      33.555  10.639  15.004  0.00  0.00     0.028 C 
HETATM   15  C   UNK N   1      35.827  10.917  17.713  0.00  0.00     0.058 A 
HETATM   16  C   UNK N   1      35.959   8.630  16.629  0.00  0.00     0.052 A 
HETATM   17  C   UNK N   1      36.213   9.502  17.780  0.00  0.00     0.172 A 
HETATM   18  O   UNK N   1      36.746   9.056  18.781  0.00  0.00    -0.289 OA
HETATM   19  C   UNK N   1      35.998  14.856  12.718  0.00  0.00     0.013 C 
HETATM   20  C   UNK N   1      35.457  14.835  11.279  0.00  0.00     0.025 C 
HETATM   21  C   UNK N   1      35.404  13.330  10.886  0.00  0.00     0.130 C 
HETATM   22  C   UNK N   1      36.422  15.699  10.475  0.00  0.00     0.013 C 
ENDROOT
BRANCH  21  23
HETATM   23  C   UNK N   1      35.436  12.988   9.397  0.00  0.00     0.175 C 
HETATM   24  O   UNK N   1      35.820  11.881   9.048  0.00  0.00    -0.293 OA
BRANCH  23  25
HETATM   25  C   UNK N   1      34.995  13.954   8.341  0.00  0.00     0.196 C 
HETATM   26 Cl   UNK N   1      33.233  14.203   8.435  0.00  0.00    -0.122 Cl
ENDBRANCH  23  25
ENDBRANCH  21  23
BRANCH  21  27
HETATM   27  O   UNK N   1      34.208  12.812  11.392  0.00  0.00    -0.381 OA
HETATM   28  H   UNK N   1      33.639  12.036  11.510  0.00  0.00     0.211 HD
ENDBRANCH  21  27
BRANCH   6  29
HETATM   29  O   UNK N   1      35.832   9.243  12.801  0.00  0.00    -0.392 OA
HETATM   30  H   UNK N   1      36.547   8.835  13.315  0.00  0.00     0.210 HD
ENDBRANCH   6  29
TORSDOF 4
ENDMDL
MODEL 7
REMARK VINA RESULT:      -7.0      4.596      8.568
REMARK  4 active torsions:
REMARK  status: ('A' for Active; 'I' for Inactive)
REMARK    1  A    between atoms: C_6  and  O_9 
REMARK    2  A    between atoms: C_22  and  C_23 
REMARK    3  A    between atoms: C_22  and  O_27 
REMARK    4  A    between atoms: C_23  and  C_24 
ROOT
HETATM    1  C   UNK N   1      29.192  16.305   5.534  0.00  0.00     0.001 C 
HETATM    2  C   UNK N   1      30.304  15.348   5.056  0.00  0.00     0.005 C 
HETATM    3  C   UNK N   1      29.467  16.899   6.923  0.00  0.00     0.048 C 
HETATM    4  C   UNK N   1      27.891  15.507   5.679  0.00  0.00     0.019 C 
HETATM    5  C   UNK N   1      31.753  15.813   5.366  0.00  0.00     0.035 C 
HETATM    6  C   UNK N   1      30.906  17.368   7.136  0.00  0.00     0.160 C 
HETATM    7  C   UNK N   1      31.896  16.201   6.874  0.00  0.00     0.147 C 
HETATM    8  C   UNK N   1      32.714  14.667   4.982  0.00  0.00     0.013 C 
HETATM    9  C   UNK N   1      33.388  16.549   7.218  0.00  0.00     0.036 A 
HETATM   10  F   UNK N   1      31.526  15.113   7.657  0.00  0.00    -0.238 F 
HETATM   11  C   UNK N   1      34.166  14.981   5.317  0.00  0.00     0.036 C 
HETATM   12  C   UNK N   1      34.237  15.366   6.756  0.00  0.00    -0.061 A 
HETATM   13  C   UNK N   1      33.536  16.839   8.707  0.00  0.00    -0.006 A 
HETATM   14  C   UNK N   1      33.855  17.796   6.472  0.00  0.00     0.028 C 
HETATM   15  C   UNK N   1      34.973  14.623   7.595  0.00  0.00     0.058 A 
HETATM   16  C   UNK N   1      34.282  16.098   9.536  0.00  0.00     0.052 A 
HETATM   17  C   UNK N   1      35.019  14.937   9.028  0.00  0.00     0.172 A 
HETATM   18  O   UNK N   1      35.659  14.235   9.792  0.00  0.00    -0.289 OA
HETATM   19  C   UNK N   1      30.117  15.272   3.533  0.00  0.00     0.013 C 
HETATM   20  C   UNK N   1      29.169  16.411   3.122  0.00  0.00     0.025 C 
HETATM   21  C   UNK N   1      29.058  17.322   4.379  0.00  0.00     0.130 C 
HETATM   22  C   UNK N   1      27.882  15.722   2.684  0.00  0.00     0.013 C 
ENDROOT
BRANCH  21  23
HETATM   23  C   UNK N   1      27.819  18.207   4.502  0.00  0.00     0.175 C 
HETATM   24  O   UNK N   1      26.712  17.703   4.382  0.00  0.00    -0.293 OA
BRANCH  23  25
HETATM   25  C   UNK N   1      27.906  19.676   4.784  0.00  0.00     0.196 C 
HETATM   26 Cl   UNK N   1      27.671  19.981   6.524  0.00  0.00    -0.122 Cl
ENDBRANCH  23  25
ENDBRANCH  21  23
BRANCH  21  27
HETATM   27  O   UNK N   1      30.164  18.177   4.369  0.00  0.00    -0.381 OA
HETATM   28  H   UNK N   1      31.051  18.371   4.711  0.00  0.00     0.211 HD
ENDBRANCH  21  27
BRANCH   6  29
HETATM   29  O   UNK N   1      31.006  17.861   8.437  0.00  0.00    -0.392 OA
HETATM   30  H   UNK N   1      30.231  18.237   8.883  0.00  0.00     0.210 HD
ENDBRANCH   6  29
TORSDOF 4
ENDMDL
MODEL 8
REMARK VINA RESULT:      -6.9     20.535     22.356
REMARK  4 active torsions:
REMARK  status: ('A' for Active; 'I' for Inactive)
REMARK    1  A    between atoms: C_6  and  O_9 
REMARK    2  A    between atoms: C_22  and  C_23 
REMARK    3  A    between atoms: C_22  and  O_27 
REMARK    4  A    between atoms: C_23  and  C_24 
ROOT
HETATM    1  C   UNK N   1      26.352  24.426  -8.261  0.00  0.00     0.001 C 
HETATM    2  C   UNK N   1      25.793  24.457  -6.823  0.00  0.00     0.005 C 
HETATM    3  C   UNK N   1      26.939  25.773  -8.706  0.00  0.00     0.048 C 
HETATM    4  C   UNK N   1      25.196  24.142  -9.228  0.00  0.00     0.019 C 
HETATM    5  C   UNK N   1      26.655  25.240  -5.796  0.00  0.00     0.035 C 
HETATM    6  C   UNK N   1      27.807  26.462  -7.654  0.00  0.00     0.160 C 
HETATM    7  C   UNK N   1      27.002  26.664  -6.341  0.00  0.00     0.147 C 
HETATM    8  C   UNK N   1      25.867  25.317  -4.471  0.00  0.00     0.013 C 
HETATM    9  C   UNK N   1      27.765  27.504  -5.256  0.00  0.00     0.036 A 
HETATM   10  F   UNK N   1      25.821  27.334  -6.638  0.00  0.00    -0.238 F 
HETATM   11  C   UNK N   1      26.585  26.136  -3.406  0.00  0.00     0.036 C 
HETATM   12  C   UNK N   1      26.911  27.470  -3.989  0.00  0.00    -0.061 A 
HETATM   13  C   UNK N   1      28.020  28.918  -5.760  0.00  0.00    -0.006 A 
HETATM   14  C   UNK N   1      29.125  26.892  -4.933  0.00  0.00     0.028 C 
HETATM   15  C   UNK N   1      26.386  28.571  -3.432  0.00  0.00     0.058 A 
HETATM   16  C   UNK N   1      27.500  30.014  -5.192  0.00  0.00     0.052 A 
HETATM   17  C   UNK N   1      26.636  29.895  -4.014  0.00  0.00     0.172 A 
HETATM   18  O   UNK N   1      26.125  30.888  -3.525  0.00  0.00    -0.289 OA
HETATM   19  C   UNK N   1      25.732  22.980  -6.402  0.00  0.00     0.013 C 
HETATM   20  C   UNK N   1      26.552  22.171  -7.420  0.00  0.00     0.025 C 
HETATM   21  C   UNK N   1      27.332  23.232  -8.250  0.00  0.00     0.130 C 
HETATM   22  C   UNK N   1      25.529  21.344  -8.192  0.00  0.00     0.013 C 
ENDROOT
BRANCH  21  23
HETATM   23  C   UNK N   1      27.800  22.830  -9.648  0.00  0.00     0.175 C 
HETATM   24  O   UNK N   1      28.212  23.692 -10.410  0.00  0.00    -0.293 OA
BRANCH  23  25
HETATM   25  C   UNK N   1      27.792  21.408 -10.120  0.00  0.00     0.196 C 
HETATM   26 Cl   UNK N   1      29.061  20.477  -9.283  0.00  0.00    -0.122 Cl
ENDBRANCH  23  25
ENDBRANCH  21  23
BRANCH  21  27
HETATM   27  O   UNK N   1      28.478  23.565  -7.523  0.00  0.00    -0.381 OA
HETATM   28  H   UNK N   1      29.363  23.301  -7.226  0.00  0.00     0.211 HD
ENDBRANCH  21  27
BRANCH   6  29
HETATM   29  O   UNK N   1      28.251  27.671  -8.191  0.00  0.00    -0.392 OA
HETATM   30  H   UNK N   1      28.678  27.696  -9.061  0.00  0.00     0.210 HD
ENDBRANCH   6  29
TORSDOF 4
ENDMDL
MODEL 9
REMARK VINA RESULT:      -6.8     17.167     20.597
REMARK  4 active torsions:
REMARK  status: ('A' for Active; 'I' for Inactive)
REMARK    1  A    between atoms: C_6  and  O_9 
REMARK    2  A    between atoms: C_22  and  C_23 
REMARK    3  A    between atoms: C_22  and  O_27 
REMARK    4  A    between atoms: C_23  and  C_24 
ROOT
HETATM    1  C   UNK N   1      27.273  26.324  -4.484  0.00  0.00     0.001 C 
HETATM    2  C   UNK N   1      26.886  24.977  -5.130  0.00  0.00     0.005 C 
HETATM    3  C   UNK N   1      28.676  26.309  -3.859  0.00  0.00     0.048 C 
HETATM    4  C   UNK N   1      26.310  26.604  -3.324  0.00  0.00     0.019 C 
HETATM    5  C   UNK N   1      28.021  24.277  -5.926  0.00  0.00     0.035 C 
HETATM    6  C   UNK N   1      29.744  25.636  -4.720  0.00  0.00     0.160 C 
HETATM    7  C   UNK N   1      29.321  24.182  -5.062  0.00  0.00     0.147 C 
HETATM    8  C   UNK N   1      27.516  22.880  -6.346  0.00  0.00     0.013 C 
HETATM    9  C   UNK N   1      30.429  23.362  -5.815  0.00  0.00     0.036 A 
HETATM   10  F   UNK N   1      29.030  23.509  -3.881  0.00  0.00    -0.238 F 
HETATM   11  C   UNK N   1      28.579  22.064  -7.070  0.00  0.00     0.036 C 
HETATM   12  C   UNK N   1      29.799  22.028  -6.212  0.00  0.00    -0.061 A 
HETATM   13  C   UNK N   1      31.659  23.197  -4.932  0.00  0.00    -0.006 A 
HETATM   14  C   UNK N   1      30.882  24.076  -7.085  0.00  0.00     0.028 C 
HETATM   15  C   UNK N   1      30.248  20.846  -5.765  0.00  0.00     0.058 A 
HETATM   16  C   UNK N   1      32.107  22.012  -4.498  0.00  0.00     0.052 A 
HETATM   17  C   UNK N   1      31.411  20.777  -4.871  0.00  0.00     0.172 A 
HETATM   18  O   UNK N   1      31.790  19.704  -4.437  0.00  0.00    -0.289 OA
HETATM   19  C   UNK N   1      25.742  25.328  -6.094  0.00  0.00     0.013 C 
HETATM   20  C   UNK N   1      25.719  26.858  -6.253  0.00  0.00     0.025 C 
HETATM   21  C   UNK N   1      27.048  27.354  -5.613  0.00  0.00     0.130 C 
HETATM   22  C   UNK N   1      24.438  27.313  -5.563  0.00  0.00     0.013 C 
ENDROOT
BRANCH  21  23
HETATM   23  C   UNK N   1      27.098  28.800  -5.123  0.00  0.00     0.175 C 
HETATM   24  O   UNK N   1      27.763  29.617  -5.743  0.00  0.00    -0.293 OA
BRANCH  23  25
HETATM   25  C   UNK N   1      26.345  29.266  -3.915  0.00  0.00     0.196 C 
HETATM   26 Cl   UNK N   1      27.479  29.880  -2.684  0.00  0.00    -0.122 Cl
ENDBRANCH  23  25
ENDBRANCH  21  23
BRANCH  21  27
HETATM   27  O   UNK N   1      28.047  27.223  -6.582  0.00  0.00    -0.381 OA
HETATM   28  H   UNK N   1      28.988  27.308  -6.803  0.00  0.00     0.211 HD
ENDBRANCH  21  27
BRANCH   6  29
HETATM   29  O   UNK N   1      30.950  25.683  -4.020  0.00  0.00    -0.392 OA
HETATM   30  H   UNK N   1      31.390  26.531  -3.855  0.00  0.00     0.210 HD
ENDBRANCH   6  29
TORSDOF 4
ENDMDL
