MODEL 1
REMARK VINA RESULT:      -6.7      0.000      0.000
REMARK  7 active torsions:
REMARK  status: ('A' for Active; 'I' for Inactive)
REMARK    1  A    between atoms: O_2  and  C_3 
REMARK    2  A    between atoms: C_7  and  N_9 
REMARK    3  A    between atoms: N_9  and  C_10 
REMARK    4  A    between atoms: C_12  and  C_21 
REMARK    5  A    between atoms: C_21  and  N_22 
REMARK    6  A    between atoms: C_25  and  N_29 
REMARK    7  A    between atoms: C_26  and  O_28 
ROOT
HETATM    1  C   UNK N   1      30.466  17.034   8.377  0.00  0.00     0.136 A 
HETATM    2  C   UNK N   1      29.674  17.446   7.313  0.00  0.00     0.108 A 
HETATM    3  C   UNK N   1      29.753  17.155   5.974  0.00  0.00     0.004 A 
HETATM    4  C   UNK N   1      28.692  17.816   5.355  0.00  0.00     0.030 A 
HETATM    5  C   UNK N   1      28.009  18.490   6.370  0.00  0.00     0.117 A 
HETATM    6  N   UNK N   1      28.631  18.245   7.536  0.00  0.00    -0.263 N 
HETATM    7  N   UNK N   1      28.302  18.690   8.744  0.00  0.00    -0.289 N 
ATOM      8  HN  UNK N   1      27.495  19.301   8.872  1.00  0.00     0.188 HD
HETATM    9  C   UNK N   1      29.064  18.313   9.813  0.00  0.00     0.199 A 
HETATM   10  N   UNK N   1      30.136  17.483   9.624  0.00  0.00    -0.336 N 
ATOM     11  HN  UNK N   1      30.698  17.198  10.426  1.00  0.00     0.168 HD
ENDROOT
BRANCH   3  12
HETATM   12  C   UNK N   1      30.773  16.292   5.300  0.00  0.00     0.313 C 
BRANCH  12  13
HETATM   13  N   UNK N   1      31.642  17.097   4.442  0.00  0.00     0.095 N 
HETATM   14  C   UNK N   1      31.718  16.514   3.093  0.00  0.00     0.275 C 
HETATM   15  C   UNK N   1      32.494  15.190   3.062  0.00  0.00     0.057 C 
HETATM   16  C   UNK N   1      33.871  15.369   3.689  0.00  0.00     0.106 C 
HETATM   17  C   UNK N   1      33.701  15.894   5.107  0.00  0.00     0.168 C 
HETATM   18  C   UNK N   1      32.980  17.237   5.034  0.00  0.00     0.306 C 
BRANCH  16  19
HETATM   19  N   UNK N   1      34.566  14.095   3.704  0.00  0.00    -0.424 N 
HETATM   20  H   UNK N   1      34.539  13.299   3.067  0.00  0.00     0.150 HD
HETATM   21  H   UNK N   1      35.197  13.973   4.496  0.00  0.00     0.150 HD
ENDBRANCH  16  19
BRANCH  17  22
HETATM   22  O   UNK N   1      34.938  16.062   5.726  0.00  0.00    -0.392 OA
HETATM   23  H   UNK N   1      35.202  16.845   6.236  0.00  0.00     0.210 HD
ENDBRANCH  17  22
ENDBRANCH  12  13
ENDBRANCH   3  12
BRANCH   1  24
HETATM   24  N   UNK N   1      31.551  16.141   8.156  0.00  0.00    -0.340 N 
HETATM   25  H   UNK N   1      31.442  15.478   7.436  0.00  0.00     0.167 HD
BRANCH  24  26
HETATM   26  C   UNK N   1      32.775  16.113   8.874  0.00  0.00     0.036 A 
HETATM   27  C   UNK N   1      33.649  17.198   8.758  0.00  0.00     0.029 A 
HETATM   28  C   UNK N   1      34.878  17.188   9.422  0.00  0.00     0.005 A 
HETATM   29  C   UNK N   1      35.238  16.091  10.208  0.00  0.00     0.037 A 
HETATM   30  C   UNK N   1      34.372  15.000  10.337  0.00  0.00     0.070 A 
HETATM   31  C   UNK N   1      33.142  15.016   9.663  0.00  0.00     0.066 A 
BRANCH  30  32
HETATM   32  O   UNK N   1      34.739  13.951  11.110  0.00  0.00    -0.356 OA
HETATM   33  C   UNK N   1      35.312  14.098  12.353  0.00  0.00     0.210 C 
ENDBRANCH  30  32
ENDBRANCH  24  26
ENDBRANCH   1  24
TORSDOF 7
ENDMDL
MODEL 2
REMARK VINA RESULT:      -6.6      3.034      6.117
REMARK  7 active torsions:
REMARK  status: ('A' for Active; 'I' for Inactive)
REMARK    1  A    between atoms: O_2  and  C_3 
REMARK    2  A    between atoms: C_7  and  N_9 
REMARK    3  A    between atoms: N_9  and  C_10 
REMARK    4  A    between atoms: C_12  and  C_21 
REMARK    5  A    between atoms: C_21  and  N_22 
REMARK    6  A    between atoms: C_25  and  N_29 
REMARK    7  A    between atoms: C_26  and  O_28 
ROOT
HETATM    1  C   UNK N   1      28.305  16.674   3.356  0.00  0.00     0.136 A 
HETATM    2  C   UNK N   1      28.982  15.509   3.019  0.00  0.00     0.108 A 
HETATM    3  C   UNK N   1      30.303  15.167   3.167  0.00  0.00     0.004 A 
HETATM    4  C   UNK N   1      30.440  13.867   2.680  0.00  0.00     0.030 A 
HETATM    5  C   UNK N   1      29.169  13.478   2.251  0.00  0.00     0.117 A 
HETATM    6  N   UNK N   1      28.317  14.494   2.469  0.00  0.00    -0.263 N 
HETATM    7  N   UNK N   1      27.014  14.535   2.209  0.00  0.00    -0.289 N 
ATOM      8  HN  UNK N   1      26.542  13.735   1.786  1.00  0.00     0.188 HD
HETATM    9  C   UNK N   1      26.318  15.668   2.519  0.00  0.00     0.199 A 
HETATM   10  N   UNK N   1      26.966  16.727   3.096  0.00  0.00    -0.336 N 
ATOM     11  HN  UNK N   1      26.441  17.569   3.333  1.00  0.00     0.168 HD
ENDROOT
BRANCH   3  12
HETATM   12  C   UNK N   1      31.392  16.016   3.744  0.00  0.00     0.313 C 
BRANCH  12  13
HETATM   13  N   UNK N   1      32.254  15.222   4.620  0.00  0.00     0.095 N 
HETATM   14  C   UNK N   1      31.502  14.754   5.796  0.00  0.00     0.275 C 
HETATM   15  C   UNK N   1      31.145  15.893   6.762  0.00  0.00     0.057 C 
HETATM   16  C   UNK N   1      32.397  16.668   7.152  0.00  0.00     0.106 C 
HETATM   17  C   UNK N   1      33.067  17.187   5.888  0.00  0.00     0.168 C 
HETATM   18  C   UNK N   1      33.442  15.987   5.022  0.00  0.00     0.306 C 
BRANCH  16  19
HETATM   19  N   UNK N   1      32.032  17.774   8.018  0.00  0.00    -0.424 N 
HETATM   20  H   UNK N   1      32.590  18.511   8.451  0.00  0.00     0.150 HD
HETATM   21  H   UNK N   1      31.037  17.825   8.233  0.00  0.00     0.150 HD
ENDBRANCH  16  19
BRANCH  17  22
HETATM   22  O   UNK N   1      34.214  17.916   6.196  0.00  0.00    -0.392 OA
HETATM   23  H   UNK N   1      35.078  17.796   5.772  0.00  0.00     0.210 HD
ENDBRANCH  17  22
ENDBRANCH  12  13
ENDBRANCH   3  12
BRANCH   1  24
HETATM   24  N   UNK N   1      28.997  17.744   3.990  0.00  0.00    -0.340 N 
HETATM   25  H   UNK N   1      29.931  17.893   3.717  0.00  0.00     0.167 HD
BRANCH  24  26
HETATM   26  C   UNK N   1      28.470  18.617   4.977  0.00  0.00     0.036 A 
HETATM   27  C   UNK N   1      27.937  19.845   4.575  0.00  0.00     0.029 A 
HETATM   28  C   UNK N   1      27.444  20.744   5.524  0.00  0.00     0.005 A 
HETATM   29  C   UNK N   1      27.478  20.416   6.882  0.00  0.00     0.037 A 
HETATM   30  C   UNK N   1      28.003  19.189   7.298  0.00  0.00     0.070 A 
HETATM   31  C   UNK N   1      28.502  18.294   6.339  0.00  0.00     0.066 A 
BRANCH  30  32
HETATM   32  O   UNK N   1      28.020  18.889   8.618  0.00  0.00    -0.356 OA
HETATM   33  C   UNK N   1      28.136  17.603   9.095  0.00  0.00     0.210 C 
ENDBRANCH  30  32
ENDBRANCH  24  26
ENDBRANCH   1  24
TORSDOF 7
ENDMDL
MODEL 3
REMARK VINA RESULT:      -6.5      7.528     10.721
REMARK  7 active torsions:
REMARK  status: ('A' for Active; 'I' for Inactive)
REMARK    1  A    between atoms: O_2  and  C_3 
REMARK    2  A    between atoms: C_7  and  N_9 
REMARK    3  A    between atoms: N_9  and  C_10 
REMARK    4  A    between atoms: C_12  and  C_21 
REMARK    5  A    between atoms: C_21  and  N_22 
REMARK    6  A    between atoms: C_25  and  N_29 
REMARK    7  A    between atoms: C_26  and  O_28 
ROOT
HETATM    1  C   UNK N   1      21.168  17.776   3.982  0.00  0.00     0.136 A 
HETATM    2  C   UNK N   1      21.738  18.903   3.405  0.00  0.00     0.108 A 
HETATM    3  C   UNK N   1      22.980  19.464   3.574  0.00  0.00     0.004 A 
HETATM    4  C   UNK N   1      23.038  20.575   2.732  0.00  0.00     0.030 A 
HETATM    5  C   UNK N   1      21.803  20.634   2.082  0.00  0.00     0.117 A 
HETATM    6  N   UNK N   1      21.046  19.612   2.515  0.00  0.00    -0.263 N 
HETATM    7  N   UNK N   1      19.807  19.303   2.145  0.00  0.00    -0.289 N 
ATOM      8  HN  UNK N   1      19.311  19.873   1.460  1.00  0.00     0.188 HD
HETATM    9  C   UNK N   1      19.211  18.206   2.700  0.00  0.00     0.199 A 
HETATM   10  N   UNK N   1      19.896  17.447   3.609  0.00  0.00    -0.336 N 
ATOM     11  HN  UNK N   1      19.450  16.624   4.015  1.00  0.00     0.168 HD
ENDROOT
BRANCH   3  12
HETATM   12  C   UNK N   1      24.070  18.980   4.479  0.00  0.00     0.313 C 
BRANCH  12  13
HETATM   13  N   UNK N   1      25.372  19.096   3.824  0.00  0.00     0.095 N 
HETATM   14  C   UNK N   1      26.170  17.879   4.042  0.00  0.00     0.275 C 
HETATM   15  C   UNK N   1      26.635  17.728   5.497  0.00  0.00     0.057 C 
HETATM   16  C   UNK N   1      27.368  18.984   5.951  0.00  0.00     0.106 C 
HETATM   17  C   UNK N   1      26.447  20.182   5.772  0.00  0.00     0.168 C 
HETATM   18  C   UNK N   1      26.090  20.290   4.292  0.00  0.00     0.306 C 
BRANCH  16  19
HETATM   19  N   UNK N   1      27.748  18.846   7.345  0.00  0.00    -0.424 N 
HETATM   20  H   UNK N   1      28.053  19.530   8.037  0.00  0.00     0.150 HD
HETATM   21  H   UNK N   1      27.703  17.890   7.697  0.00  0.00     0.150 HD
ENDBRANCH  16  19
BRANCH  17  22
HETATM   22  O   UNK N   1      27.072  21.356   6.187  0.00  0.00    -0.392 OA
HETATM   23  H   UNK N   1      26.621  22.201   6.341  0.00  0.00     0.210 HD
ENDBRANCH  17  22
ENDBRANCH  12  13
ENDBRANCH   3  12
BRANCH   1  24
HETATM   24  N   UNK N   1      21.918  16.984   4.896  0.00  0.00    -0.340 N 
HETATM   25  H   UNK N   1      22.803  16.674   4.594  0.00  0.00     0.167 HD
BRANCH  24  26
HETATM   26  C   UNK N   1      21.514  16.596   6.200  0.00  0.00     0.036 A 
HETATM   27  C   UNK N   1      21.944  15.363   6.699  0.00  0.00     0.029 A 
HETATM   28  C   UNK N   1      21.536  14.933   7.964  0.00  0.00     0.005 A 
HETATM   29  C   UNK N   1      20.696  15.738   8.738  0.00  0.00     0.037 A 
HETATM   30  C   UNK N   1      20.262  16.976   8.254  0.00  0.00     0.070 A 
HETATM   31  C   UNK N   1      20.672  17.398   6.980  0.00  0.00     0.066 A 
BRANCH  30  32
HETATM   32  O   UNK N   1      19.455  17.742   9.025  0.00  0.00    -0.356 OA
HETATM   33  C   UNK N   1      18.165  17.384   9.348  0.00  0.00     0.210 C 
ENDBRANCH  30  32
ENDBRANCH  24  26
ENDBRANCH   1  24
TORSDOF 7
ENDMDL
MODEL 4
REMARK VINA RESULT:      -6.4      3.262      6.211
REMARK  7 active torsions:
REMARK  status: ('A' for Active; 'I' for Inactive)
REMARK    1  A    between atoms: O_2  and  C_3 
REMARK    2  A    between atoms: C_7  and  N_9 
REMARK    3  A    between atoms: N_9  and  C_10 
REMARK    4  A    between atoms: C_12  and  C_21 
REMARK    5  A    between atoms: C_21  and  N_22 
REMARK    6  A    between atoms: C_25  and  N_29 
REMARK    7  A    between atoms: C_26  and  O_28 
ROOT
HETATM    1  C   UNK N   1      30.794  15.738   3.559  0.00  0.00     0.136 A 
HETATM    2  C   UNK N   1      29.535  15.434   3.058  0.00  0.00     0.108 A 
HETATM    3  C   UNK N   1      28.371  16.163   3.060  0.00  0.00     0.004 A 
HETATM    4  C   UNK N   1      27.412  15.392   2.402  0.00  0.00     0.030 A 
HETATM    5  C   UNK N   1      28.055  14.210   2.027  0.00  0.00     0.117 A 
HETATM    6  N   UNK N   1      29.332  14.271   2.441  0.00  0.00    -0.263 N 
HETATM    7  N   UNK N   1      30.284  13.357   2.282  0.00  0.00    -0.289 N 
ATOM      8  HN  UNK N   1      30.087  12.478   1.804  1.00  0.00     0.188 HD
HETATM    9  C   UNK N   1      31.532  13.618   2.771  0.00  0.00     0.199 A 
HETATM   10  N   UNK N   1      31.781  14.808   3.400  0.00  0.00    -0.336 N 
ATOM     11  HN  UNK N   1      32.716  15.002   3.757  1.00  0.00     0.168 HD
ENDROOT
BRANCH   3  12
HETATM   12  C   UNK N   1      28.164  17.524   3.646  0.00  0.00     0.313 C 
BRANCH  12  13
HETATM   13  N   UNK N   1      26.794  17.668   4.140  0.00  0.00     0.095 N 
HETATM   14  C   UNK N   1      26.144  18.835   3.522  0.00  0.00     0.275 C 
HETATM   15  C   UNK N   1      26.728  20.168   4.012  0.00  0.00     0.057 C 
HETATM   16  C   UNK N   1      26.696  20.231   5.534  0.00  0.00     0.106 C 
HETATM   17  C   UNK N   1      27.460  19.039   6.091  0.00  0.00     0.168 C 
HETATM   18  C   UNK N   1      26.773  17.765   5.606  0.00  0.00     0.306 C 
BRANCH  16  19
HETATM   19  N   UNK N   1      27.305  21.471   5.980  0.00  0.00    -0.424 N 
HETATM   20  H   UNK N   1      26.966  22.434   5.978  0.00  0.00     0.150 HD
HETATM   21  H   UNK N   1      28.243  21.361   6.366  0.00  0.00     0.150 HD
ENDBRANCH  16  19
BRANCH  17  22
HETATM   22  O   UNK N   1      27.469  19.061   7.485  0.00  0.00    -0.392 OA
HETATM   23  H   UNK N   1      27.631  18.291   8.051  0.00  0.00     0.210 HD
ENDBRANCH  17  22
ENDBRANCH  12  13
ENDBRANCH   3  12
BRANCH   1  24
HETATM   24  N   UNK N   1      31.033  16.998   4.174  0.00  0.00    -0.340 N 
HETATM   25  H   UNK N   1      30.942  17.796   3.604  0.00  0.00     0.167 HD
BRANCH  24  26
HETATM   26  C   UNK N   1      31.391  17.217   5.530  0.00  0.00     0.036 A 
HETATM   27  C   UNK N   1      32.743  17.367   5.853  0.00  0.00     0.029 A 
HETATM   28  C   UNK N   1      33.135  17.547   7.182  0.00  0.00     0.005 A 
HETATM   29  C   UNK N   1      32.174  17.581   8.195  0.00  0.00     0.037 A 
HETATM   30  C   UNK N   1      30.818  17.438   7.886  0.00  0.00     0.070 A 
HETATM   31  C   UNK N   1      30.433  17.252   6.550  0.00  0.00     0.066 A 
BRANCH  30  32
HETATM   32  O   UNK N   1      29.903  17.482   8.884  0.00  0.00    -0.356 OA
HETATM   33  C   UNK N   1      29.797  18.539   9.760  0.00  0.00     0.210 C 
ENDBRANCH  30  32
ENDBRANCH  24  26
ENDBRANCH   1  24
TORSDOF 7
ENDMDL
MODEL 5
REMARK VINA RESULT:      -6.4      1.797      4.784
REMARK  7 active torsions:
REMARK  status: ('A' for Active; 'I' for Inactive)
REMARK    1  A    between atoms: O_2  and  C_3 
REMARK    2  A    between atoms: C_7  and  N_9 
REMARK    3  A    between atoms: N_9  and  C_10 
REMARK    4  A    between atoms: C_12  and  C_21 
REMARK    5  A    between atoms: C_21  and  N_22 
REMARK    6  A    between atoms: C_25  and  N_29 
REMARK    7  A    between atoms: C_26  and  O_28 
ROOT
HETATM    1  C   UNK N   1      29.092  16.712   6.058  0.00  0.00     0.136 A 
HETATM    2  C   UNK N   1      29.345  17.400   7.237  0.00  0.00     0.108 A 
HETATM    3  C   UNK N   1      30.352  17.256   8.159  0.00  0.00     0.004 A 
HETATM    4  C   UNK N   1      30.141  18.222   9.142  0.00  0.00     0.030 A 
HETATM    5  C   UNK N   1      28.991  18.918   8.761  0.00  0.00     0.117 A 
HETATM    6  N   UNK N   1      28.539  18.394   7.610  0.00  0.00    -0.263 N 
HETATM    7  N   UNK N   1      27.475  18.767   6.907  0.00  0.00    -0.289 N 
ATOM      8  HN  UNK N   1      26.882  19.534   7.227  1.00  0.00     0.188 HD
HETATM    9  C   UNK N   1      27.189  18.107   5.746  0.00  0.00     0.199 A 
HETATM   10  N   UNK N   1      28.002  17.089   5.326  0.00  0.00    -0.336 N 
ATOM     11  HN  UNK N   1      27.790  16.603   4.454  1.00  0.00     0.168 HD
ENDROOT
BRANCH   3  12
HETATM   12  C   UNK N   1      31.470  16.260   8.120  0.00  0.00     0.313 C 
BRANCH  12  13
HETATM   13  N   UNK N   1      32.684  16.827   8.707  0.00  0.00     0.095 N 
HETATM   14  C   UNK N   1      33.356  17.715   7.745  0.00  0.00     0.275 C 
HETATM   15  C   UNK N   1      33.980  16.949   6.569  0.00  0.00     0.057 C 
HETATM   16  C   UNK N   1      34.905  15.854   7.084  0.00  0.00     0.106 C 
HETATM   17  C   UNK N   1      34.115  14.934   8.002  0.00  0.00     0.168 C 
HETATM   18  C   UNK N   1      33.589  15.766   9.169  0.00  0.00     0.306 C 
BRANCH  16  19
HETATM   19  N   UNK N   1      35.440  15.105   5.961  0.00  0.00    -0.424 N 
HETATM   20  H   UNK N   1      34.983  14.607   5.196  0.00  0.00     0.150 HD
HETATM   21  H   UNK N   1      36.459  15.068   5.931  0.00  0.00     0.150 HD
ENDBRANCH  16  19
BRANCH  17  22
HETATM   22  O   UNK N   1      34.919  13.906   8.489  0.00  0.00    -0.392 OA
HETATM   23  H   UNK N   1      34.789  13.452   9.337  0.00  0.00     0.210 HD
ENDBRANCH  17  22
ENDBRANCH  12  13
ENDBRANCH   3  12
BRANCH   1  24
HETATM   24  N   UNK N   1      29.975  15.684   5.627  0.00  0.00    -0.340 N 
HETATM   25  H   UNK N   1      29.814  14.780   5.984  0.00  0.00     0.167 HD
BRANCH  24  26
HETATM   26  C   UNK N   1      31.067  15.835   4.733  0.00  0.00     0.036 A 
HETATM   27  C   UNK N   1      31.244  17.062   4.087  0.00  0.00     0.029 A 
HETATM   28  C   UNK N   1      32.287  17.234   3.173  0.00  0.00     0.005 A 
HETATM   29  C   UNK N   1      33.161  16.178   2.903  0.00  0.00     0.037 A 
HETATM   30  C   UNK N   1      32.999  14.946   3.545  0.00  0.00     0.070 A 
HETATM   31  C   UNK N   1      31.946  14.780   4.458  0.00  0.00     0.066 A 
BRANCH  30  32
HETATM   32  O   UNK N   1      33.862  13.939   3.273  0.00  0.00    -0.356 OA
HETATM   33  C   UNK N   1      34.736  13.966   2.210  0.00  0.00     0.210 C 
ENDBRANCH  30  32
ENDBRANCH  24  26
ENDBRANCH   1  24
TORSDOF 7
ENDMDL
MODEL 6
REMARK VINA RESULT:      -6.4      3.092      6.091
REMARK  7 active torsions:
REMARK  status: ('A' for Active; 'I' for Inactive)
REMARK    1  A    between atoms: O_2  and  C_3 
REMARK    2  A    between atoms: C_7  and  N_9 
REMARK    3  A    between atoms: N_9  and  C_10 
REMARK    4  A    between atoms: C_12  and  C_21 
REMARK    5  A    between atoms: C_21  and  N_22 
REMARK    6  A    between atoms: C_25  and  N_29 
REMARK    7  A    between atoms: C_26  and  O_28 
ROOT
HETATM    1  C   UNK N   1      28.277  18.623   5.224  0.00  0.00     0.136 A 
HETATM    2  C   UNK N   1      28.590  18.253   6.525  0.00  0.00     0.108 A 
HETATM    3  C   UNK N   1      29.381  17.236   7.001  0.00  0.00     0.004 A 
HETATM    4  C   UNK N   1      29.368  17.333   8.392  0.00  0.00     0.030 A 
HETATM    5  C   UNK N   1      28.553  18.426   8.698  0.00  0.00     0.117 A 
HETATM    6  N   UNK N   1      28.101  18.954   7.547  0.00  0.00    -0.263 N 
HETATM    7  N   UNK N   1      27.303  20.005   7.392  0.00  0.00    -0.289 N 
ATOM      8  HN  UNK N   1      26.949  20.514   8.202  1.00  0.00     0.188 HD
HETATM    9  C   UNK N   1      26.966  20.392   6.127  0.00  0.00     0.199 A 
HETATM   10  N   UNK N   1      27.459  19.703   5.051  0.00  0.00    -0.336 N 
ATOM     11  HN  UNK N   1      27.211  20.000   4.107  1.00  0.00     0.168 HD
ENDROOT
BRANCH   3  12
HETATM   12  C   UNK N   1      30.122  16.220   6.189  0.00  0.00     0.313 C 
BRANCH  12  13
HETATM   13  N   UNK N   1      31.531  16.177   6.582  0.00  0.00     0.095 N 
HETATM   14  C   UNK N   1      32.239  17.370   6.090  0.00  0.00     0.275 C 
HETATM   15  C   UNK N   1      32.404  17.374   4.564  0.00  0.00     0.057 C 
HETATM   16  C   UNK N   1      33.064  16.082   4.100  0.00  0.00     0.106 C 
HETATM   17  C   UNK N   1      32.227  14.904   4.576  0.00  0.00     0.168 C 
HETATM   18  C   UNK N   1      32.172  14.945   6.101  0.00  0.00     0.306 C 
BRANCH  16  19
HETATM   19  N   UNK N   1      33.159  16.079   2.652  0.00  0.00    -0.424 N 
HETATM   20  H   UNK N   1      32.848  15.405   1.952  0.00  0.00     0.150 HD
HETATM   21  H   UNK N   1      33.622  16.900   2.262  0.00  0.00     0.150 HD
ENDBRANCH  16  19
BRANCH  17  22
HETATM   22  O   UNK N   1      32.788  13.697   4.163  0.00  0.00    -0.392 OA
HETATM   23  H   UNK N   1      33.111  13.002   4.758  0.00  0.00     0.210 HD
ENDBRANCH  17  22
ENDBRANCH  12  13
ENDBRANCH   3  12
BRANCH   1  24
HETATM   24  N   UNK N   1      28.835  17.912   4.125  0.00  0.00    -0.340 N 
HETATM   25  H   UNK N   1      29.741  18.173   3.841  0.00  0.00     0.167 HD
BRANCH  24  26
HETATM   26  C   UNK N   1      28.211  16.866   3.398  0.00  0.00     0.036 A 
HETATM   27  C   UNK N   1      26.815  16.812   3.358  0.00  0.00     0.029 A 
HETATM   28  C   UNK N   1      26.167  15.775   2.682  0.00  0.00     0.005 A 
HETATM   29  C   UNK N   1      26.916  14.786   2.038  0.00  0.00     0.037 A 
HETATM   30  C   UNK N   1      28.313  14.829   2.065  0.00  0.00     0.070 A 
HETATM   31  C   UNK N   1      28.956  15.872   2.751  0.00  0.00     0.066 A 
BRANCH  30  32
HETATM   32  O   UNK N   1      29.018  13.864   1.429  0.00  0.00    -0.356 OA
HETATM   33  C   UNK N   1      29.860  12.994   2.084  0.00  0.00     0.210 C 
ENDBRANCH  30  32
ENDBRANCH  24  26
ENDBRANCH   1  24
TORSDOF 7
ENDMDL
MODEL 7
REMARK VINA RESULT:      -6.3     12.832     15.608
REMARK  7 active torsions:
REMARK  status: ('A' for Active; 'I' for Inactive)
REMARK    1  A    between atoms: O_2  and  C_3 
REMARK    2  A    between atoms: C_7  and  N_9 
REMARK    3  A    between atoms: N_9  and  C_10 
REMARK    4  A    between atoms: C_12  and  C_21 
REMARK    5  A    between atoms: C_21  and  N_22 
REMARK    6  A    between atoms: C_25  and  N_29 
REMARK    7  A    between atoms: C_26  and  O_28 
ROOT
HETATM    1  C   UNK N   1      27.393  24.854  -4.509  0.00  0.00     0.136 A 
HETATM    2  C   UNK N   1      26.529  25.922  -4.715  0.00  0.00     0.108 A 
HETATM    3  C   UNK N   1      26.548  27.198  -4.210  0.00  0.00     0.004 A 
HETATM    4  C   UNK N   1      25.456  27.867  -4.764  0.00  0.00     0.030 A 
HETATM    5  C   UNK N   1      24.815  26.943  -5.593  0.00  0.00     0.117 A 
HETATM    6  N   UNK N   1      25.490  25.782  -5.537  0.00  0.00    -0.263 N 
HETATM    7  N   UNK N   1      25.218  24.650  -6.178  0.00  0.00    -0.289 N 
ATOM      8  HN  UNK N   1      24.411  24.585  -6.799  1.00  0.00     0.188 HD
HETATM    9  C   UNK N   1      26.041  23.577  -5.992  0.00  0.00     0.199 A 
HETATM   10  N   UNK N   1      27.126  23.686  -5.164  0.00  0.00    -0.336 N 
ATOM     11  HN  UNK N   1      27.742  22.884  -5.034  1.00  0.00     0.168 HD
ENDROOT
BRANCH   3  12
HETATM   12  C   UNK N   1      27.547  27.773  -3.254  0.00  0.00     0.313 C 
BRANCH  12  13
HETATM   13  N   UNK N   1      28.254  28.899  -3.865  0.00  0.00     0.095 N 
HETATM   14  C   UNK N   1      29.540  28.456  -4.427  0.00  0.00     0.275 C 
HETATM   15  C   UNK N   1      30.561  28.077  -3.344  0.00  0.00     0.057 C 
HETATM   16  C   UNK N   1      30.730  29.222  -2.353  0.00  0.00     0.106 C 
HETATM   17  C   UNK N   1      29.371  29.561  -1.758  0.00  0.00     0.168 C 
HETATM   18  C   UNK N   1      28.446  29.985  -2.895  0.00  0.00     0.306 C 
BRANCH  16  19
HETATM   19  N   UNK N   1      31.653  28.823  -1.307  0.00  0.00    -0.424 N 
HETATM   20  H   UNK N   1      31.835  27.920  -0.868  0.00  0.00     0.150 HD
HETATM   21  H   UNK N   1      32.224  29.585  -0.942  0.00  0.00     0.150 HD
ENDBRANCH  16  19
BRANCH  17  22
HETATM   22  O   UNK N   1      29.479  30.598  -0.833  0.00  0.00    -0.392 OA
HETATM   23  H   UNK N   1      30.008  31.401  -0.959  0.00  0.00     0.210 HD
ENDBRANCH  17  22
ENDBRANCH  12  13
ENDBRANCH   3  12
BRANCH   1  24
HETATM   24  N   UNK N   1      28.533  25.009  -3.673  0.00  0.00    -0.340 N 
HETATM   25  H   UNK N   1      28.437  25.604  -2.894  0.00  0.00     0.167 HD
BRANCH  24  26
HETATM   26  C   UNK N   1      29.798  24.391  -3.854  0.00  0.00     0.036 A 
HETATM   27  C   UNK N   1      30.573  24.754  -4.959  0.00  0.00     0.029 A 
HETATM   28  C   UNK N   1      31.807  24.139  -5.188  0.00  0.00     0.005 A 
HETATM   29  C   UNK N   1      32.273  23.158  -4.309  0.00  0.00     0.037 A 
HETATM   30  C   UNK N   1      31.511  22.789  -3.196  0.00  0.00     0.070 A 
HETATM   31  C   UNK N   1      30.270  23.408  -2.976  0.00  0.00     0.066 A 
BRANCH  30  32
HETATM   32  O   UNK N   1      31.985  21.842  -2.353  0.00  0.00    -0.356 OA
HETATM   33  C   UNK N   1      33.118  21.104  -2.614  0.00  0.00     0.210 C 
ENDBRANCH  30  32
ENDBRANCH  24  26
ENDBRANCH   1  24
TORSDOF 7
ENDMDL
MODEL 8
REMARK VINA RESULT:      -6.3     12.776     16.201
REMARK  7 active torsions:
REMARK  status: ('A' for Active; 'I' for Inactive)
REMARK    1  A    between atoms: O_2  and  C_3 
REMARK    2  A    between atoms: C_7  and  N_9 
REMARK    3  A    between atoms: N_9  and  C_10 
REMARK    4  A    between atoms: C_12  and  C_21 
REMARK    5  A    between atoms: C_21  and  N_22 
REMARK    6  A    between atoms: C_25  and  N_29 
REMARK    7  A    between atoms: C_26  and  O_28 
ROOT
HETATM    1  C   UNK N   1      26.153  25.014  -5.342  0.00  0.00     0.136 A 
HETATM    2  C   UNK N   1      27.185  25.819  -4.879  0.00  0.00     0.108 A 
HETATM    3  C   UNK N   1      28.445  25.494  -4.440  0.00  0.00     0.004 A 
HETATM    4  C   UNK N   1      29.079  26.693  -4.113  0.00  0.00     0.030 A 
HETATM    5  C   UNK N   1      28.153  27.706  -4.374  0.00  0.00     0.117 A 
HETATM    6  N   UNK N   1      27.023  27.140  -4.832  0.00  0.00    -0.263 N 
HETATM    7  N   UNK N   1      25.901  27.748  -5.202  0.00  0.00    -0.289 N 
ATOM      8  HN  UNK N   1      25.817  28.764  -5.150  1.00  0.00     0.188 HD
HETATM    9  C   UNK N   1      24.861  26.987  -5.654  0.00  0.00     0.199 A 
HETATM   10  N   UNK N   1      24.995  25.627  -5.728  0.00  0.00    -0.336 N 
ATOM     11  HN  UNK N   1      24.218  25.063  -6.073  1.00  0.00     0.168 HD
ENDROOT
BRANCH   3  12
HETATM   12  C   UNK N   1      29.035  24.122  -4.336  0.00  0.00     0.313 C 
BRANCH  12  13
HETATM   13  N   UNK N   1      30.440  24.134  -4.743  0.00  0.00     0.095 N 
HETATM   14  C   UNK N   1      30.648  23.254  -5.904  0.00  0.00     0.275 C 
HETATM   15  C   UNK N   1      30.502  21.767  -5.554  0.00  0.00     0.057 C 
HETATM   16  C   UNK N   1      31.415  21.406  -4.389  0.00  0.00     0.106 C 
HETATM   17  C   UNK N   1      31.079  22.302  -3.206  0.00  0.00     0.168 C 
HETATM   18  C   UNK N   1      31.313  23.751  -3.626  0.00  0.00     0.306 C 
BRANCH  16  19
HETATM   19  N   UNK N   1      31.221  20.012  -4.035  0.00  0.00    -0.424 N 
HETATM   20  H   UNK N   1      30.817  19.570  -3.208  0.00  0.00     0.150 HD
HETATM   21  H   UNK N   1      31.547  19.353  -4.741  0.00  0.00     0.150 HD
ENDBRANCH  16  19
BRANCH  17  22
HETATM   22  O   UNK N   1      31.883  21.999  -2.109  0.00  0.00    -0.392 OA
HETATM   23  H   UNK N   1      32.528  21.275  -2.077  0.00  0.00     0.210 HD
ENDBRANCH  17  22
ENDBRANCH  12  13
ENDBRANCH   3  12
BRANCH   1  24
HETATM   24  N   UNK N   1      26.335  23.607  -5.444  0.00  0.00    -0.340 N 
HETATM   25  H   UNK N   1      26.488  23.116  -4.603  0.00  0.00     0.167 HD
BRANCH  24  26
HETATM   26  C   UNK N   1      26.317  22.841  -6.638  0.00  0.00     0.036 A 
HETATM   27  C   UNK N   1      25.206  22.035  -6.905  0.00  0.00     0.029 A 
HETATM   28  C   UNK N   1      25.171  21.240  -8.054  0.00  0.00     0.005 A 
HETATM   29  C   UNK N   1      26.247  21.251  -8.944  0.00  0.00     0.037 A 
HETATM   30  C   UNK N   1      27.362  22.057  -8.694  0.00  0.00     0.070 A 
HETATM   31  C   UNK N   1      27.392  22.848  -7.535  0.00  0.00     0.066 A 
BRANCH  30  32
HETATM   32  O   UNK N   1      28.391  22.057  -9.574  0.00  0.00    -0.356 OA
HETATM   33  C   UNK N   1      29.632  21.539  -9.279  0.00  0.00     0.210 C 
ENDBRANCH  30  32
ENDBRANCH  24  26
ENDBRANCH   1  24
TORSDOF 7
ENDMDL
MODEL 9
REMARK VINA RESULT:      -6.2      6.401     10.361
REMARK  7 active torsions:
REMARK  status: ('A' for Active; 'I' for Inactive)
REMARK    1  A    between atoms: O_2  and  C_3 
REMARK    2  A    between atoms: C_7  and  N_9 
REMARK    3  A    between atoms: N_9  and  C_10 
REMARK    4  A    between atoms: C_12  and  C_21 
REMARK    5  A    between atoms: C_21  and  N_22 
REMARK    6  A    between atoms: C_25  and  N_29 
REMARK    7  A    between atoms: C_26  and  O_28 
ROOT
HETATM    1  C   UNK N   1      36.799  14.283  14.980  0.00  0.00     0.136 A 
HETATM    2  C   UNK N   1      36.123  13.756  16.072  0.00  0.00     0.108 A 
HETATM    3  C   UNK N   1      35.421  12.584  16.209  0.00  0.00     0.004 A 
HETATM    4  C   UNK N   1      34.964  12.539  17.525  0.00  0.00     0.030 A 
HETATM    5  C   UNK N   1      35.419  13.712  18.134  0.00  0.00     0.117 A 
HETATM    6  N   UNK N   1      36.112  14.420  17.226  0.00  0.00    -0.263 N 
HETATM    7  N   UNK N   1      36.716  15.591  17.396  0.00  0.00    -0.289 N 
ATOM      8  HN  UNK N   1      36.683  16.068  18.298  1.00  0.00     0.188 HD
HETATM    9  C   UNK N   1      37.383  16.145  16.341  0.00  0.00     0.199 A 
HETATM   10  N   UNK N   1      37.426  15.486  15.142  0.00  0.00    -0.336 N 
ATOM     11  HN  UNK N   1      37.932  15.899  14.359  1.00  0.00     0.168 HD
ENDROOT
BRANCH   3  12
HETATM   12  C   UNK N   1      35.192  11.545  15.155  0.00  0.00     0.313 C 
BRANCH  12  13
HETATM   13  N   UNK N   1      35.684  10.242  15.603  0.00  0.00     0.095 N 
HETATM   14  C   UNK N   1      37.152  10.251  15.702  0.00  0.00     0.275 C 
HETATM   15  C   UNK N   1      37.838  10.321  14.331  0.00  0.00     0.057 C 
HETATM   16  C   UNK N   1      37.331   9.202  13.429  0.00  0.00     0.106 C 
HETATM   17  C   UNK N   1      35.818   9.314  13.311  0.00  0.00     0.168 C 
HETATM   18  C   UNK N   1      35.221   9.171  14.709  0.00  0.00     0.306 C 
BRANCH  16  19
HETATM   19  N   UNK N   1      37.947   9.319  12.120  0.00  0.00    -0.424 N 
HETATM   20  H   UNK N   1      37.932  10.067  11.426  0.00  0.00     0.150 HD
HETATM   21  H   UNK N   1      38.494   8.505  11.842  0.00  0.00     0.150 HD
ENDBRANCH  16  19
BRANCH  17  22
HETATM   22  O   UNK N   1      35.309   8.316  12.483  0.00  0.00    -0.392 OA
HETATM   23  H   UNK N   1      35.788   7.514  12.221  0.00  0.00     0.210 HD
ENDBRANCH  17  22
ENDBRANCH  12  13
ENDBRANCH   3  12
BRANCH   1  24
HETATM   24  N   UNK N   1      36.859  13.558  13.757  0.00  0.00    -0.340 N 
HETATM   25  H   UNK N   1      37.410  12.741  13.751  0.00  0.00     0.167 HD
BRANCH  24  26
HETATM   26  C   UNK N   1      36.202  13.897  12.546  0.00  0.00     0.036 A 
HETATM   27  C   UNK N   1      35.556  12.889  11.825  0.00  0.00     0.029 A 
HETATM   28  C   UNK N   1      34.931  13.181  10.610  0.00  0.00     0.005 A 
HETATM   29  C   UNK N   1      34.947  14.486  10.111  0.00  0.00     0.037 A 
HETATM   30  C   UNK N   1      35.585  15.506  10.824  0.00  0.00     0.070 A 
HETATM   31  C   UNK N   1      36.216  15.203  12.041  0.00  0.00     0.066 A 
BRANCH  30  32
HETATM   32  O   UNK N   1      35.583  16.765  10.325  0.00  0.00    -0.356 OA
HETATM   33  C   UNK N   1      34.730  17.174   9.324  0.00  0.00     0.210 C 
ENDBRANCH  30  32
ENDBRANCH  24  26
ENDBRANCH   1  24
TORSDOF 7
ENDMDL
