MODEL 1
REMARK VINA RESULT:      -7.0      0.000      0.000
REMARK  3 active torsions:
REMARK  status: ('A' for Active; 'I' for Inactive)
REMARK    1  A    between atoms: C_2  and  C_3 
REMARK       I    between atoms: C_2  and  N_16 
REMARK    2  A    between atoms: C_4  and  O_5 
REMARK    3  A    between atoms: N_16  and  C_17 
ROOT
HETATM    1  C   UNK N   1      29.547  22.984  -4.322  0.00  0.00     0.134 A 
HETATM    2  C   UNK N   1      30.646  22.814  -3.440  0.00  0.00     0.099 A 
HETATM    3  C   UNK N   1      31.593  21.813  -3.678  0.00  0.00     0.025 A 
HETATM    4  C   UNK N   1      31.479  20.993  -4.819  0.00  0.00     0.050 A 
HETATM    5  N   UNK N   1      30.448  21.184  -5.698  0.00  0.00    -0.317 N 
HETATM    6  C   UNK N   1      30.347  20.349  -6.897  0.00  0.00     0.159 C 
HETATM    7  C   UNK N   1      29.491  22.155  -5.475  0.00  0.00     0.266 A 
HETATM    8  O   UNK N   1      28.577  22.290  -6.276  0.00  0.00    -0.267 OA
HETATM    9  C   UNK N   1      32.447  19.996  -5.043  0.00  0.00     0.031 A 
HETATM   10  C   UNK N   1      33.505  19.816  -4.148  0.00  0.00     0.002 A 
HETATM   11  C   UNK N   1      33.614  20.633  -3.023  0.00  0.00     0.001 A 
HETATM   12  C   UNK N   1      32.666  21.630  -2.792  0.00  0.00     0.016 A 
ENDROOT
BRANCH   1  13
HETATM   13  C   UNK N   1      28.482  24.053  -4.122  0.00  0.00     0.266 C 
HETATM   14  O   UNK N   1      27.628  23.825  -3.277  0.00  0.00    -0.267 OA
HETATM   15  N   UNK N   1      28.446  25.251  -4.821  0.00  0.00    -0.318 N 
HETATM   16  C   UNK N   1      29.565  25.645  -5.650  0.00  0.00     0.159 C 
BRANCH  15  17
HETATM   17  C   UNK N   1      27.363  26.202  -4.695  0.00  0.00     0.037 A 
HETATM   18  C   UNK N   1      27.356  27.214  -3.716  0.00  0.00     0.029 A 
HETATM   19  C   UNK N   1      26.286  28.106  -3.608  0.00  0.00     0.002 A 
HETATM   20  C   UNK N   1      25.193  27.993  -4.468  0.00  0.00     0.000 A 
HETATM   21  C   UNK N   1      25.174  26.995  -5.441  0.00  0.00     0.002 A 
HETATM   22  C   UNK N   1      26.250  26.112  -5.557  0.00  0.00     0.029 A 
ENDBRANCH  15  17
ENDBRANCH   1  13
BRANCH   2  23
HETATM   23  O   UNK N   1      30.837  23.638  -2.393  0.00  0.00    -0.359 OA
HETATM   24  H   UNK N   1      31.041  24.545  -2.508  0.00  0.00     0.217 HD
ENDBRANCH   2  23
TORSDOF 3
ENDMDL
MODEL 2
REMARK VINA RESULT:      -6.9     15.082     18.793
REMARK  3 active torsions:
REMARK  status: ('A' for Active; 'I' for Inactive)
REMARK    1  A    between atoms: C_2  and  C_3 
REMARK       I    between atoms: C_2  and  N_16 
REMARK    2  A    between atoms: C_4  and  O_5 
REMARK    3  A    between atoms: N_16  and  C_17 
ROOT
HETATM    1  C   UNK N   1      34.605  15.269   9.575  0.00  0.00     0.134 A 
HETATM    2  C   UNK N   1      34.211  14.555   8.413  0.00  0.00     0.099 A 
HETATM    3  C   UNK N   1      33.930  15.239   7.226  0.00  0.00     0.025 A 
HETATM    4  C   UNK N   1      34.075  16.640   7.170  0.00  0.00     0.050 A 
HETATM    5  N   UNK N   1      34.500  17.329   8.273  0.00  0.00    -0.317 N 
HETATM    6  C   UNK N   1      34.676  18.780   8.204  0.00  0.00     0.159 C 
HETATM    7  C   UNK N   1      34.767  16.676   9.461  0.00  0.00     0.266 A 
HETATM    8  O   UNK N   1      35.135  17.325  10.430  0.00  0.00    -0.267 OA
HETATM    9  C   UNK N   1      33.793  17.308   5.963  0.00  0.00     0.031 A 
HETATM   10  C   UNK N   1      33.372  16.597   4.836  0.00  0.00     0.002 A 
HETATM   11  C   UNK N   1      33.235  15.210   4.897  0.00  0.00     0.001 A 
HETATM   12  C   UNK N   1      33.518  14.534   6.085  0.00  0.00     0.016 A 
ENDROOT
BRANCH   1  13
HETATM   13  C   UNK N   1      34.925  14.588  10.897  0.00  0.00     0.266 C 
HETATM   14  O   UNK N   1      33.989  14.402  11.660  0.00  0.00    -0.267 OA
HETATM   15  N   UNK N   1      36.195  14.160  11.261  0.00  0.00    -0.318 N 
HETATM   16  C   UNK N   1      37.268  14.155  10.289  0.00  0.00     0.159 C 
BRANCH  15  17
HETATM   17  C   UNK N   1      36.498  13.617  12.567  0.00  0.00     0.037 A 
HETATM   18  C   UNK N   1      36.399  14.382  13.745  0.00  0.00     0.029 A 
HETATM   19  C   UNK N   1      36.717  13.834  14.990  0.00  0.00     0.002 A 
HETATM   20  C   UNK N   1      37.156  12.512  15.080  0.00  0.00     0.000 A 
HETATM   21  C   UNK N   1      37.268  11.737  13.927  0.00  0.00     0.002 A 
HETATM   22  C   UNK N   1      36.938  12.282  12.683  0.00  0.00     0.029 A 
ENDBRANCH  15  17
ENDBRANCH   1  13
BRANCH   2  23
HETATM   23  O   UNK N   1      34.153  13.211   8.404  0.00  0.00    -0.359 OA
HETATM   24  H   UNK N   1      34.289  12.704   9.181  0.00  0.00     0.217 HD
ENDBRANCH   2  23
TORSDOF 3
ENDMDL
MODEL 3
REMARK VINA RESULT:      -6.7     15.623     16.293
REMARK  3 active torsions:
REMARK  status: ('A' for Active; 'I' for Inactive)
REMARK    1  A    between atoms: C_2  and  C_3 
REMARK       I    between atoms: C_2  and  N_16 
REMARK    2  A    between atoms: C_4  and  O_5 
REMARK    3  A    between atoms: N_16  and  C_17 
ROOT
HETATM    1  C   UNK N   1      21.871  15.531   7.299  0.00  0.00     0.134 A 
HETATM    2  C   UNK N   1      20.929  15.089   8.265  0.00  0.00     0.099 A 
HETATM    3  C   UNK N   1      21.253  14.047   9.140  0.00  0.00     0.025 A 
HETATM    4  C   UNK N   1      22.532  13.457   9.090  0.00  0.00     0.050 A 
HETATM    5  N   UNK N   1      23.460  13.911   8.192  0.00  0.00    -0.317 N 
HETATM    6  C   UNK N   1      24.796  13.315   8.160  0.00  0.00     0.159 C 
HETATM    7  C   UNK N   1      23.157  14.928   7.306  0.00  0.00     0.266 A 
HETATM    8  O   UNK N   1      24.007  15.300   6.511  0.00  0.00    -0.267 OA
HETATM    9  C   UNK N   1      22.839  12.415   9.984  0.00  0.00     0.031 A 
HETATM   10  C   UNK N   1      21.891  11.965  10.907  0.00  0.00     0.002 A 
HETATM   11  C   UNK N   1      20.629  12.556  10.954  0.00  0.00     0.001 A 
HETATM   12  C   UNK N   1      20.313  13.595  10.079  0.00  0.00     0.016 A 
ENDROOT
BRANCH   1  13
HETATM   13  C   UNK N   1      21.584  16.658   6.317  0.00  0.00     0.266 C 
HETATM   14  O   UNK N   1      21.623  17.796   6.762  0.00  0.00    -0.267 OA
HETATM   15  N   UNK N   1      21.307  16.462   4.971  0.00  0.00    -0.318 N 
HETATM   16  C   UNK N   1      21.485  15.156   4.374  0.00  0.00     0.159 C 
BRANCH  15  17
HETATM   17  C   UNK N   1      20.928  17.538   4.082  0.00  0.00     0.037 A 
HETATM   18  C   UNK N   1      19.652  17.614   3.490  0.00  0.00     0.029 A 
HETATM   19  C   UNK N   1      19.323  18.657   2.619  0.00  0.00     0.002 A 
HETATM   20  C   UNK N   1      20.269  19.634   2.310  0.00  0.00     0.000 A 
HETATM   21  C   UNK N   1      21.541  19.576   2.879  0.00  0.00     0.002 A 
HETATM   22  C   UNK N   1      21.866  18.541   3.759  0.00  0.00     0.029 A 
ENDBRANCH  15  17
ENDBRANCH   1  13
BRANCH   2  23
HETATM   23  O   UNK N   1      19.734  15.691   8.403  0.00  0.00    -0.359 OA
HETATM   24  H   UNK N   1      18.978  15.407   7.928  0.00  0.00     0.217 HD
ENDBRANCH   2  23
TORSDOF 3
ENDMDL
MODEL 4
REMARK VINA RESULT:      -6.7     17.129     20.096
REMARK  3 active torsions:
REMARK  status: ('A' for Active; 'I' for Inactive)
REMARK    1  A    between atoms: C_2  and  C_3 
REMARK       I    between atoms: C_2  and  N_16 
REMARK    2  A    between atoms: C_4  and  O_5 
REMARK    3  A    between atoms: N_16  and  C_17 
ROOT
HETATM    1  C   UNK N   1      35.168  13.563  12.118  0.00  0.00     0.134 A 
HETATM    2  C   UNK N   1      34.856  12.179  12.080  0.00  0.00     0.099 A 
HETATM    3  C   UNK N   1      35.307  11.326  13.092  0.00  0.00     0.025 A 
HETATM    4  C   UNK N   1      36.044  11.846  14.175  0.00  0.00     0.050 A 
HETATM    5  N   UNK N   1      36.307  13.186  14.242  0.00  0.00    -0.317 N 
HETATM    6  C   UNK N   1      37.049  13.729  15.382  0.00  0.00     0.159 C 
HETATM    7  C   UNK N   1      35.886  14.047  13.245  0.00  0.00     0.266 A 
HETATM    8  O   UNK N   1      36.149  15.237  13.332  0.00  0.00    -0.267 OA
HETATM    9  C   UNK N   1      36.482  10.970  15.186  0.00  0.00     0.031 A 
HETATM   10  C   UNK N   1      36.198   9.603  15.118  0.00  0.00     0.002 A 
HETATM   11  C   UNK N   1      35.466   9.096  14.046  0.00  0.00     0.001 A 
HETATM   12  C   UNK N   1      35.018   9.953  13.040  0.00  0.00     0.016 A 
ENDROOT
BRANCH   1  13
HETATM   13  C   UNK N   1      34.709  14.546  11.051  0.00  0.00     0.266 C 
HETATM   14  O   UNK N   1      33.567  14.972  11.152  0.00  0.00    -0.267 OA
HETATM   15  N   UNK N   1      35.510  14.987  10.007  0.00  0.00    -0.318 N 
HETATM   16  C   UNK N   1      36.926  14.684   9.998  0.00  0.00     0.159 C 
BRANCH  15  17
HETATM   17  C   UNK N   1      35.019  15.834   8.942  0.00  0.00     0.037 A 
HETATM   18  C   UNK N   1      34.757  17.205   9.128  0.00  0.00     0.029 A 
HETATM   19  C   UNK N   1      34.264  17.992   8.084  0.00  0.00     0.002 A 
HETATM   20  C   UNK N   1      34.008  17.419   6.837  0.00  0.00     0.000 A 
HETATM   21  C   UNK N   1      34.254  16.062   6.632  0.00  0.00     0.002 A 
HETATM   22  C   UNK N   1      34.759  15.278   7.672  0.00  0.00     0.029 A 
ENDBRANCH  15  17
ENDBRANCH   1  13
BRANCH   2  23
HETATM   23  O   UNK N   1      34.076  11.664  11.111  0.00  0.00    -0.359 OA
HETATM   24  H   UNK N   1      34.326  11.690  10.208  0.00  0.00     0.217 HD
ENDBRANCH   2  23
TORSDOF 3
ENDMDL
MODEL 5
REMARK VINA RESULT:      -6.7     17.398     20.895
REMARK  3 active torsions:
REMARK  status: ('A' for Active; 'I' for Inactive)
REMARK    1  A    between atoms: C_2  and  C_3 
REMARK       I    between atoms: C_2  and  N_16 
REMARK    2  A    between atoms: C_4  and  O_5 
REMARK    3  A    between atoms: N_16  and  C_17 
ROOT
HETATM    1  C   UNK N   1      35.735  14.002  11.370  0.00  0.00     0.134 A 
HETATM    2  C   UNK N   1      34.624  14.572  10.694  0.00  0.00     0.099 A 
HETATM    3  C   UNK N   1      34.684  14.812   9.318  0.00  0.00     0.025 A 
HETATM    4  C   UNK N   1      35.835  14.452   8.589  0.00  0.00     0.050 A 
HETATM    5  N   UNK N   1      36.890  13.858   9.227  0.00  0.00    -0.317 N 
HETATM    6  C   UNK N   1      38.073  13.460   8.463  0.00  0.00     0.159 C 
HETATM    7  C   UNK N   1      36.861  13.626  10.589  0.00  0.00     0.266 A 
HETATM    8  O   UNK N   1      37.826  13.104  11.127  0.00  0.00    -0.267 OA
HETATM    9  C   UNK N   1      35.870  14.696   7.203  0.00  0.00     0.031 A 
HETATM   10  C   UNK N   1      34.784  15.291   6.556  0.00  0.00     0.002 A 
HETATM   11  C   UNK N   1      33.647  15.642   7.282  0.00  0.00     0.001 A 
HETATM   12  C   UNK N   1      33.594  15.399   8.655  0.00  0.00     0.016 A 
ENDROOT
BRANCH   1  13
HETATM   13  C   UNK N   1      35.737  13.714  12.864  0.00  0.00     0.266 C 
HETATM   14  O   UNK N   1      36.155  14.601  13.594  0.00  0.00    -0.267 OA
HETATM   15  N   UNK N   1      35.279  12.530  13.426  0.00  0.00    -0.318 N 
HETATM   16  C   UNK N   1      34.567  11.566  12.614  0.00  0.00     0.159 C 
BRANCH  15  17
HETATM   17  C   UNK N   1      35.393  12.234  14.837  0.00  0.00     0.037 A 
HETATM   18  C   UNK N   1      34.765  13.015  15.827  0.00  0.00     0.029 A 
HETATM   19  C   UNK N   1      34.911  12.714  17.183  0.00  0.00     0.002 A 
HETATM   20  C   UNK N   1      35.702  11.635  17.578  0.00  0.00     0.000 A 
HETATM   21  C   UNK N   1      36.339  10.850  16.618  0.00  0.00     0.002 A 
HETATM   22  C   UNK N   1      36.182  11.144  15.261  0.00  0.00     0.029 A 
ENDBRANCH  15  17
ENDBRANCH   1  13
BRANCH   2  23
HETATM   23  O   UNK N   1      33.475  14.842  11.341  0.00  0.00    -0.359 OA
HETATM   24  H   UNK N   1      33.345  14.609  12.239  0.00  0.00     0.217 HD
ENDBRANCH   2  23
TORSDOF 3
ENDMDL
MODEL 6
REMARK VINA RESULT:      -6.6     10.581     11.820
REMARK  3 active torsions:
REMARK  status: ('A' for Active; 'I' for Inactive)
REMARK    1  A    between atoms: C_2  and  C_3 
REMARK       I    between atoms: C_2  and  N_16 
REMARK    2  A    between atoms: C_4  and  O_5 
REMARK    3  A    between atoms: N_16  and  C_17 
ROOT
HETATM    1  C   UNK N   1      28.576  17.632   5.651  0.00  0.00     0.134 A 
HETATM    2  C   UNK N   1      29.681  17.536   4.765  0.00  0.00     0.099 A 
HETATM    3  C   UNK N   1      30.975  17.367   5.268  0.00  0.00     0.025 A 
HETATM    4  C   UNK N   1      31.182  17.253   6.657  0.00  0.00     0.050 A 
HETATM    5  N   UNK N   1      30.115  17.297   7.513  0.00  0.00    -0.317 N 
HETATM    6  C   UNK N   1      30.329  17.151   8.954  0.00  0.00     0.159 C 
HETATM    7  C   UNK N   1      28.829  17.480   7.041  0.00  0.00     0.266 A 
HETATM    8  O   UNK N   1      27.901  17.526   7.836  0.00  0.00    -0.267 OA
HETATM    9  C   UNK N   1      32.492  17.076   7.141  0.00  0.00     0.031 A 
HETATM   10  C   UNK N   1      33.575  17.019   6.260  0.00  0.00     0.002 A 
HETATM   11  C   UNK N   1      33.363  17.128   4.886  0.00  0.00     0.001 A 
HETATM   12  C   UNK N   1      32.069  17.296   4.392  0.00  0.00     0.016 A 
ENDROOT
BRANCH   1  13
HETATM   13  C   UNK N   1      27.143  17.816   5.172  0.00  0.00     0.266 C 
HETATM   14  O   UNK N   1      26.550  16.808   4.815  0.00  0.00    -0.267 OA
HETATM   15  N   UNK N   1      26.488  19.039   5.141  0.00  0.00    -0.318 N 
HETATM   16  C   UNK N   1      27.080  20.199   5.772  0.00  0.00     0.159 C 
BRANCH  15  17
HETATM   17  C   UNK N   1      25.166  19.209   4.577  0.00  0.00     0.037 A 
HETATM   18  C   UNK N   1      24.073  18.408   4.961  0.00  0.00     0.029 A 
HETATM   19  C   UNK N   1      22.813  18.584   4.384  0.00  0.00     0.002 A 
HETATM   20  C   UNK N   1      22.625  19.554   3.399  0.00  0.00     0.000 A 
HETATM   21  C   UNK N   1      23.693  20.355   2.998  0.00  0.00     0.002 A 
HETATM   22  C   UNK N   1      24.950  20.187   3.585  0.00  0.00     0.029 A 
ENDBRANCH  15  17
ENDBRANCH   1  13
BRANCH   2  23
HETATM   23  O   UNK N   1      29.510  17.546   3.430  0.00  0.00    -0.359 OA
HETATM   24  H   UNK N   1      29.544  16.761   2.920  0.00  0.00     0.217 HD
ENDBRANCH   2  23
TORSDOF 3
ENDMDL
MODEL 7
REMARK VINA RESULT:      -6.6     19.522     22.843
REMARK  3 active torsions:
REMARK  status: ('A' for Active; 'I' for Inactive)
REMARK    1  A    between atoms: C_2  and  C_3 
REMARK       I    between atoms: C_2  and  N_16 
REMARK    2  A    between atoms: C_4  and  O_5 
REMARK    3  A    between atoms: N_16  and  C_17 
ROOT
HETATM    1  C   UNK N   1      36.791  12.931  13.132  0.00  0.00     0.134 A 
HETATM    2  C   UNK N   1      37.371  11.839  12.434  0.00  0.00     0.099 A 
HETATM    3  C   UNK N   1      37.504  11.881  11.043  0.00  0.00     0.025 A 
HETATM    4  C   UNK N   1      37.096  13.028  10.331  0.00  0.00     0.050 A 
HETATM    5  N   UNK N   1      36.581  14.102  11.003  0.00  0.00    -0.317 N 
HETATM    6  C   UNK N   1      36.184  15.303  10.265  0.00  0.00     0.159 C 
HETATM    7  C   UNK N   1      36.424  14.077  12.376  0.00  0.00     0.266 A 
HETATM    8  O   UNK N   1      35.950  15.051  12.942  0.00  0.00    -0.267 OA
HETATM    9  C   UNK N   1      37.246  13.052   8.932  0.00  0.00     0.031 A 
HETATM   10  C   UNK N   1      37.785  11.956   8.253  0.00  0.00     0.002 A 
HETATM   11  C   UNK N   1      38.190  10.826   8.964  0.00  0.00     0.001 A 
HETATM   12  C   UNK N   1      38.055  10.791  10.352  0.00  0.00     0.016 A 
ENDROOT
BRANCH   1  13
HETATM   13  C   UNK N   1      36.617  12.950  14.643  0.00  0.00     0.266 C 
HETATM   14  O   UNK N   1      37.477  13.533  15.288  0.00  0.00    -0.267 OA
HETATM   15  N   UNK N   1      35.545  12.369  15.307  0.00  0.00    -0.318 N 
HETATM   16  C   UNK N   1      34.404  11.883  14.562  0.00  0.00     0.159 C 
BRANCH  15  17
HETATM   17  C   UNK N   1      35.456  12.302  16.750  0.00  0.00     0.037 A 
HETATM   18  C   UNK N   1      35.132  13.422  17.539  0.00  0.00     0.029 A 
HETATM   19  C   UNK N   1      35.073  13.329  18.932  0.00  0.00     0.002 A 
HETATM   20  C   UNK N   1      35.355  12.117  19.564  0.00  0.00     0.000 A 
HETATM   21  C   UNK N   1      35.685  10.996  18.804  0.00  0.00     0.002 A 
HETATM   22  C   UNK N   1      35.730  11.086  17.410  0.00  0.00     0.029 A 
ENDBRANCH  15  17
ENDBRANCH   1  13
BRANCH   2  23
HETATM   23  O   UNK N   1      37.856  10.768  13.090  0.00  0.00    -0.359 OA
HETATM   24  H   UNK N   1      37.307  10.052  13.342  0.00  0.00     0.217 HD
ENDBRANCH   2  23
TORSDOF 3
ENDMDL
MODEL 8
REMARK VINA RESULT:      -6.6     12.953     16.287
REMARK  3 active torsions:
REMARK  status: ('A' for Active; 'I' for Inactive)
REMARK    1  A    between atoms: C_2  and  C_3 
REMARK       I    between atoms: C_2  and  N_16 
REMARK    2  A    between atoms: C_4  and  O_5 
REMARK    3  A    between atoms: N_16  and  C_17 
ROOT
HETATM    1  C   UNK N   1      31.554  16.243   7.838  0.00  0.00     0.134 A 
HETATM    2  C   UNK N   1      30.587  17.078   8.456  0.00  0.00     0.099 A 
HETATM    3  C   UNK N   1      29.651  17.768   7.679  0.00  0.00     0.025 A 
HETATM    4  C   UNK N   1      29.642  17.606   6.278  0.00  0.00     0.050 A 
HETATM    5  N   UNK N   1      30.542  16.766   5.682  0.00  0.00    -0.317 N 
HETATM    6  C   UNK N   1      30.513  16.579   4.230  0.00  0.00     0.159 C 
HETATM    7  C   UNK N   1      31.487  16.087   6.427  0.00  0.00     0.266 A 
HETATM    8  O   UNK N   1      32.282  15.353   5.859  0.00  0.00    -0.267 OA
HETATM    9  C   UNK N   1      28.687  18.305   5.516  0.00  0.00     0.031 A 
HETATM   10  C   UNK N   1      27.763  19.152   6.134  0.00  0.00     0.002 A 
HETATM   11  C   UNK N   1      27.774  19.304   7.520  0.00  0.00     0.001 A 
HETATM   12  C   UNK N   1      28.711  18.612   8.289  0.00  0.00     0.016 A 
ENDROOT
BRANCH   1  13
HETATM   13  C   UNK N   1      32.600  15.465   8.623  0.00  0.00     0.266 C 
HETATM   14  O   UNK N   1      32.339  14.298   8.878  0.00  0.00    -0.267 OA
HETATM   15  N   UNK N   1      33.814  15.996   9.036  0.00  0.00    -0.318 N 
HETATM   16  C   UNK N   1      34.245  17.290   8.550  0.00  0.00     0.159 C 
BRANCH  15  17
HETATM   17  C   UNK N   1      34.743  15.274   9.876  0.00  0.00     0.037 A 
HETATM   18  C   UNK N   1      34.596  15.199  11.275  0.00  0.00     0.029 A 
HETATM   19  C   UNK N   1      35.523  14.510  12.061  0.00  0.00     0.002 A 
HETATM   20  C   UNK N   1      36.624  13.894  11.466  0.00  0.00     0.000 A 
HETATM   21  C   UNK N   1      36.795  13.960  10.084  0.00  0.00     0.002 A 
HETATM   22  C   UNK N   1      35.861  14.638   9.296  0.00  0.00     0.029 A 
ENDBRANCH  15  17
ENDBRANCH   1  13
BRANCH   2  23
HETATM   23  O   UNK N   1      30.506  17.183   9.795  0.00  0.00    -0.359 OA
HETATM   24  H   UNK N   1      31.073  17.748  10.283  0.00  0.00     0.217 HD
ENDBRANCH   2  23
TORSDOF 3
ENDMDL
MODEL 9
REMARK VINA RESULT:      -6.6     13.750     16.201
REMARK  3 active torsions:
REMARK  status: ('A' for Active; 'I' for Inactive)
REMARK    1  A    between atoms: C_2  and  C_3 
REMARK       I    between atoms: C_2  and  N_16 
REMARK    2  A    between atoms: C_4  and  O_5 
REMARK    3  A    between atoms: N_16  and  C_17 
ROOT
HETATM    1  C   UNK N   1      33.789  14.748   8.725  0.00  0.00     0.134 A 
HETATM    2  C   UNK N   1      33.834  14.601  10.136  0.00  0.00     0.099 A 
HETATM    3  C   UNK N   1      34.986  14.109  10.758  0.00  0.00     0.025 A 
HETATM    4  C   UNK N   1      36.122  13.793   9.986  0.00  0.00     0.050 A 
HETATM    5  N   UNK N   1      36.101  13.977   8.631  0.00  0.00    -0.317 N 
HETATM    6  C   UNK N   1      37.291  13.673   7.834  0.00  0.00     0.159 C 
HETATM    7  C   UNK N   1      34.968  14.446   7.992  0.00  0.00     0.266 A 
HETATM    8  O   UNK N   1      34.982  14.587   6.778  0.00  0.00    -0.267 OA
HETATM    9  C   UNK N   1      37.273  13.306  10.634  0.00  0.00     0.031 A 
HETATM   10  C   UNK N   1      37.292  13.133  12.020  0.00  0.00     0.002 A 
HETATM   11  C   UNK N   1      36.166  13.452  12.778  0.00  0.00     0.001 A 
HETATM   12  C   UNK N   1      35.020  13.943  12.151  0.00  0.00     0.016 A 
ENDROOT
BRANCH   1  13
HETATM   13  C   UNK N   1      32.569  15.277   7.985  0.00  0.00     0.266 C 
HETATM   14  O   UNK N   1      31.746  14.449   7.620  0.00  0.00    -0.267 OA
HETATM   15  N   UNK N   1      32.341  16.622   7.729  0.00  0.00    -0.318 N 
HETATM   16  C   UNK N   1      33.172  17.632   8.349  0.00  0.00     0.159 C 
BRANCH  15  17
HETATM   17  C   UNK N   1      31.233  17.093   6.928  0.00  0.00     0.037 A 
HETATM   18  C   UNK N   1      29.997  17.466   7.493  0.00  0.00     0.029 A 
HETATM   19  C   UNK N   1      28.939  17.899   6.689  0.00  0.00     0.002 A 
HETATM   20  C   UNK N   1      29.090  17.951   5.303  0.00  0.00     0.000 A 
HETATM   21  C   UNK N   1      30.301  17.581   4.721  0.00  0.00     0.002 A 
HETATM   22  C   UNK N   1      31.364  17.161   5.525  0.00  0.00     0.029 A 
ENDBRANCH  15  17
ENDBRANCH   1  13
BRANCH   2  23
HETATM   23  O   UNK N   1      32.802  14.982  10.912  0.00  0.00    -0.359 OA
HETATM   24  H   UNK N   1      31.970  14.554  10.874  0.00  0.00     0.217 HD
ENDBRANCH   2  23
TORSDOF 3
ENDMDL
