REMARK  7 active torsions:
REMARK  status: ('A' for Active; 'I' for Inactive)
REMARK    1  A    between atoms: N_2  and  C_4 
REMARK    2  A    between atoms: C_4  and  C_5 
REMARK    3  A    between atoms: C_5  and  C_6 
REMARK    4  A    between atoms: C_13  and  O_14 
REMARK    5  A    between atoms: O_14  and  P_15 
REMARK    6  A    between atoms: P_15  and  O_16 
REMARK    7  A    between atoms: P_15  and  O_17 
ROOT
HETATM    1  C   UNK N   1       0.424  -0.898  -0.478  0.00  0.00    -0.026 A 
HETATM    2  C   UNK N   1      -0.383   0.225  -0.333  0.00  0.00     0.096 A 
HETATM    3  N   UNK N   1       0.377   1.283   0.055  0.00  0.00    -0.365 N 
HETATM    4  C   UNK N   1       1.638   0.826   0.139  0.00  0.00     0.045 A 
HETATM    5  C   UNK N   1       2.770   1.560   0.488  0.00  0.00     0.030 A 
HETATM    6  C   UNK N   1       4.007   0.892   0.507  0.00  0.00     0.005 A 
HETATM    7  C   UNK N   1       4.082  -0.481   0.184  0.00  0.00     0.038 A 
HETATM    8  C   UNK N   1       2.915  -1.199  -0.167  0.00  0.00     0.094 A 
HETATM    9  C   UNK N   1       1.707  -0.501  -0.178  0.00  0.00     0.032 A 
HETATM   10  H   UNK N   1       0.067   2.199   0.237  0.00  0.00     0.165 HD
ENDROOT
BRANCH   8  11
HETATM   11  O   UNK N   1       2.943  -2.517  -0.473  0.00  0.00    -0.254 OA
BRANCH  11  12
HETATM   12  P   UNK N   1       4.318  -3.525  -0.248  0.00  0.00     0.396 P 
HETATM   13  O   UNK N   1       5.244  -3.158   0.942  0.00  0.00    -0.631 OA
BRANCH  12  14
HETATM   14  O   UNK N   1       4.386  -5.172  -0.789  0.00  0.00    -0.307 OA
HETATM   15  H   UNK N   1       3.607  -5.665  -1.091  0.00  0.00     0.222 HD
ENDBRANCH  12  14
BRANCH  12  16
HETATM   16  O   UNK N   1       3.292  -4.224   0.958  0.00  0.00    -0.307 OA
HETATM   17  H   UNK N   1       2.666  -3.922   1.634  0.00  0.00     0.222 HD
ENDBRANCH  12  16
ENDBRANCH  11  12
ENDBRANCH   8  11
BRANCH   1  18
HETATM   18  C   UNK N   1      -0.007  -2.257  -0.927  0.00  0.00     0.071 C 
BRANCH  18  19
HETATM   19  C   UNK N   1      -1.188  -2.797  -0.122  0.00  0.00     0.276 C 
BRANCH  19  20
HETATM   20  N   UNK N   1      -0.930  -4.126   0.432  0.00  0.00     0.080 N 
HETATM   21  C   UNK N   1      -2.202  -4.613   0.937  0.00  0.00     0.309 C 
HETATM   22  C   UNK N   1      -0.536  -5.049  -0.624  0.00  0.00     0.309 C 
ENDBRANCH  19  20
ENDBRANCH  18  19
ENDBRANCH   1  18
TORSDOF 7
