MODEL 1
REMARK VINA RESULT:      -9.9      0.000      0.000
REMARK  6 active torsions:
REMARK  status: ('A' for Active; 'I' for Inactive)
REMARK    1  A    between atoms: C_5  and  C_7 
REMARK    2  A    between atoms: N_13  and  C_18 
REMARK    3  A    between atoms: C_18  and  C_19 
REMARK    4  A    between atoms: C_22  and  C_27 
REMARK    5  A    between atoms: C_30  and  C_37 
REMARK    6  A    between atoms: C_32  and  C_33 
ROOT
HETATM    1  C   UNK N   1      35.850  12.590  11.339  0.00  0.00     0.044 A 
HETATM    2  C   UNK N   1      37.021  12.542  12.093  0.00  0.00     0.030 A 
HETATM    3  C   UNK N   1      36.931  12.318  13.468  0.00  0.00     0.034 A 
HETATM    4  C   UNK N   1      35.666  12.230  14.067  0.00  0.00     0.059 A 
HETATM    5  N   UNK N   1      34.566  12.238  13.274  0.00  0.00    -0.300 N 
ATOM      6  HN  UNK N   1      33.647  12.124  13.700  1.00  0.00     0.187 HD
HETATM    7  N   UNK N   1      34.654  12.391  11.956  0.00  0.00    -0.303 N 
ATOM      8  HN  UNK N   1      33.803  12.357  11.394  1.00  0.00     0.186 HD
ENDROOT
BRANCH   1   9
HETATM    9  C   UNK N   1      35.855  13.158   9.941  0.00  0.00     0.186 C 
BRANCH   9  10
HETATM   10  N   UNK N   1      35.037  14.385   9.906  0.00  0.00    -0.359 N 
HETATM   11  C   UNK N   1      35.656  15.613   9.979  0.00  0.00     0.093 A 
HETATM   12  C   UNK N   1      34.934  16.803   9.723  0.00  0.00     0.049 A 
HETATM   13  C   UNK N   1      33.599  16.659   9.349  0.00  0.00     0.063 A 
HETATM   14  N   UNK N   1      32.739  17.596   8.919  0.00  0.00    -0.340 N 
HETATM   15  C   UNK N   1      33.012  15.447   9.295  0.00  0.00     0.076 A 
HETATM   16  C   UNK N   1      31.628  16.881   8.582  0.00  0.00     0.119 A 
ATOM     17  HN  UNK N   1      32.883  18.603   8.857  1.00  0.00     0.167 HD
HETATM   18  N   UNK N   1      31.770  15.553   8.812  0.00  0.00    -0.339 N 
ATOM     19  HN  UNK N   1      31.090  14.811   8.654  1.00  0.00     0.167 HD
HETATM   20  C   UNK N   1      33.700  14.299   9.595  0.00  0.00     0.122 A 
BRANCH  16  21
HETATM   21  C   UNK N   1      30.446  17.445   7.900  0.00  0.00     0.046 A 
HETATM   22  C   UNK N   1      29.561  18.325   8.550  0.00  0.00     0.130 A 
HETATM   23  C   UNK N   1      28.483  18.876   7.849  0.00  0.00     0.043 A 
HETATM   24  F   UNK N   1      29.735  18.651   9.855  0.00  0.00    -0.205 F 
HETATM   25  C   UNK N   1      28.284  18.562   6.502  0.00  0.00     0.003 A 
HETATM   26  C   UNK N   1      29.158  17.690   5.851  0.00  0.00     0.001 A 
HETATM   27  C   UNK N   1      30.231  17.132   6.548  0.00  0.00     0.018 A 
ENDBRANCH  16  21
ENDBRANCH   9  10
ENDBRANCH   1   9
BRANCH   4  28
HETATM   28  C   UNK N   1      35.524  12.163  15.544  0.00  0.00     0.007 A 
HETATM   29  C   UNK N   1      35.326  13.364  16.241  0.00  0.00     0.015 A 
HETATM   30  C   UNK N   1      35.195  13.378  17.629  0.00  0.00     0.017 A 
HETATM   31  C   UNK N   1      35.236  12.183  18.352  0.00  0.00     0.048 A 
HETATM   32  C   UNK N   1      35.380  10.974  17.671  0.00  0.00     0.033 A 
HETATM   33  C   UNK N   1      35.526  10.930  16.277  0.00  0.00     0.061 A 
BRANCH  31  34
HETATM   34  C   UNK N   1      35.130  12.181  19.847  0.00  0.00     0.417 C 
HETATM   35  F   UNK N   1      34.477  13.329  20.260  0.00  0.00    -0.166 F 
HETATM   36  F   UNK N   1      36.396  12.154  20.404  0.00  0.00    -0.166 F 
HETATM   37  F   UNK N   1      34.419  11.080  20.297  0.00  0.00    -0.166 F 
ENDBRANCH  31  34
BRANCH  33  38
HETATM   38  C   UNK N   1      35.591   9.561  15.622  0.00  0.00     0.418 C 
HETATM   39  F   UNK N   1      34.584   9.449  14.677  0.00  0.00    -0.166 F 
HETATM   40  F   UNK N   1      36.819   9.348  15.028  0.00  0.00    -0.166 F 
HETATM   41  F   UNK N   1      35.402   8.556  16.557  0.00  0.00    -0.166 F 
ENDBRANCH  33  38
ENDBRANCH   4  28
TORSDOF 6
ENDMDL
MODEL 2
REMARK VINA RESULT:      -9.8      1.497      2.198
REMARK  6 active torsions:
REMARK  status: ('A' for Active; 'I' for Inactive)
REMARK    1  A    between atoms: C_5  and  C_7 
REMARK    2  A    between atoms: N_13  and  C_18 
REMARK    3  A    between atoms: C_18  and  C_19 
REMARK    4  A    between atoms: C_22  and  C_27 
REMARK    5  A    between atoms: C_30  and  C_37 
REMARK    6  A    between atoms: C_32  and  C_33 
ROOT
HETATM    1  C   UNK N   1      36.215  13.829  11.377  0.00  0.00     0.044 A 
HETATM    2  C   UNK N   1      35.191  12.933  11.681  0.00  0.00     0.030 A 
HETATM    3  C   UNK N   1      34.972  12.585  13.015  0.00  0.00     0.034 A 
HETATM    4  C   UNK N   1      35.836  13.078  14.004  0.00  0.00     0.059 A 
HETATM    5  N   UNK N   1      36.784  13.981  13.651  0.00  0.00    -0.300 N 
ATOM      6  HN  UNK N   1      37.381  14.380  14.373  1.00  0.00     0.187 HD
HETATM    7  N   UNK N   1      36.954  14.360  12.388  0.00  0.00    -0.303 N 
ATOM      8  HN  UNK N   1      37.657  15.067  12.172  1.00  0.00     0.186 HD
ENDROOT
BRANCH   1   9
HETATM    9  C   UNK N   1      36.715  13.977   9.961  0.00  0.00     0.186 C 
BRANCH   9  10
HETATM   10  N   UNK N   1      35.594  14.366   9.084  0.00  0.00    -0.359 N 
HETATM   11  C   UNK N   1      35.074  13.445   8.202  0.00  0.00     0.093 A 
HETATM   12  C   UNK N   1      33.864  13.706   7.514  0.00  0.00     0.049 A 
HETATM   13  C   UNK N   1      33.217  14.903   7.814  0.00  0.00     0.063 A 
HETATM   14  N   UNK N   1      32.006  15.327   7.420  0.00  0.00    -0.340 N 
HETATM   15  C   UNK N   1      33.752  15.794   8.673  0.00  0.00     0.076 A 
HETATM   16  C   UNK N   1      31.836  16.495   8.104  0.00  0.00     0.119 A 
ATOM     17  HN  UNK N   1      31.364  14.882   6.765  1.00  0.00     0.167 HD
HETATM   18  N   UNK N   1      32.904  16.806   8.879  0.00  0.00    -0.339 N 
ATOM     19  HN  UNK N   1      33.030  17.622   9.478  1.00  0.00     0.167 HD
HETATM   20  C   UNK N   1      34.950  15.563   9.298  0.00  0.00     0.122 A 
BRANCH  16  21
HETATM   21  C   UNK N   1      30.581  17.271   8.135  0.00  0.00     0.046 A 
HETATM   22  C   UNK N   1      29.870  17.582   6.961  0.00  0.00     0.130 A 
HETATM   23  C   UNK N   1      28.657  18.275   7.042  0.00  0.00     0.043 A 
HETATM   24  F   UNK N   1      30.343  17.221   5.743  0.00  0.00    -0.205 F 
HETATM   25  C   UNK N   1      28.143  18.655   8.285  0.00  0.00     0.003 A 
HETATM   26  C   UNK N   1      28.844  18.349   9.453  0.00  0.00     0.001 A 
HETATM   27  C   UNK N   1      30.058  17.664   9.378  0.00  0.00     0.018 A 
ENDBRANCH  16  21
ENDBRANCH   9  10
ENDBRANCH   1   9
BRANCH   4  28
HETATM   28  C   UNK N   1      35.743  12.599  15.407  0.00  0.00     0.007 A 
HETATM   29  C   UNK N   1      34.984  13.355  16.312  0.00  0.00     0.015 A 
HETATM   30  C   UNK N   1      34.861  12.971  17.646  0.00  0.00     0.017 A 
HETATM   31  C   UNK N   1      35.477  11.803  18.101  0.00  0.00     0.048 A 
HETATM   32  C   UNK N   1      36.193  11.010  17.204  0.00  0.00     0.033 A 
HETATM   33  C   UNK N   1      36.344  11.378  15.859  0.00  0.00     0.061 A 
BRANCH  31  34
HETATM   34  C   UNK N   1      35.383  11.391  19.540  0.00  0.00     0.417 C 
HETATM   35  F   UNK N   1      34.546  10.295  19.648  0.00  0.00    -0.166 F 
HETATM   36  F   UNK N   1      34.867  12.432  20.290  0.00  0.00    -0.166 F 
HETATM   37  F   UNK N   1      36.627  11.050  20.044  0.00  0.00    -0.166 F 
ENDBRANCH  31  34
BRANCH  33  38
HETATM   38  C   UNK N   1      37.067  10.405  14.944  0.00  0.00     0.418 C 
HETATM   39  F   UNK N   1      37.730   9.456  15.704  0.00  0.00    -0.166 F 
HETATM   40  F   UNK N   1      36.189   9.785  14.077  0.00  0.00    -0.166 F 
HETATM   41  F   UNK N   1      38.016  11.062  14.175  0.00  0.00    -0.166 F 
ENDBRANCH  33  38
ENDBRANCH   4  28
TORSDOF 6
ENDMDL
MODEL 3
REMARK VINA RESULT:      -9.8      2.555     11.158
REMARK  6 active torsions:
REMARK  status: ('A' for Active; 'I' for Inactive)
REMARK    1  A    between atoms: C_5  and  C_7 
REMARK    2  A    between atoms: N_13  and  C_18 
REMARK    3  A    between atoms: C_18  and  C_19 
REMARK    4  A    between atoms: C_22  and  C_27 
REMARK    5  A    between atoms: C_30  and  C_37 
REMARK    6  A    between atoms: C_32  and  C_33 
ROOT
HETATM    1  C   UNK N   1      35.646  15.425   9.662  0.00  0.00     0.044 A 
HETATM    2  C   UNK N   1      35.137  14.694   8.590  0.00  0.00     0.030 A 
HETATM    3  C   UNK N   1      33.996  15.162   7.935  0.00  0.00     0.034 A 
HETATM    4  C   UNK N   1      33.345  16.305   8.421  0.00  0.00     0.059 A 
HETATM    5  N   UNK N   1      33.915  16.997   9.438  0.00  0.00    -0.300 N 
ATOM      6  HN  UNK N   1      33.472  17.855   9.762  1.00  0.00     0.187 HD
HETATM    7  N   UNK N   1      35.036  16.586  10.024  0.00  0.00    -0.303 N 
ATOM      8  HN  UNK N   1      35.448  17.155  10.763  1.00  0.00     0.186 HD
ENDROOT
BRANCH   1   9
HETATM    9  C   UNK N   1      36.649  14.810  10.608  0.00  0.00     0.186 C 
BRANCH   9  10
HETATM   10  N   UNK N   1      35.935  14.062  11.660  0.00  0.00    -0.359 N 
HETATM   11  C   UNK N   1      35.321  12.871  11.345  0.00  0.00     0.093 A 
HETATM   12  C   UNK N   1      34.828  12.020  12.363  0.00  0.00     0.049 A 
HETATM   13  C   UNK N   1      35.041  12.426  13.679  0.00  0.00     0.063 A 
HETATM   14  N   UNK N   1      34.807  11.754  14.817  0.00  0.00    -0.340 N 
HETATM   15  C   UNK N   1      35.634  13.603  13.963  0.00  0.00     0.076 A 
HETATM   16  C   UNK N   1      35.312  12.572  15.784  0.00  0.00     0.119 A 
ATOM     17  HN  UNK N   1      34.358  10.845  14.931  1.00  0.00     0.167 HD
HETATM   18  N   UNK N   1      35.823  13.722  15.280  0.00  0.00    -0.339 N 
ATOM     19  HN  UNK N   1      36.249  14.496  15.789  1.00  0.00     0.167 HD
HETATM   20  C   UNK N   1      36.065  14.450  12.974  0.00  0.00     0.122 A 
BRANCH  16  21
HETATM   21  C   UNK N   1      35.441  12.203  17.207  0.00  0.00     0.046 A 
HETATM   22  C   UNK N   1      35.165  13.118  18.240  0.00  0.00     0.130 A 
HETATM   23  C   UNK N   1      35.250  12.710  19.576  0.00  0.00     0.043 A 
HETATM   24  F   UNK N   1      34.814  14.398  17.963  0.00  0.00    -0.205 F 
HETATM   25  C   UNK N   1      35.603  11.395  19.891  0.00  0.00     0.003 A 
HETATM   26  C   UNK N   1      35.879  10.483  18.870  0.00  0.00     0.001 A 
HETATM   27  C   UNK N   1      35.802  10.887  17.536  0.00  0.00     0.018 A 
ENDBRANCH  16  21
ENDBRANCH   9  10
ENDBRANCH   1   9
BRANCH   4  28
HETATM   28  C   UNK N   1      32.038  16.735   7.861  0.00  0.00     0.007 A 
HETATM   29  C   UNK N   1      30.938  16.795   8.729  0.00  0.00     0.015 A 
HETATM   30  C   UNK N   1      29.679  17.180   8.270  0.00  0.00     0.017 A 
HETATM   31  C   UNK N   1      29.498  17.539   6.933  0.00  0.00     0.048 A 
HETATM   32  C   UNK N   1      30.591  17.536   6.066  0.00  0.00     0.033 A 
HETATM   33  C   UNK N   1      31.866  17.141   6.497  0.00  0.00     0.061 A 
BRANCH  31  34
HETATM   34  C   UNK N   1      28.145  17.925   6.414  0.00  0.00     0.417 C 
HETATM   35  F   UNK N   1      28.203  18.056   5.038  0.00  0.00    -0.166 F 
HETATM   36  F   UNK N   1      27.760  19.132   6.969  0.00  0.00    -0.166 F 
HETATM   37  F   UNK N   1      27.197  16.965   6.729  0.00  0.00    -0.166 F 
ENDBRANCH  31  34
BRANCH  33  38
HETATM   38  C   UNK N   1      33.008  17.255   5.501  0.00  0.00     0.418 C 
HETATM   39  F   UNK N   1      34.070  17.925   6.086  0.00  0.00    -0.166 F 
HETATM   40  F   UNK N   1      33.418  16.010   5.066  0.00  0.00    -0.166 F 
HETATM   41  F   UNK N   1      32.620  17.978   4.384  0.00  0.00    -0.166 F 
ENDBRANCH  33  38
ENDBRANCH   4  28
TORSDOF 6
ENDMDL
MODEL 4
REMARK VINA RESULT:      -9.8      2.197      3.075
REMARK  6 active torsions:
REMARK  status: ('A' for Active; 'I' for Inactive)
REMARK    1  A    between atoms: C_5  and  C_7 
REMARK    2  A    between atoms: N_13  and  C_18 
REMARK    3  A    between atoms: C_18  and  C_19 
REMARK    4  A    between atoms: C_22  and  C_27 
REMARK    5  A    between atoms: C_30  and  C_37 
REMARK    6  A    between atoms: C_32  and  C_33 
ROOT
HETATM    1  C   UNK N   1      36.248  13.149  12.866  0.00  0.00     0.044 A 
HETATM    2  C   UNK N   1      35.074  12.494  13.229  0.00  0.00     0.030 A 
HETATM    3  C   UNK N   1      34.943  12.014  14.534  0.00  0.00     0.034 A 
HETATM    4  C   UNK N   1      36.025  12.128  15.419  0.00  0.00     0.059 A 
HETATM    5  N   UNK N   1      37.123  12.817  15.021  0.00  0.00    -0.300 N 
ATOM      6  HN  UNK N   1      37.892  12.946  15.677  1.00  0.00     0.187 HD
HETATM    7  N   UNK N   1      37.224  13.328  13.797  0.00  0.00    -0.303 N 
ATOM      8  HN  UNK N   1      38.054  13.868  13.551  1.00  0.00     0.186 HD
ENDROOT
BRANCH   1   9
HETATM    9  C   UNK N   1      36.584  13.382  11.413  0.00  0.00     0.186 C 
BRANCH   9  10
HETATM   10  N   UNK N   1      35.726  14.456  10.878  0.00  0.00    -0.359 N 
HETATM   11  C   UNK N   1      35.968  15.761  11.242  0.00  0.00     0.093 A 
HETATM   12  C   UNK N   1      35.318  16.830  10.579  0.00  0.00     0.049 A 
HETATM   13  C   UNK N   1      34.475  16.493   9.522  0.00  0.00     0.063 A 
HETATM   14  N   UNK N   1      33.856  17.302   8.648  0.00  0.00    -0.340 N 
HETATM   15  C   UNK N   1      34.244  15.207   9.191  0.00  0.00     0.076 A 
HETATM   16  C   UNK N   1      33.272  16.438   7.769  0.00  0.00     0.119 A 
ATOM     17  HN  UNK N   1      33.830  18.321   8.641  1.00  0.00     0.167 HD
HETATM   18  N   UNK N   1      33.493  15.139   8.088  0.00  0.00    -0.339 N 
ATOM     19  HN  UNK N   1      33.162  14.307   7.601  1.00  0.00     0.167 HD
HETATM   20  C   UNK N   1      34.834  14.171   9.869  0.00  0.00     0.122 A 
BRANCH  16  21
HETATM   21  C   UNK N   1      32.601  16.844   6.518  0.00  0.00     0.046 A 
HETATM   22  C   UNK N   1      31.199  16.876   6.404  0.00  0.00     0.130 A 
HETATM   23  C   UNK N   1      30.605  17.317   5.216  0.00  0.00     0.043 A 
HETATM   24  F   UNK N   1      30.406  16.484   7.431  0.00  0.00    -0.205 F 
HETATM   25  C   UNK N   1      31.398  17.733   4.143  0.00  0.00     0.003 A 
HETATM   26  C   UNK N   1      32.790  17.703   4.251  0.00  0.00     0.001 A 
HETATM   27  C   UNK N   1      33.388  17.257   5.431  0.00  0.00     0.018 A 
ENDBRANCH  16  21
ENDBRANCH   9  10
ENDBRANCH   1   9
BRANCH   4  28
HETATM   28  C   UNK N   1      35.990  11.481  16.755  0.00  0.00     0.007 A 
HETATM   29  C   UNK N   1      36.501  10.180  16.870  0.00  0.00     0.015 A 
HETATM   30  C   UNK N   1      36.490   9.507  18.091  0.00  0.00     0.017 A 
HETATM   31  C   UNK N   1      35.990  10.134  19.235  0.00  0.00     0.048 A 
HETATM   32  C   UNK N   1      35.526  11.447  19.151  0.00  0.00     0.033 A 
HETATM   33  C   UNK N   1      35.513  12.143  17.934  0.00  0.00     0.061 A 
BRANCH  31  34
HETATM   34  C   UNK N   1      35.941   9.414  20.550  0.00  0.00     0.417 C 
HETATM   35  F   UNK N   1      34.780   9.761  21.217  0.00  0.00    -0.166 F 
HETATM   36  F   UNK N   1      37.032   9.777  21.320  0.00  0.00    -0.166 F 
HETATM   37  F   UNK N   1      35.957   8.041  20.369  0.00  0.00    -0.166 F 
ENDBRANCH  31  34
BRANCH  33  38
HETATM   38  C   UNK N   1      35.069  13.596  17.963  0.00  0.00     0.418 C 
HETATM   39  F   UNK N   1      34.035  13.785  17.061  0.00  0.00    -0.166 F 
HETATM   40  F   UNK N   1      34.664  13.970  19.229  0.00  0.00    -0.166 F 
HETATM   41  F   UNK N   1      36.107  14.437  17.594  0.00  0.00    -0.166 F 
ENDBRANCH  33  38
ENDBRANCH   4  28
TORSDOF 6
ENDMDL
MODEL 5
REMARK VINA RESULT:      -9.7      2.179     11.533
REMARK  6 active torsions:
REMARK  status: ('A' for Active; 'I' for Inactive)
REMARK    1  A    between atoms: C_5  and  C_7 
REMARK    2  A    between atoms: N_13  and  C_18 
REMARK    3  A    between atoms: C_18  and  C_19 
REMARK    4  A    between atoms: C_22  and  C_27 
REMARK    5  A    between atoms: C_30  and  C_37 
REMARK    6  A    between atoms: C_32  and  C_33 
ROOT
HETATM    1  C   UNK N   1      34.335  16.252   9.508  0.00  0.00     0.044 A 
HETATM    2  C   UNK N   1      34.350  17.481   8.853  0.00  0.00     0.030 A 
HETATM    3  C   UNK N   1      33.206  17.896   8.168  0.00  0.00     0.034 A 
HETATM    4  C   UNK N   1      32.104  17.033   8.087  0.00  0.00     0.059 A 
HETATM    5  N   UNK N   1      32.133  15.870   8.785  0.00  0.00    -0.300 N 
ATOM      6  HN  UNK N   1      31.315  15.263   8.769  1.00  0.00     0.187 HD
HETATM    7  N   UNK N   1      33.200  15.502   9.488  0.00  0.00    -0.303 N 
ATOM      8  HN  UNK N   1      33.166  14.635  10.024  1.00  0.00     0.186 HD
ENDROOT
BRANCH   1   9
HETATM    9  C   UNK N   1      35.620  15.605   9.966  0.00  0.00     0.186 C 
BRANCH   9  10
HETATM   10  N   UNK N   1      35.307  14.450  10.829  0.00  0.00    -0.359 N 
HETATM   11  C   UNK N   1      35.303  13.184  10.289  0.00  0.00     0.093 A 
HETATM   12  C   UNK N   1      35.233  12.043  11.123  0.00  0.00     0.049 A 
HETATM   13  C   UNK N   1      35.222  12.269  12.498  0.00  0.00     0.063 A 
HETATM   14  N   UNK N   1      35.302  11.379  13.499  0.00  0.00    -0.340 N 
HETATM   15  C   UNK N   1      35.216  13.519  13.003  0.00  0.00     0.076 A 
HETATM   16  C   UNK N   1      35.370  12.157  14.617  0.00  0.00     0.119 A 
ATOM     17  HN  UNK N   1      35.311  10.361  13.439  1.00  0.00     0.167 HD
HETATM   18  N   UNK N   1      35.312  13.482  14.335  0.00  0.00    -0.339 N 
ATOM     19  HN  UNK N   1      35.336  14.265  14.987  1.00  0.00     0.167 HD
HETATM   20  C   UNK N   1      35.230  14.625  12.192  0.00  0.00     0.122 A 
BRANCH  16  21
HETATM   21  C   UNK N   1      35.633  11.647  15.977  0.00  0.00     0.046 A 
HETATM   22  C   UNK N   1      35.117  12.282  17.122  0.00  0.00     0.130 A 
HETATM   23  C   UNK N   1      35.348  11.733  18.388  0.00  0.00     0.043 A 
HETATM   24  F   UNK N   1      34.395  13.424  17.020  0.00  0.00    -0.205 F 
HETATM   25  C   UNK N   1      36.083  10.552  18.522  0.00  0.00     0.003 A 
HETATM   26  C   UNK N   1      36.598   9.918  17.390  0.00  0.00     0.001 A 
HETATM   27  C   UNK N   1      36.377  10.465  16.124  0.00  0.00     0.018 A 
ENDBRANCH  16  21
ENDBRANCH   9  10
ENDBRANCH   1   9
BRANCH   4  28
HETATM   28  C   UNK N   1      30.938  17.363   7.229  0.00  0.00     0.007 A 
HETATM   29  C   UNK N   1      31.028  17.079   5.858  0.00  0.00     0.015 A 
HETATM   30  C   UNK N   1      29.976  17.372   4.991  0.00  0.00     0.017 A 
HETATM   31  C   UNK N   1      28.796  17.934   5.482  0.00  0.00     0.048 A 
HETATM   32  C   UNK N   1      28.667  18.175   6.850  0.00  0.00     0.033 A 
HETATM   33  C   UNK N   1      29.713  17.902   7.744  0.00  0.00     0.061 A 
BRANCH  31  34
HETATM   34  C   UNK N   1      27.666  18.285   4.560  0.00  0.00     0.417 C 
HETATM   35  F   UNK N   1      26.470  18.195   5.249  0.00  0.00    -0.166 F 
HETATM   36  F   UNK N   1      27.644  17.404   3.494  0.00  0.00    -0.166 F 
HETATM   37  F   UNK N   1      27.803  19.574   4.072  0.00  0.00    -0.166 F 
ENDBRANCH  31  34
BRANCH  33  38
HETATM   38  C   UNK N   1      29.444  18.118   9.223  0.00  0.00     0.418 C 
HETATM   39  F   UNK N   1      29.536  16.910   9.895  0.00  0.00    -0.166 F 
HETATM   40  F   UNK N   1      30.331  19.027   9.766  0.00  0.00    -0.166 F 
HETATM   41  F   UNK N   1      28.166  18.614   9.427  0.00  0.00    -0.166 F 
ENDBRANCH  33  38
ENDBRANCH   4  28
TORSDOF 6
ENDMDL
MODEL 6
REMARK VINA RESULT:      -9.0      3.010     11.684
REMARK  6 active torsions:
REMARK  status: ('A' for Active; 'I' for Inactive)
REMARK    1  A    between atoms: C_5  and  C_7 
REMARK    2  A    between atoms: N_13  and  C_18 
REMARK    3  A    between atoms: C_18  and  C_19 
REMARK    4  A    between atoms: C_22  and  C_27 
REMARK    5  A    between atoms: C_30  and  C_37 
REMARK    6  A    between atoms: C_32  and  C_33 
ROOT
HETATM    1  C   UNK N   1      34.631  16.711   9.364  0.00  0.00     0.044 A 
HETATM    2  C   UNK N   1      33.870  15.602   9.003  0.00  0.00     0.030 A 
HETATM    3  C   UNK N   1      32.838  15.764   8.076  0.00  0.00     0.034 A 
HETATM    4  C   UNK N   1      32.541  17.048   7.597  0.00  0.00     0.059 A 
HETATM    5  N   UNK N   1      33.347  18.079   7.951  0.00  0.00    -0.300 N 
ATOM      6  HN  UNK N   1      33.166  19.005   7.566  1.00  0.00     0.187 HD
HETATM    7  N   UNK N   1      34.368  17.914   8.786  0.00  0.00    -0.303 N 
ATOM      8  HN  UNK N   1      34.969  18.711   8.999  1.00  0.00     0.186 HD
ENDROOT
BRANCH   1   9
HETATM    9  C   UNK N   1      35.515  16.674  10.587  0.00  0.00     0.186 C 
BRANCH   9  10
HETATM   10  N   UNK N   1      35.808  15.272  10.938  0.00  0.00    -0.359 N 
HETATM   11  C   UNK N   1      36.915  14.657  10.398  0.00  0.00     0.093 A 
HETATM   12  C   UNK N   1      37.353  13.400  10.882  0.00  0.00     0.049 A 
HETATM   13  C   UNK N   1      36.642  12.857  11.951  0.00  0.00     0.063 A 
HETATM   14  N   UNK N   1      36.923  11.767  12.682  0.00  0.00    -0.340 N 
HETATM   15  C   UNK N   1      35.554  13.473  12.455  0.00  0.00     0.076 A 
HETATM   16  C   UNK N   1      35.970  11.781  13.658  0.00  0.00     0.119 A 
ATOM     17  HN  UNK N   1      37.673  11.090  12.542  1.00  0.00     0.167 HD
HETATM   18  N   UNK N   1      35.110  12.821  13.534  0.00  0.00    -0.339 N 
ATOM     19  HN  UNK N   1      34.312  13.050  14.125  1.00  0.00     0.167 HD
HETATM   20  C   UNK N   1      35.101  14.665  11.950  0.00  0.00     0.122 A 
BRANCH  16  21
HETATM   21  C   UNK N   1      35.948  10.867  14.817  0.00  0.00     0.046 A 
HETATM   22  C   UNK N   1      36.089  11.336  16.136  0.00  0.00     0.130 A 
HETATM   23  C   UNK N   1      36.010  10.440  17.208  0.00  0.00     0.043 A 
HETATM   24  F   UNK N   1      36.304  12.650  16.390  0.00  0.00    -0.205 F 
HETATM   25  C   UNK N   1      35.783   9.081  16.976  0.00  0.00     0.003 A 
HETATM   26  C   UNK N   1      35.643   8.610  15.670  0.00  0.00     0.001 A 
HETATM   27  C   UNK N   1      35.728   9.498  14.596  0.00  0.00     0.018 A 
ENDBRANCH  16  21
ENDBRANCH   9  10
ENDBRANCH   1   9
BRANCH   4  28
HETATM   28  C   UNK N   1      31.347  17.288   6.745  0.00  0.00     0.007 A 
HETATM   29  C   UNK N   1      30.136  17.595   7.382  0.00  0.00     0.015 A 
HETATM   30  C   UNK N   1      28.973  17.822   6.647  0.00  0.00     0.017 A 
HETATM   31  C   UNK N   1      29.002  17.771   5.251  0.00  0.00     0.048 A 
HETATM   32  C   UNK N   1      30.209  17.518   4.599  0.00  0.00     0.033 A 
HETATM   33  C   UNK N   1      31.391  17.274   5.312  0.00  0.00     0.061 A 
BRANCH  31  34
HETATM   34  C   UNK N   1      27.755  17.980   4.445  0.00  0.00     0.417 C 
HETATM   35  F   UNK N   1      27.629  19.323   4.139  0.00  0.00    -0.166 F 
HETATM   36  F   UNK N   1      26.654  17.576   5.178  0.00  0.00    -0.166 F 
HETATM   37  F   UNK N   1      27.797  17.257   3.264  0.00  0.00    -0.166 F 
ENDBRANCH  31  34
BRANCH  33  38
HETATM   38  C   UNK N   1      32.669  17.095   4.510  0.00  0.00     0.418 C 
HETATM   39  F   UNK N   1      32.387  17.192   3.158  0.00  0.00    -0.166 F 
HETATM   40  F   UNK N   1      33.617  18.034   4.863  0.00  0.00    -0.166 F 
HETATM   41  F   UNK N   1      33.222  15.843   4.734  0.00  0.00    -0.166 F 
ENDBRANCH  33  38
ENDBRANCH   4  28
TORSDOF 6
ENDMDL
MODEL 7
REMARK VINA RESULT:      -8.9      3.938     12.883
REMARK  6 active torsions:
REMARK  status: ('A' for Active; 'I' for Inactive)
REMARK    1  A    between atoms: C_5  and  C_7 
REMARK    2  A    between atoms: N_13  and  C_18 
REMARK    3  A    between atoms: C_18  and  C_19 
REMARK    4  A    between atoms: C_22  and  C_27 
REMARK    5  A    between atoms: C_30  and  C_37 
REMARK    6  A    between atoms: C_32  and  C_33 
ROOT
HETATM    1  C   UNK N   1      31.127  17.175   6.760  0.00  0.00     0.044 A 
HETATM    2  C   UNK N   1      30.185  17.510   7.731  0.00  0.00     0.030 A 
HETATM    3  C   UNK N   1      28.845  17.629   7.359  0.00  0.00     0.034 A 
HETATM    4  C   UNK N   1      28.492  17.493   6.009  0.00  0.00     0.059 A 
HETATM    5  N   UNK N   1      29.446  17.121   5.120  0.00  0.00    -0.300 N 
ATOM      6  HN  UNK N   1      29.185  16.972   4.146  1.00  0.00     0.187 HD
HETATM    7  N   UNK N   1      30.713  16.947   5.484  0.00  0.00    -0.303 N 
ATOM      8  HN  UNK N   1      31.392  16.636   4.789  1.00  0.00     0.186 HD
ENDROOT
BRANCH   1   9
HETATM    9  C   UNK N   1      32.602  17.363   7.019  0.00  0.00     0.186 C 
BRANCH   9  10
HETATM   10  N   UNK N   1      33.135  16.171   7.706  0.00  0.00    -0.359 N 
HETATM   11  C   UNK N   1      33.979  15.320   7.029  0.00  0.00     0.093 A 
HETATM   12  C   UNK N   1      34.683  14.302   7.715  0.00  0.00     0.049 A 
HETATM   13  C   UNK N   1      34.516  14.246   9.097  0.00  0.00     0.063 A 
HETATM   14  N   UNK N   1      35.163  13.485   9.994  0.00  0.00    -0.340 N 
HETATM   15  C   UNK N   1      33.675  15.083   9.737  0.00  0.00     0.076 A 
HETATM   16  C   UNK N   1      34.688  13.927  11.193  0.00  0.00     0.119 A 
ATOM     17  HN  UNK N   1      35.849  12.751   9.820  1.00  0.00     0.167 HD
HETATM   18  N   UNK N   1      33.763  14.909  11.059  0.00  0.00    -0.339 N 
ATOM     19  HN  UNK N   1      33.255  15.398  11.795  1.00  0.00     0.167 HD
HETATM   20  C   UNK N   1      32.953  16.034   9.063  0.00  0.00     0.122 A 
BRANCH  16  21
HETATM   21  C   UNK N   1      35.217  13.510  12.507  0.00  0.00     0.046 A 
HETATM   22  C   UNK N   1      36.029  14.356  13.285  0.00  0.00     0.130 A 
HETATM   23  C   UNK N   1      36.465  13.939  14.548  0.00  0.00     0.043 A 
HETATM   24  F   UNK N   1      36.399  15.579  12.831  0.00  0.00    -0.205 F 
HETATM   25  C   UNK N   1      36.092  12.687  15.044  0.00  0.00     0.003 A 
HETATM   26  C   UNK N   1      35.288  11.843  14.276  0.00  0.00     0.001 A 
HETATM   27  C   UNK N   1      34.856  12.251  13.013  0.00  0.00     0.018 A 
ENDBRANCH  16  21
ENDBRANCH   9  10
ENDBRANCH   1   9
BRANCH   4  28
HETATM   28  C   UNK N   1      27.110  17.780   5.548  0.00  0.00     0.007 A 
HETATM   29  C   UNK N   1      26.188  16.723   5.533  0.00  0.00     0.015 A 
HETATM   30  C   UNK N   1      24.876  16.918   5.103  0.00  0.00     0.017 A 
HETATM   31  C   UNK N   1      24.449  18.185   4.700  0.00  0.00     0.048 A 
HETATM   32  C   UNK N   1      25.336  19.260   4.758  0.00  0.00     0.033 A 
HETATM   33  C   UNK N   1      26.665  19.091   5.175  0.00  0.00     0.061 A 
BRANCH  31  34
HETATM   34  C   UNK N   1      23.051  18.407   4.204  0.00  0.00     0.417 C 
HETATM   35  F   UNK N   1      22.197  18.530   5.285  0.00  0.00    -0.166 F 
HETATM   36  F   UNK N   1      22.654  17.329   3.433  0.00  0.00    -0.166 F 
HETATM   37  F   UNK N   1      22.969  19.559   3.440  0.00  0.00    -0.166 F 
ENDBRANCH  31  34
BRANCH  33  38
HETATM   38  C   UNK N   1      27.528  20.337   5.285  0.00  0.00     0.418 C 
HETATM   39  F   UNK N   1      28.661  20.188   4.503  0.00  0.00    -0.166 F 
HETATM   40  F   UNK N   1      26.832  21.464   4.897  0.00  0.00    -0.166 F 
HETATM   41  F   UNK N   1      27.944  20.536   6.592  0.00  0.00    -0.166 F 
ENDBRANCH  33  38
ENDBRANCH   4  28
TORSDOF 6
ENDMDL
MODEL 8
REMARK VINA RESULT:      -8.9      8.054     11.887
REMARK  6 active torsions:
REMARK  status: ('A' for Active; 'I' for Inactive)
REMARK    1  A    between atoms: C_5  and  C_7 
REMARK    2  A    between atoms: N_13  and  C_18 
REMARK    3  A    between atoms: C_18  and  C_19 
REMARK    4  A    between atoms: C_22  and  C_27 
REMARK    5  A    between atoms: C_30  and  C_37 
REMARK    6  A    between atoms: C_32  and  C_33 
ROOT
HETATM    1  C   UNK N   1      26.172  16.799   4.008  0.00  0.00     0.044 A 
HETATM    2  C   UNK N   1      26.810  18.036   3.954  0.00  0.00     0.030 A 
HETATM    3  C   UNK N   1      28.071  18.171   4.539  0.00  0.00     0.034 A 
HETATM    4  C   UNK N   1      28.625  17.086   5.234  0.00  0.00     0.059 A 
HETATM    5  N   UNK N   1      27.976  15.896   5.211  0.00  0.00    -0.300 N 
ATOM      6  HN  UNK N   1      28.398  15.092   5.672  1.00  0.00     0.187 HD
HETATM    7  N   UNK N   1      26.803  15.750   4.602  0.00  0.00    -0.303 N 
ATOM      8  HN  UNK N   1      26.365  14.829   4.580  1.00  0.00     0.186 HD
ENDROOT
BRANCH   1   9
HETATM    9  C   UNK N   1      24.698  16.678   3.706  0.00  0.00     0.186 C 
BRANCH   9  10
HETATM   10  N   UNK N   1      24.143  15.517   4.428  0.00  0.00    -0.359 N 
HETATM   11  C   UNK N   1      24.365  14.249   3.943  0.00  0.00     0.093 A 
HETATM   12  C   UNK N   1      24.047  13.110   4.722  0.00  0.00     0.049 A 
HETATM   13  C   UNK N   1      23.555  13.344   6.004  0.00  0.00     0.063 A 
HETATM   14  N   UNK N   1      23.311  12.463   6.987  0.00  0.00    -0.340 N 
HETATM   15  C   UNK N   1      23.335  14.596   6.454  0.00  0.00     0.076 A 
HETATM   16  C   UNK N   1      22.965  13.250   8.045  0.00  0.00     0.119 A 
ATOM     17  HN  UNK N   1      23.372  11.446   6.951  1.00  0.00     0.167 HD
HETATM   18  N   UNK N   1      22.966  14.570   7.738  0.00  0.00    -0.339 N 
ATOM     19  HN  UNK N   1      22.739  15.358   8.344  1.00  0.00     0.167 HD
HETATM   20  C   UNK N   1      23.594  15.697   5.677  0.00  0.00     0.122 A 
BRANCH  16  21
HETATM   21  C   UNK N   1      22.757  12.757   9.421  0.00  0.00     0.046 A 
HETATM   22  C   UNK N   1      23.836  12.429  10.264  0.00  0.00     0.130 A 
HETATM   23  C   UNK N   1      23.594  12.015  11.578  0.00  0.00     0.043 A 
HETATM   24  F   UNK N   1      25.115  12.507   9.822  0.00  0.00    -0.205 F 
HETATM   25  C   UNK N   1      22.286  11.931  12.062  0.00  0.00     0.003 A 
HETATM   26  C   UNK N   1      21.212  12.255  11.231  0.00  0.00     0.001 A 
HETATM   27  C   UNK N   1      21.447  12.662   9.916  0.00  0.00     0.018 A 
ENDBRANCH  16  21
ENDBRANCH   9  10
ENDBRANCH   1   9
BRANCH   4  28
HETATM   28  C   UNK N   1      29.881  17.240   6.012  0.00  0.00     0.007 A 
HETATM   29  C   UNK N   1      31.099  17.071   5.336  0.00  0.00     0.015 A 
HETATM   30  C   UNK N   1      32.316  17.190   6.006  0.00  0.00     0.017 A 
HETATM   31  C   UNK N   1      32.343  17.507   7.366  0.00  0.00     0.048 A 
HETATM   32  C   UNK N   1      31.144  17.731   8.043  0.00  0.00     0.033 A 
HETATM   33  C   UNK N   1      29.904  17.605   7.398  0.00  0.00     0.061 A 
BRANCH  31  34
HETATM   34  C   UNK N   1      33.641  17.607   8.109  0.00  0.00     0.417 C 
HETATM   35  F   UNK N   1      33.984  18.940   8.252  0.00  0.00    -0.166 F 
HETATM   36  F   UNK N   1      34.635  16.956   7.401  0.00  0.00    -0.166 F 
HETATM   37  F   UNK N   1      33.542  17.037   9.368  0.00  0.00    -0.166 F 
ENDBRANCH  31  34
BRANCH  33  38
HETATM   38  C   UNK N   1      28.661  17.953   8.199  0.00  0.00     0.418 C 
HETATM   39  F   UNK N   1      28.057  19.075   7.657  0.00  0.00    -0.166 F 
HETATM   40  F   UNK N   1      27.767  16.901   8.218  0.00  0.00    -0.166 F 
HETATM   41  F   UNK N   1      28.985  18.246   9.514  0.00  0.00    -0.166 F 
ENDBRANCH  33  38
ENDBRANCH   4  28
TORSDOF 6
ENDMDL
MODEL 9
REMARK VINA RESULT:      -8.8      1.752      2.845
REMARK  6 active torsions:
REMARK  status: ('A' for Active; 'I' for Inactive)
REMARK    1  A    between atoms: C_5  and  C_7 
REMARK    2  A    between atoms: N_13  and  C_18 
REMARK    3  A    between atoms: C_18  and  C_19 
REMARK    4  A    between atoms: C_22  and  C_27 
REMARK    5  A    between atoms: C_30  and  C_37 
REMARK    6  A    between atoms: C_32  and  C_33 
ROOT
HETATM    1  C   UNK N   1      36.274  13.312  12.030  0.00  0.00     0.044 A 
HETATM    2  C   UNK N   1      37.226  12.370  12.417  0.00  0.00     0.030 A 
HETATM    3  C   UNK N   1      36.944  11.529  13.495  0.00  0.00     0.034 A 
HETATM    4  C   UNK N   1      35.752  11.707  14.212  0.00  0.00     0.059 A 
HETATM    5  N   UNK N   1      34.847  12.609  13.758  0.00  0.00    -0.300 N 
ATOM      6  HN  UNK N   1      33.958  12.707  14.245  1.00  0.00     0.187 HD
HETATM    7  N   UNK N   1      35.088  13.369  12.693  0.00  0.00    -0.303 N 
ATOM      8  HN  UNK N   1      34.365  14.010  12.367  1.00  0.00     0.186 HD
ENDROOT
BRANCH   1   9
HETATM    9  C   UNK N   1      36.647  14.453  11.116  0.00  0.00     0.186 C 
BRANCH   9  10
HETATM   10  N   UNK N   1      35.594  14.628  10.096  0.00  0.00    -0.359 N 
HETATM   11  C   UNK N   1      35.159  13.536   9.380  0.00  0.00     0.093 A 
HETATM   12  C   UNK N   1      34.005  13.620   8.564  0.00  0.00     0.049 A 
HETATM   13  C   UNK N   1      33.320  14.833   8.568  0.00  0.00     0.063 A 
HETATM   14  N   UNK N   1      32.139  15.136   8.007  0.00  0.00    -0.340 N 
HETATM   15  C   UNK N   1      33.772  15.893   9.269  0.00  0.00     0.076 A 
HETATM   16  C   UNK N   1      31.899  16.411   8.429  0.00  0.00     0.119 A 
ATOM     17  HN  UNK N   1      31.557  14.551   7.408  1.00  0.00     0.167 HD
HETATM   18  N   UNK N   1      32.898  16.901   9.204  0.00  0.00    -0.339 N 
ATOM     19  HN  UNK N   1      32.965  17.822   9.635  1.00  0.00     0.167 HD
HETATM   20  C   UNK N   1      34.920  15.825  10.017  0.00  0.00     0.122 A 
BRANCH  16  21
HETATM   21  C   UNK N   1      30.635  17.141   8.209  0.00  0.00     0.046 A 
HETATM   22  C   UNK N   1      29.890  16.997   7.024  0.00  0.00     0.130 A 
HETATM   23  C   UNK N   1      28.671  17.668   6.879  0.00  0.00     0.043 A 
HETATM   24  F   UNK N   1      30.336  16.214   6.010  0.00  0.00    -0.205 F 
HETATM   25  C   UNK N   1      28.185  18.477   7.910  0.00  0.00     0.003 A 
HETATM   26  C   UNK N   1      28.920  18.624   9.088  0.00  0.00     0.001 A 
HETATM   27  C   UNK N   1      30.140  17.962   9.235  0.00  0.00     0.018 A 
ENDBRANCH  16  21
ENDBRANCH   9  10
ENDBRANCH   1   9
BRANCH   4  28
HETATM   28  C   UNK N   1      35.494  10.951  15.464  0.00  0.00     0.007 A 
HETATM   29  C   UNK N   1      35.557   9.550  15.411  0.00  0.00     0.015 A 
HETATM   30  C   UNK N   1      35.315   8.776  16.545  0.00  0.00     0.017 A 
HETATM   31  C   UNK N   1      35.028   9.389  17.767  0.00  0.00     0.048 A 
HETATM   32  C   UNK N   1      35.012  10.781  17.850  0.00  0.00     0.033 A 
HETATM   33  C   UNK N   1      35.239  11.585  16.724  0.00  0.00     0.061 A 
BRANCH  31  34
HETATM   34  C   UNK N   1      34.734   8.572  18.990  0.00  0.00     0.417 C 
HETATM   35  F   UNK N   1      34.846   9.373  20.112  0.00  0.00    -0.166 F 
HETATM   36  F   UNK N   1      35.639   7.530  19.083  0.00  0.00    -0.166 F 
HETATM   37  F   UNK N   1      33.452   8.048  18.944  0.00  0.00    -0.166 F 
ENDBRANCH  31  34
BRANCH  33  38
HETATM   38  C   UNK N   1      35.286  13.089  16.935  0.00  0.00     0.418 C 
HETATM   39  F   UNK N   1      34.131  13.666  16.431  0.00  0.00    -0.166 F 
HETATM   40  F   UNK N   1      35.423  13.403  18.272  0.00  0.00    -0.166 F 
HETATM   41  F   UNK N   1      36.361  13.650  16.264  0.00  0.00    -0.166 F 
ENDBRANCH  33  38
ENDBRANCH   4  28
TORSDOF 6
ENDMDL
