REMARK  12 active torsions:
REMARK  status: ('A' for Active; 'I' for Inactive)
REMARK    1  A    between atoms: C_20  and  C_13 
REMARK    2  A    between atoms: O_34  and  C_13 
REMARK    3  A    between atoms: C_17  and  N_33 
REMARK    4  A    between atoms: O_41  and  C_18 
REMARK    5  A    between atoms: C_19  and  O_44 
REMARK    6  A    between atoms: C_32  and  C_20 
REMARK    7  A    between atoms: C_21  and  O_45 
REMARK    8  A    between atoms: C_22  and  O_44 
REMARK    9  A    between atoms: O_37  and  C_28 
REMARK   10  A    between atoms: O_39  and  C_30 
REMARK   11  A    between atoms: C_31  and  O_45 
REMARK   12  A    between atoms: C_32  and  O_40 
ROOT
HETATM    1  C   UNK N   1      -1.896   2.250   0.055  0.00  0.00     0.004 A 
HETATM    2  C   UNK N   1      -0.787   1.415   0.066  0.00  0.00     0.017 A 
HETATM    3  C   UNK N   1      -1.726   3.627  -0.016  0.00  0.00     0.038 A 
HETATM    4  C   UNK N   1       6.599   0.117  -0.256  0.00  0.00     0.088 C 
HETATM    5  C   UNK N   1       8.116   2.097   0.172  0.00  0.00     0.083 C 
HETATM    6  C   UNK N   1       0.509   1.943  -0.013  0.00  0.00     0.032 A 
HETATM    7  C   UNK N   1       5.458   1.124  -0.285  0.00  0.00    -0.009 A 
HETATM    8  C   UNK N   1      -0.448   4.193  -0.074  0.00  0.00     0.083 A 
HETATM    9  C   UNK N   1       7.120   2.969  -0.606  0.00  0.00     0.164 C 
HETATM   10  C   UNK N   1       0.703   3.339  -0.094  0.00  0.00     0.062 A 
HETATM   11  C   UNK N   1       5.691   2.510  -0.398  0.00  0.00     0.014 A 
HETATM   12  C   UNK N   1       3.051   1.529  -0.137  0.00  0.00     0.066 A 
HETATM   13  C   UNK N   1       3.272   2.919  -0.240  0.00  0.00     0.066 A 
HETATM   14  C   UNK N   1       1.657   1.012  -0.021  0.00  0.00     0.197 A 
HETATM   15  C   UNK N   1       4.151   0.640  -0.155  0.00  0.00     0.088 A 
HETATM   16  C   UNK N   1       2.102   3.859  -0.231  0.00  0.00     0.200 A 
HETATM   17  C   UNK N   1       4.598   3.407  -0.371  0.00  0.00     0.090 A 
HETATM   18  C   UNK N   1       8.040   0.658  -0.375  0.00  0.00     0.127 C 
HETATM   19  O   UNK N   1       1.448  -0.190   0.060  0.00  0.00    -0.286 OA
HETATM   20  O   UNK N   1       2.294   5.053  -0.384  0.00  0.00    -0.286 OA
ENDROOT
BRANCH   9  21
HETATM   21  O   UNK N   1       7.355   4.360  -0.612  0.00  0.00    -0.351 OA
BRANCH  21  22
HETATM   22  C   UNK N   1       7.632   5.017   0.612  0.00  0.00     0.263 C 
HETATM   23  C   UNK N   1       9.037   4.727   1.173  0.00  0.00     0.088 C 
HETATM   24  C   UNK N   1      10.120   5.168   0.192  0.00  0.00     0.110 C 
HETATM   25  C   UNK N   1       9.902   6.633  -0.237  0.00  0.00     0.175 C 
HETATM   26  C   UNK N   1       8.415   6.902  -0.604  0.00  0.00     0.151 C 
HETATM   27  C   UNK N   1       8.067   6.437  -2.017  0.00  0.00     0.042 C 
HETATM   28  O   UNK N   1       7.508   6.421   0.397  0.00  0.00    -0.354 OA
BRANCH  24  29
HETATM   29  N   UNK N   1      10.104   4.292  -0.971  0.00  0.00    -0.423 N 
HETATM   30  H   UNK N   1       9.566   3.995  -1.785  0.00  0.00     0.150 HD
HETATM   31  H   UNK N   1      10.977   3.765  -0.971  0.00  0.00     0.150 HD
ENDBRANCH  24  29
BRANCH  25  32
HETATM   32  O   UNK N   1      10.297   7.518   0.803  0.00  0.00    -0.351 OA
BRANCH  32  33
HETATM   33  C   UNK N   1      10.589   8.814   0.276  0.00  0.00     0.260 C 
HETATM   34  C   UNK N   1      12.040   9.183   0.591  0.00  0.00     0.061 C 
HETATM   35  C   UNK N   1      12.335  10.570   0.017  0.00  0.00     0.007 C 
HETATM   36  C   UNK N   1      11.268  11.571   0.460  0.00  0.00     0.026 C 
HETATM   37  C   UNK N   1       9.879  10.990   0.192  0.00  0.00     0.171 C 
HETATM   38  O   UNK N   1       9.725   9.761   0.872  0.00  0.00    -0.361 OA
ENDBRANCH  32  33
ENDBRANCH  25  32
ENDBRANCH  21  22
ENDBRANCH   9  21
BRANCH  18  39
HETATM   39  C   UNK N   1       9.036  -0.228   0.345  0.00  0.00     0.184 C 
HETATM   40  O   UNK N   1      10.214   0.095   0.366  0.00  0.00    -0.292 OA
BRANCH  39  41
HETATM   41  C   UNK N   1       8.644  -1.537   0.966  0.00  0.00     0.245 C 
BRANCH  41  42
HETATM   42  O   UNK N   1       7.736  -1.341   2.006  0.00  0.00    -0.393 OA
HETATM   43  H   UNK N   1       7.538  -0.726   2.729  0.00  0.00     0.209 HD
ENDBRANCH  41  42
ENDBRANCH  39  41
ENDBRANCH  18  39
BRANCH  18  44
HETATM   44  O   UNK N   1       8.403   0.660  -1.726  0.00  0.00    -0.382 OA
HETATM   45  H   UNK N   1       8.531   0.443  -2.663  0.00  0.00     0.211 HD
ENDBRANCH  18  44
BRANCH  17  46
HETATM   46  O   UNK N   1       4.815   4.729  -0.493  0.00  0.00    -0.359 OA
HETATM   47  H   UNK N   1       5.688   5.059  -0.577  0.00  0.00     0.217 HD
ENDBRANCH  17  46
BRANCH  15  48
HETATM   48  O   UNK N   1       3.957  -0.688  -0.049  0.00  0.00    -0.359 OA
HETATM   49  H   UNK N   1       3.089  -1.034   0.025  0.00  0.00     0.217 HD
ENDBRANCH  15  48
BRANCH   8  50
HETATM   50  O   UNK N   1      -0.376   5.543  -0.113  0.00  0.00    -0.355 OA
HETATM   51  C   UNK N   1       0.258   6.273   0.865  0.00  0.00     0.210 C 
ENDBRANCH   8  50
TORSDOF 12
