REMARK  4 active torsions:
REMARK  status: ('A' for Active; 'I' for Inactive)
REMARK    1  A    between atoms: C_12  and  N_27 
REMARK    2  A    between atoms: C_13  and  N_33 
REMARK    3  A    between atoms: C_14  and  O_34 
REMARK    4  A    between atoms: N_30  and  C_18 
REMARK       I    between atoms: N_27  and  C_20 
REMARK       I    between atoms: N_30  and  C_21 
ROOT
HETATM    1  C   UNK N   1       3.171   0.646  -0.190  0.00  0.00     0.140 A 
HETATM    2  C   UNK N   1       1.965  -0.011  -0.143  0.00  0.00     0.110 A 
HETATM    3  C   UNK N   1       1.887  -1.352  -0.269  0.00  0.00     0.168 A 
HETATM    4  C   UNK N   1       4.212  -1.480  -0.472  0.00  0.00     0.679 A 
HETATM    5  C   UNK N   1      -0.083  -0.551  -0.045  0.00  0.00     0.687 A 
HETATM    6  N   UNK N   1       4.286  -0.114  -0.349  0.00  0.00    -0.200 N 
ATOM      7  HN  UNK N   1       5.198   0.341  -0.378  1.00  0.00     0.183 HD
HETATM    8  N   UNK N   1       5.399  -2.244  -0.537  0.00  0.00    -0.221 N 
HETATM    9  N   UNK N   1       0.752   0.508   0.003  0.00  0.00    -0.186 N 
ATOM     10  HN  UNK N   1       0.505   1.491   0.124  1.00  0.00     0.184 HD
HETATM   11  N   UNK N   1      -1.501  -0.439   0.027  0.00  0.00    -0.185 N 
HETATM   12  N   UNK N   1       2.994  -2.115  -0.442  0.00  0.00    -0.174 N 
ATOM     13  HN  UNK N   1       2.925  -3.127  -0.545  1.00  0.00     0.186 HD
HETATM   14  N   UNK N   1       0.592  -1.731  -0.202  0.00  0.00    -0.158 N 
HETATM   15  H   UNK N   1       5.564  -2.797  -1.334  0.00  0.00     0.178 HD
HETATM   16  H   UNK N   1      -1.988  -1.293   0.073  0.00  0.00     0.184 HD
ENDROOT
BRANCH  11  17
HETATM   17  C   UNK N   1      -2.329   0.743   0.043  0.00  0.00     0.126 A 
HETATM   18  C   UNK N   1      -1.855   2.097  -0.007  0.00  0.00     0.149 A 
HETATM   19  C   UNK N   1      -2.760   3.157  -0.007  0.00  0.00     0.087 A 
HETATM   20  F   UNK N   1      -0.560   2.453  -0.065  0.00  0.00    -0.203 F 
HETATM   21  C   UNK N   1      -4.126   2.928   0.039  0.00  0.00     0.122 A 
HETATM   22  C   UNK N   1      -4.608   1.624   0.089  0.00  0.00     0.087 A 
HETATM   23  F   UNK N   1      -4.982   3.978   0.030  0.00  0.00    -0.206 F 
HETATM   24  C   UNK N   1      -3.722   0.542   0.092  0.00  0.00     0.149 A 
HETATM   25  F   UNK N   1      -4.225  -0.716   0.133  0.00  0.00    -0.203 F 
ENDBRANCH  11  17
BRANCH  14  26
HETATM   26  C   UNK N   1       0.009  -3.084  -0.305  0.00  0.00     0.135 C 
HETATM   27  C   UNK N   1      -0.727  -3.487   0.931  0.00  0.00     0.055 C 
HETATM   28  C   UNK N   1      -0.688  -5.002   0.838  0.00  0.00     0.169 C 
HETATM   29  O   UNK N   1       0.360  -5.387  -0.026  0.00  0.00    -0.389 OA
HETATM   30  C   UNK N   1       1.021  -4.201  -0.388  0.00  0.00     0.194 C 
ENDBRANCH  14  26
BRANCH   8  31
HETATM   31  C   UNK N   1       6.383  -2.241   0.532  0.00  0.00     0.099 C 
HETATM   32  C   UNK N   1       7.784  -2.530  -0.027  0.00  0.00     0.028 C 
HETATM   33  C   UNK N   1       8.781  -1.376   0.149  0.00  0.00     0.034 C 
HETATM   34  C   UNK N   1       8.127  -0.036  -0.169  0.00  0.00     0.118 C 
HETATM   35  C   UNK N   1       6.973   0.261   0.792  0.00  0.00     0.034 C 
HETATM   36  C   UNK N   1       6.351  -0.989   1.432  0.00  0.00     0.028 C 
BRANCH  34  37
HETATM   37  O   UNK N   1       9.075   0.981  -0.060  0.00  0.00    -0.396 OA
HETATM   38  H   UNK N   1      10.017   0.763   0.015  0.00  0.00     0.210 HD
ENDBRANCH  34  37
ENDBRANCH   8  31
TORSDOF 4
