REMARK  4 active torsions:
REMARK  status: ('A' for Active; 'I' for Inactive)
REMARK    1  A    between atoms: C_5  and  C_8 
REMARK    2  A    between atoms: C_8  and  N_9 
REMARK       I    between atoms: N_9  and  C_10 
REMARK    3  A    between atoms: C_10  and  C_12 
REMARK    4  A    between atoms: C_16  and  O_19 
ROOT
HETATM    1  C   UNK N   1      -3.271   1.765  -0.541  0.00  0.00     0.100 A 
HETATM    2  C   UNK N   1      -2.063   2.310  -0.128  0.00  0.00     0.113 A 
HETATM    3  N   UNK N   1      -0.970   1.535   0.082  0.00  0.00    -0.345 N 
HETATM    4  C   UNK N   1      -1.007   0.183  -0.137  0.00  0.00     0.141 A 
HETATM    5  C   UNK N   1      -2.214  -0.415  -0.576  0.00  0.00     0.150 A 
HETATM    6  C   UNK N   1      -3.346   0.383  -0.773  0.00  0.00     0.224 A 
HETATM    7  O   UNK N   1      -4.375  -0.119  -1.191  0.00  0.00    -0.284 OA
HETATM    8  C   UNK N   1       0.227  -0.620   0.048  0.00  0.00     0.276 A 
HETATM    9  O   UNK N   1       0.207  -1.827  -0.160  0.00  0.00    -0.266 OA
HETATM   10  N   UNK N   1       1.398  -0.017   0.395  0.00  0.00    -0.313 N 
HETATM   11  C   UNK N   1       2.647  -0.775   0.400  0.00  0.00     0.092 C 
HETATM   12  C   UNK N   1       3.027  -1.015  -1.056  0.00  0.00     0.028 C 
HETATM   13  C   UNK N   1       3.584   0.328  -1.536  0.00  0.00     0.034 C 
HETATM   14  C   UNK N   1       3.680   1.194  -0.283  0.00  0.00     0.126 C 
HETATM   15  C   UNK N   1       3.780   0.144   0.824  0.00  0.00     0.057 C 
HETATM   16  O   UNK N   1       2.499   2.001  -0.188  0.00  0.00    -0.359 OA
HETATM   17  C   UNK N   1       1.501   1.418   0.642  0.00  0.00     0.245 A 
HETATM   18  C   UNK N   1       0.218   2.234   0.552  0.00  0.00     0.182 A 
ENDROOT
BRANCH   1  19
HETATM   19  C   UNK N   1      -4.422   2.673  -0.754  0.00  0.00     0.257 C 
HETATM   20  N   UNK N   1      -5.623   2.465  -0.160  0.00  0.00    -0.352 N 
HETATM   21  H   UNK N   1      -6.391   3.007  -0.452  0.00  0.00     0.163 HD
HETATM   22  O   UNK N   1      -4.258   3.689  -1.411  0.00  0.00    -0.267 OA
BRANCH  20  23
HETATM   23  C   UNK N   1      -5.828   1.484   0.882  0.00  0.00     0.167 C 
BRANCH  23  24
HETATM   24  C   UNK N   1      -6.924   0.533   0.537  0.00  0.00     0.037 A 
HETATM   25  C   UNK N   1      -8.197   1.004   0.171  0.00  0.00     0.130 A 
HETATM   26  C   UNK N   1      -9.211   0.097  -0.143  0.00  0.00     0.085 A 
HETATM   27  F   UNK N   1      -8.453   2.336   0.117  0.00  0.00    -0.205 F 
HETATM   28  C   UNK N   1      -8.966  -1.277  -0.086  0.00  0.00     0.122 A 
HETATM   29  C   UNK N   1      -7.708  -1.749   0.294  0.00  0.00     0.085 A 
HETATM   30  F   UNK N   1      -9.951  -2.153  -0.393  0.00  0.00    -0.206 F 
HETATM   31  C   UNK N   1      -6.688  -0.849   0.608  0.00  0.00     0.130 A 
HETATM   32  F   UNK N   1      -5.477  -1.324   0.994  0.00  0.00    -0.205 F 
ENDBRANCH  23  24
ENDBRANCH  20  23
ENDBRANCH   1  19
BRANCH   5  33
HETATM   33  O   UNK N   1      -2.285  -1.737  -0.827  0.00  0.00    -0.355 OA
HETATM   34  H   UNK N   1      -3.106  -2.154  -1.001  0.00  0.00     0.218 HD
ENDBRANCH   5  33
TORSDOF 4
