MODEL 1
REMARK VINA RESULT:      -9.5      0.000      0.000
REMARK  9 active torsions:
REMARK  status: ('A' for Active; 'I' for Inactive)
REMARK    1  A    between atoms: C_21  and  C_16 
REMARK    2  A    between atoms: N_46  and  C_16 
REMARK    3  A    between atoms: C_28  and  C_20 
REMARK    4  A    between atoms: C_26  and  C_22 
REMARK    5  A    between atoms: N_40  and  C_23 
REMARK    6  A    between atoms: C_24  and  N_45 
REMARK    7  A    between atoms: C_30  and  C_25 
REMARK    8  A    between atoms: N_44  and  C_27 
REMARK    9  A    between atoms: O_47  and  C_28 
REMARK       I    between atoms: N_44  and  C_29 
ROOT
HETATM    1  C   UNK N   1      21.128  19.284   3.429  0.00  0.00     0.050 C 
HETATM    2  C   UNK N   1      23.521  19.677   3.812  0.00  0.00     0.011 A 
HETATM    3  C   UNK N   1      24.770  19.331   4.314  0.00  0.00     0.030 A 
HETATM    4  C   UNK N   1      23.882  17.190   5.001  0.00  0.00     0.060 A 
HETATM    5  C   UNK N   1      22.441  18.794   3.925  0.00  0.00    -0.035 A 
HETATM    6  C   UNK N   1      24.933  18.082   4.902  0.00  0.00     0.036 A 
HETATM    7  C   UNK N   1      22.632  17.517   4.538  0.00  0.00     0.057 A 
ENDROOT
BRANCH   6   8
HETATM    8  N   UNK N   1      26.112  17.690   5.510  0.00  0.00    -0.336 N 
HETATM    9  C   UNK N   1      27.119  17.114   4.951  0.00  0.00     0.150 C 
ATOM     10  HN  UNK N   1      26.193  17.877   6.509  1.00  0.00     0.168 HD
BRANCH   9  11
HETATM   11  C   UNK N   1      28.333  17.067   5.757  0.00  0.00     0.015 A 
HETATM   12  C   UNK N   1      29.637  16.990   5.264  0.00  0.00     0.016 A 
HETATM   13  C   UNK N   1      30.708  17.124   6.167  0.00  0.00     0.011 A 
HETATM   14  C   UNK N   1      30.468  17.396   7.535  0.00  0.00    -0.015 A 
HETATM   15  C   UNK N   1      29.132  17.512   7.994  0.00  0.00     0.056 A 
HETATM   16  C   UNK N   1      28.128  17.315   7.100  0.00  0.00     0.032 A 
BRANCH  14  17
HETATM   17  C   UNK N   1      31.650  17.506   8.459  0.00  0.00     0.311 C 
BRANCH  17  18
HETATM   18  N   UNK N   1      32.664  16.440   8.322  0.00  0.00     0.094 N 
HETATM   19  C   UNK N   1      32.257  15.123   8.823  0.00  0.00     0.275 C 
HETATM   20  C   UNK N   1      33.415  14.523   9.584  0.00  0.00     0.068 C 
HETATM   21  C   UNK N   1      34.362  15.679   9.873  0.00  0.00     0.252 C 
HETATM   22  C   UNK N   1      33.863  16.849   9.040  0.00  0.00     0.308 C 
BRANCH  21  23
HETATM   23  N   UNK N   1      35.758  15.375   9.531  0.00  0.00     0.086 N 
HETATM   24  C   UNK N   1      36.550  15.217  10.742  0.00  0.00     0.310 C 
HETATM   25  C   UNK N   1      35.861  14.137   8.762  0.00  0.00     0.310 C 
ENDBRANCH  21  23
ENDBRANCH  17  18
ENDBRANCH  14  17
BRANCH  15  26
HETATM   26  C   UNK N   1      28.649  17.887   9.370  0.00  0.00     0.418 C 
HETATM   27  F   UNK N   1      28.679  16.771  10.186  0.00  0.00    -0.166 F 
HETATM   28  F   UNK N   1      29.348  18.934   9.920  0.00  0.00    -0.166 F 
HETATM   29  F   UNK N   1      27.328  18.301   9.287  0.00  0.00    -0.166 F 
ENDBRANCH  15  26
ENDBRANCH   9  11
BRANCH   9  30
HETATM   30  O   UNK N   1      27.110  16.778   3.645  0.00  0.00    -0.345 OA
HETATM   31  H   UNK N   1      26.624  16.033   3.348  0.00  0.00     0.219 HD
ENDBRANCH   9  30
ENDBRANCH   6   8
BRANCH   7  32
HETATM   32  N   UNK N   1      21.600  16.564   4.747  0.00  0.00    -0.191 N 
HETATM   33  C   UNK N   1      21.251  16.155   6.027  0.00  0.00     0.683 A 
HETATM   34  N   UNK N   1      21.799  15.025   6.553  0.00  0.00    -0.202 N 
HETATM   35  N   UNK N   1      20.536  16.994   6.817  0.00  0.00    -0.191 N 
HETATM   36  C   UNK N   1      21.644  14.729   7.864  0.00  0.00     0.108 A 
ATOM     37  HN  UNK N   1      22.332  14.396   5.953  1.00  0.00     0.183 HD
HETATM   38  C   UNK N   1      20.914  15.583   8.689  0.00  0.00     0.048 A 
HETATM   39  C   UNK N   1      20.340  16.731   8.125  0.00  0.00     0.063 A 
ATOM     40  HN  UNK N   1      20.138  17.842   6.413  1.00  0.00     0.184 HD
HETATM   41  H   UNK N   1      21.124  16.188   3.972  0.00  0.00     0.184 HD
BRANCH  39  42
HETATM   42  C   UNK N   1      19.466  17.607   8.918  0.00  0.00     0.022 A 
HETATM   43  C   UNK N   1      19.949  18.784   9.491  0.00  0.00     0.104 A 
HETATM   44  N   UNK N   1      19.148  19.523  10.301  0.00  0.00    -0.361 N 
HETATM   45  C   UNK N   1      17.878  19.125  10.575  0.00  0.00     0.180 A 
ATOM     46  HN  UNK N   1      19.505  20.386  10.709  1.00  0.00     0.166 HD
HETATM   47  N   UNK N   1      17.383  17.987  10.021  0.00  0.00    -0.361 N 
HETATM   48  C   UNK N   1      18.150  17.225   9.200  0.00  0.00     0.104 A 
ATOM     49  HN  UNK N   1      16.424  17.704  10.223  1.00  0.00     0.166 HD
ENDBRANCH  39  42
ENDBRANCH   7  32
TORSDOF 9
ENDMDL
MODEL 2
REMARK VINA RESULT:      -9.1      1.870      2.250
REMARK  9 active torsions:
REMARK  status: ('A' for Active; 'I' for Inactive)
REMARK    1  A    between atoms: C_21  and  C_16 
REMARK    2  A    between atoms: N_46  and  C_16 
REMARK    3  A    between atoms: C_28  and  C_20 
REMARK    4  A    between atoms: C_26  and  C_22 
REMARK    5  A    between atoms: N_40  and  C_23 
REMARK    6  A    between atoms: C_24  and  N_45 
REMARK    7  A    between atoms: C_30  and  C_25 
REMARK    8  A    between atoms: N_44  and  C_27 
REMARK    9  A    between atoms: O_47  and  C_28 
REMARK       I    between atoms: N_44  and  C_29 
ROOT
HETATM    1  C   UNK N   1      20.802  19.237   3.091  0.00  0.00     0.050 C 
HETATM    2  C   UNK N   1      23.168  19.751   3.495  0.00  0.00     0.011 A 
HETATM    3  C   UNK N   1      24.415  19.495   4.053  0.00  0.00     0.030 A 
HETATM    4  C   UNK N   1      23.587  17.387   4.897  0.00  0.00     0.060 A 
HETATM    5  C   UNK N   1      22.118  18.840   3.657  0.00  0.00    -0.035 A 
HETATM    6  C   UNK N   1      24.608  18.307   4.748  0.00  0.00     0.036 A 
HETATM    7  C   UNK N   1      22.339  17.626   4.379  0.00  0.00     0.057 A 
ENDROOT
BRANCH   6   8
HETATM    8  N   UNK N   1      25.783  18.012   5.414  0.00  0.00    -0.336 N 
HETATM    9  C   UNK N   1      26.838  17.465   4.920  0.00  0.00     0.150 C 
ATOM     10  HN  UNK N   1      25.819  18.255   6.404  1.00  0.00     0.168 HD
BRANCH   9  11
HETATM   11  C   UNK N   1      28.024  17.526   5.767  0.00  0.00     0.015 A 
HETATM   12  C   UNK N   1      28.034  17.467   7.162  0.00  0.00     0.016 A 
HETATM   13  C   UNK N   1      29.272  17.368   7.823  0.00  0.00     0.011 A 
HETATM   14  C   UNK N   1      30.477  17.266   7.088  0.00  0.00    -0.015 A 
HETATM   15  C   UNK N   1      30.426  17.284   5.671  0.00  0.00     0.056 A 
HETATM   16  C   UNK N   1      29.216  17.442   5.075  0.00  0.00     0.032 A 
BRANCH  14  17
HETATM   17  C   UNK N   1      31.773  17.186   7.847  0.00  0.00     0.311 C 
BRANCH  17  18
HETATM   18  N   UNK N   1      32.367  15.837   7.948  0.00  0.00     0.094 N 
HETATM   19  C   UNK N   1      32.203  15.178   9.248  0.00  0.00     0.275 C 
HETATM   20  C   UNK N   1      33.509  14.514   9.614  0.00  0.00     0.068 C 
HETATM   21  C   UNK N   1      34.559  15.141   8.708  0.00  0.00     0.252 C 
HETATM   22  C   UNK N   1      33.793  15.940   7.666  0.00  0.00     0.308 C 
BRANCH  21  23
HETATM   23  N   UNK N   1      35.416  14.145   8.050  0.00  0.00     0.086 N 
HETATM   24  C   UNK N   1      36.654  13.973   8.797  0.00  0.00     0.310 C 
HETATM   25  C   UNK N   1      34.756  12.844   7.970  0.00  0.00     0.310 C 
ENDBRANCH  21  23
ENDBRANCH  17  18
ENDBRANCH  14  17
BRANCH  15  26
HETATM   26  C   UNK N   1      31.558  17.095   4.696  0.00  0.00     0.418 C 
HETATM   27  F   UNK N   1      31.078  17.227   3.406  0.00  0.00    -0.166 F 
HETATM   28  F   UNK N   1      32.618  17.936   4.931  0.00  0.00    -0.166 F 
HETATM   29  F   UNK N   1      32.050  15.804   4.822  0.00  0.00    -0.166 F 
ENDBRANCH  15  26
ENDBRANCH   9  11
BRANCH   9  30
HETATM   30  O   UNK N   1      26.894  17.062   3.634  0.00  0.00    -0.345 OA
HETATM   31  H   UNK N   1      26.960  17.690   2.941  0.00  0.00     0.219 HD
ENDBRANCH   9  30
ENDBRANCH   6   8
BRANCH   7  32
HETATM   32  N   UNK N   1      21.336  16.655   4.644  0.00  0.00    -0.191 N 
HETATM   33  C   UNK N   1      21.065  16.240   5.940  0.00  0.00     0.683 A 
HETATM   34  N   UNK N   1      21.661  15.121   6.435  0.00  0.00    -0.202 N 
HETATM   35  N   UNK N   1      20.380  17.067   6.769  0.00  0.00    -0.191 N 
HETATM   36  C   UNK N   1      21.583  14.821   7.752  0.00  0.00     0.108 A 
ATOM     37  HN  UNK N   1      22.171  14.501   5.806  1.00  0.00     0.183 HD
HETATM   38  C   UNK N   1      20.884  15.663   8.616  0.00  0.00     0.048 A 
HETATM   39  C   UNK N   1      20.260  16.800   8.085  0.00  0.00     0.063 A 
ATOM     40  HN  UNK N   1      19.945  17.907   6.388  1.00  0.00     0.184 HD
HETATM   41  H   UNK N   1      20.826  16.271   3.895  0.00  0.00     0.184 HD
BRANCH  39  42
HETATM   42  C   UNK N   1      19.416  17.661   8.926  0.00  0.00     0.022 A 
HETATM   43  C   UNK N   1      19.920  18.825   9.506  0.00  0.00     0.104 A 
HETATM   44  N   UNK N   1      19.149  19.548  10.358  0.00  0.00    -0.361 N 
HETATM   45  C   UNK N   1      17.888  19.146  10.667  0.00  0.00     0.180 A 
ATOM     46  HN  UNK N   1      19.521  20.402  10.772  1.00  0.00     0.166 HD
HETATM   47  N   UNK N   1      17.372  18.021  10.106  0.00  0.00    -0.361 N 
HETATM   48  C   UNK N   1      18.109  17.275   9.244  0.00  0.00     0.104 A 
ATOM     49  HN  UNK N   1      16.420  17.735  10.334  1.00  0.00     0.166 HD
ENDBRANCH  39  42
ENDBRANCH   7  32
TORSDOF 9
ENDMDL
MODEL 3
REMARK VINA RESULT:      -8.9      3.199      4.862
REMARK  9 active torsions:
REMARK  status: ('A' for Active; 'I' for Inactive)
REMARK    1  A    between atoms: C_21  and  C_16 
REMARK    2  A    between atoms: N_46  and  C_16 
REMARK    3  A    between atoms: C_28  and  C_20 
REMARK    4  A    between atoms: C_26  and  C_22 
REMARK    5  A    between atoms: N_40  and  C_23 
REMARK    6  A    between atoms: C_24  and  N_45 
REMARK    7  A    between atoms: C_30  and  C_25 
REMARK    8  A    between atoms: N_44  and  C_27 
REMARK    9  A    between atoms: O_47  and  C_28 
REMARK       I    between atoms: N_44  and  C_29 
ROOT
HETATM    1  C   UNK N   1      22.294  20.549   2.691  0.00  0.00     0.050 C 
HETATM    2  C   UNK N   1      24.701  20.534   3.169  0.00  0.00     0.011 A 
HETATM    3  C   UNK N   1      25.841  20.025   3.779  0.00  0.00     0.030 A 
HETATM    4  C   UNK N   1      24.535  18.188   4.649  0.00  0.00     0.060 A 
HETATM    5  C   UNK N   1      23.469  19.887   3.316  0.00  0.00    -0.035 A 
HETATM    6  C   UNK N   1      25.741  18.849   4.514  0.00  0.00     0.036 A 
HETATM    7  C   UNK N   1      23.390  18.682   4.079  0.00  0.00     0.057 A 
ENDROOT
BRANCH   6   8
HETATM    8  N   UNK N   1      26.799  18.322   5.231  0.00  0.00    -0.336 N 
HETATM    9  C   UNK N   1      27.677  17.479   4.812  0.00  0.00     0.150 C 
ATOM     10  HN  UNK N   1      26.895  18.635   6.197  1.00  0.00     0.168 HD
BRANCH   9  11
HETATM   11  C   UNK N   1      28.837  17.308   5.678  0.00  0.00     0.015 A 
HETATM   12  C   UNK N   1      30.159  17.158   5.253  0.00  0.00     0.016 A 
HETATM   13  C   UNK N   1      31.184  17.174   6.217  0.00  0.00     0.011 A 
HETATM   14  C   UNK N   1      30.886  17.402   7.582  0.00  0.00    -0.015 A 
HETATM   15  C   UNK N   1      29.537  17.596   7.973  0.00  0.00     0.056 A 
HETATM   16  C   UNK N   1      28.575  17.512   7.018  0.00  0.00     0.032 A 
BRANCH  14  17
HETATM   17  C   UNK N   1      32.019  17.385   8.572  0.00  0.00     0.311 C 
BRANCH  17  18
HETATM   18  N   UNK N   1      32.947  16.242   8.454  0.00  0.00     0.094 N 
HETATM   19  C   UNK N   1      32.492  15.000   9.088  0.00  0.00     0.275 C 
HETATM   20  C   UNK N   1      33.660  14.380   9.815  0.00  0.00     0.068 C 
HETATM   21  C   UNK N   1      34.700  15.484   9.943  0.00  0.00     0.252 C 
HETATM   22  C   UNK N   1      34.220  16.619   9.053  0.00  0.00     0.308 C 
BRANCH  21  23
HETATM   23  N   UNK N   1      36.044  15.055   9.534  0.00  0.00     0.086 N 
HETATM   24  C   UNK N   1      36.737  14.432  10.652  0.00  0.00     0.310 C 
HETATM   25  C   UNK N   1      35.985  14.083   8.445  0.00  0.00     0.310 C 
ENDBRANCH  21  23
ENDBRANCH  17  18
ENDBRANCH  14  17
BRANCH  15  26
HETATM   26  C   UNK N   1      29.005  17.945   9.338  0.00  0.00     0.418 C 
HETATM   27  F   UNK N   1      29.083  16.834  10.158  0.00  0.00    -0.166 F 
HETATM   28  F   UNK N   1      29.629  19.032   9.899  0.00  0.00    -0.166 F 
HETATM   29  F   UNK N   1      27.664  18.280   9.226  0.00  0.00    -0.166 F 
ENDBRANCH  15  26
ENDBRANCH   9  11
BRANCH   9  30
HETATM   30  O   UNK N   1      27.628  16.962   3.567  0.00  0.00    -0.345 OA
HETATM   31  H   UNK N   1      27.620  16.034   3.437  0.00  0.00     0.219 HD
ENDBRANCH   9  30
ENDBRANCH   6   8
BRANCH   7  32
HETATM   32  N   UNK N   1      22.186  17.970   4.333  0.00  0.00    -0.191 N 
HETATM   33  C   UNK N   1      21.504  17.327   3.309  0.00  0.00     0.683 A 
HETATM   34  N   UNK N   1      20.480  17.960   2.673  0.00  0.00    -0.202 N 
HETATM   35  N   UNK N   1      21.999  16.167   2.811  0.00  0.00    -0.191 N 
HETATM   36  C   UNK N   1      19.949  17.446   1.540  0.00  0.00     0.108 A 
ATOM     37  HN  UNK N   1      20.109  18.830   3.055  1.00  0.00     0.183 HD
HETATM   38  C   UNK N   1      20.449  16.255   1.015  0.00  0.00     0.048 A 
HETATM   39  C   UNK N   1      21.490  15.608   1.695  0.00  0.00     0.063 A 
ATOM     40  HN  UNK N   1      22.773  15.708   3.292  1.00  0.00     0.184 HD
HETATM   41  H   UNK N   1      21.832  17.931   5.250  0.00  0.00     0.184 HD
BRANCH  39  42
HETATM   42  C   UNK N   1      21.980  14.295   1.253  0.00  0.00     0.022 A 
HETATM   43  C   UNK N   1      23.316  14.100   0.904  0.00  0.00     0.104 A 
HETATM   44  N   UNK N   1      23.721  12.905   0.405  0.00  0.00    -0.361 N 
HETATM   45  C   UNK N   1      22.835  11.890   0.225  0.00  0.00     0.180 A 
ATOM     46  HN  UNK N   1      24.701  12.767   0.161  1.00  0.00     0.166 HD
HETATM   47  N   UNK N   1      21.530  12.052   0.566  0.00  0.00    -0.361 N 
HETATM   48  C   UNK N   1      21.088  13.231   1.076  0.00  0.00     0.104 A 
ATOM     49  HN  UNK N   1      20.876  11.280   0.439  1.00  0.00     0.166 HD
ENDBRANCH  39  42
ENDBRANCH   7  32
TORSDOF 9
ENDMDL
MODEL 4
REMARK VINA RESULT:      -8.8      3.877      5.576
REMARK  9 active torsions:
REMARK  status: ('A' for Active; 'I' for Inactive)
REMARK    1  A    between atoms: C_21  and  C_16 
REMARK    2  A    between atoms: N_46  and  C_16 
REMARK    3  A    between atoms: C_28  and  C_20 
REMARK    4  A    between atoms: C_26  and  C_22 
REMARK    5  A    between atoms: N_40  and  C_23 
REMARK    6  A    between atoms: C_24  and  N_45 
REMARK    7  A    between atoms: C_30  and  C_25 
REMARK    8  A    between atoms: N_44  and  C_27 
REMARK    9  A    between atoms: O_47  and  C_28 
REMARK       I    between atoms: N_44  and  C_29 
ROOT
HETATM    1  C   UNK N   1      21.379  20.524   2.619  0.00  0.00     0.050 C 
HETATM    2  C   UNK N   1      23.787  20.944   2.836  0.00  0.00     0.011 A 
HETATM    3  C   UNK N   1      25.065  20.632   3.283  0.00  0.00     0.030 A 
HETATM    4  C   UNK N   1      24.232  18.536   4.151  0.00  0.00     0.060 A 
HETATM    5  C   UNK N   1      22.720  20.067   3.066  0.00  0.00    -0.035 A 
HETATM    6  C   UNK N   1      25.270  19.422   3.937  0.00  0.00     0.036 A 
HETATM    7  C   UNK N   1      22.955  18.831   3.744  0.00  0.00     0.057 A 
ENDROOT
BRANCH   6   8
HETATM    8  N   UNK N   1      26.485  19.070   4.497  0.00  0.00    -0.336 N 
HETATM    9  C   UNK N   1      26.929  19.402   5.659  0.00  0.00     0.150 C 
ATOM     10  HN  UNK N   1      27.095  18.484   3.928  1.00  0.00     0.168 HD
BRANCH   9  11
HETATM   11  C   UNK N   1      28.107  18.668   6.105  0.00  0.00     0.015 A 
HETATM   12  C   UNK N   1      28.408  18.335   7.428  0.00  0.00     0.016 A 
HETATM   13  C   UNK N   1      29.496  17.478   7.676  0.00  0.00     0.011 A 
HETATM   14  C   UNK N   1      30.229  16.914   6.605  0.00  0.00    -0.015 A 
HETATM   15  C   UNK N   1      29.868  17.238   5.273  0.00  0.00     0.056 A 
HETATM   16  C   UNK N   1      28.850  18.117   5.081  0.00  0.00     0.032 A 
BRANCH  14  17
HETATM   17  C   UNK N   1      31.397  16.023   6.930  0.00  0.00     0.311 C 
BRANCH  17  18
HETATM   18  N   UNK N   1      32.263  16.489   8.033  0.00  0.00     0.094 N 
HETATM   19  C   UNK N   1      33.063  17.682   7.736  0.00  0.00     0.275 C 
HETATM   20  C   UNK N   1      34.455  17.470   8.283  0.00  0.00     0.068 C 
HETATM   21  C   UNK N   1      34.575  15.975   8.538  0.00  0.00     0.252 C 
HETATM   22  C   UNK N   1      33.171  15.409   8.393  0.00  0.00     0.308 C 
BRANCH  21  23
HETATM   23  N   UNK N   1      35.110  15.662   9.870  0.00  0.00     0.086 N 
HETATM   24  C   UNK N   1      35.311  16.885  10.633  0.00  0.00     0.310 C 
HETATM   25  C   UNK N   1      34.196  14.807  10.624  0.00  0.00     0.310 C 
ENDBRANCH  21  23
ENDBRANCH  17  18
ENDBRANCH  14  17
BRANCH  15  26
HETATM   26  C   UNK N   1      30.439  16.687   3.993  0.00  0.00     0.418 C 
HETATM   27  F   UNK N   1      31.624  17.338   3.703  0.00  0.00    -0.166 F 
HETATM   28  F   UNK N   1      30.605  15.323   4.020  0.00  0.00    -0.166 F 
HETATM   29  F   UNK N   1      29.558  16.951   2.955  0.00  0.00    -0.166 F 
ENDBRANCH  15  26
ENDBRANCH   9  11
BRANCH   9  30
HETATM   30  O   UNK N   1      26.229  20.208   6.483  0.00  0.00    -0.345 OA
HETATM   31  H   UNK N   1      25.346  20.447   6.279  0.00  0.00     0.219 HD
ENDBRANCH   9  30
ENDBRANCH   6   8
BRANCH   7  32
HETATM   32  N   UNK N   1      21.942  17.890   4.072  0.00  0.00    -0.191 N 
HETATM   33  C   UNK N   1      21.460  16.997   3.125  0.00  0.00     0.683 A 
HETATM   34  N   UNK N   1      20.338  17.298   2.415  0.00  0.00    -0.202 N 
HETATM   35  N   UNK N   1      22.226  15.936   2.767  0.00  0.00    -0.191 N 
HETATM   36  C   UNK N   1      19.977  16.551   1.346  0.00  0.00     0.108 A 
ATOM     37  HN  UNK N   1      19.764  18.094   2.692  1.00  0.00     0.183 HD
HETATM   38  C   UNK N   1      20.756  15.460   0.965  0.00  0.00     0.048 A 
HETATM   39  C   UNK N   1      21.896  15.153   1.720  0.00  0.00     0.063 A 
ATOM     40  HN  UNK N   1      23.069  15.726   3.301  1.00  0.00     0.184 HD
HETATM   41  H   UNK N   1      21.577  17.872   4.986  0.00  0.00     0.184 HD
BRANCH  39  42
HETATM   42  C   UNK N   1      22.691  13.950   1.435  0.00  0.00     0.022 A 
HETATM   43  C   UNK N   1      23.904  13.714   2.081  0.00  0.00     0.104 A 
HETATM   44  N   UNK N   1      24.666  12.648   1.727  0.00  0.00    -0.361 N 
HETATM   45  C   UNK N   1      24.268  11.807   0.737  0.00  0.00     0.180 A 
ATOM     46  HN  UNK N   1      25.548  12.476   2.210  1.00  0.00     0.166 HD
HETATM   47  N   UNK N   1      23.085  12.010   0.100  0.00  0.00    -0.361 N 
HETATM   48  C   UNK N   1      22.292  13.062   0.430  0.00  0.00     0.104 A 
ATOM     49  HN  UNK N   1      22.789  11.366  -0.634  1.00  0.00     0.166 HD
ENDBRANCH  39  42
ENDBRANCH   7  32
TORSDOF 9
ENDMDL
MODEL 5
REMARK VINA RESULT:      -8.7      2.509      3.049
REMARK  9 active torsions:
REMARK  status: ('A' for Active; 'I' for Inactive)
REMARK    1  A    between atoms: C_21  and  C_16 
REMARK    2  A    between atoms: N_46  and  C_16 
REMARK    3  A    between atoms: C_28  and  C_20 
REMARK    4  A    between atoms: C_26  and  C_22 
REMARK    5  A    between atoms: N_40  and  C_23 
REMARK    6  A    between atoms: C_24  and  N_45 
REMARK    7  A    between atoms: C_30  and  C_25 
REMARK    8  A    between atoms: N_44  and  C_27 
REMARK    9  A    between atoms: O_47  and  C_28 
REMARK       I    between atoms: N_44  and  C_29 
ROOT
HETATM    1  C   UNK N   1      22.152  20.367   2.833  0.00  0.00     0.050 C 
HETATM    2  C   UNK N   1      24.587  20.272   3.129  0.00  0.00     0.011 A 
HETATM    3  C   UNK N   1      25.747  19.774   3.710  0.00  0.00     0.030 A 
HETATM    4  C   UNK N   1      24.431  18.126   4.888  0.00  0.00     0.060 A 
HETATM    5  C   UNK N   1      23.341  19.717   3.444  0.00  0.00    -0.035 A 
HETATM    6  C   UNK N   1      25.651  18.699   4.585  0.00  0.00     0.036 A 
HETATM    7  C   UNK N   1      23.267  18.614   4.349  0.00  0.00     0.057 A 
ENDROOT
BRANCH   6   8
HETATM    8  N   UNK N   1      26.738  18.199   5.279  0.00  0.00    -0.336 N 
HETATM    9  C   UNK N   1      27.623  17.371   4.844  0.00  0.00     0.150 C 
ATOM     10  HN  UNK N   1      26.851  18.521   6.240  1.00  0.00     0.168 HD
BRANCH   9  11
HETATM   11  C   UNK N   1      28.807  17.232   5.683  0.00  0.00     0.015 A 
HETATM   12  C   UNK N   1      30.117  17.075   5.225  0.00  0.00     0.016 A 
HETATM   13  C   UNK N   1      31.168  17.125   6.159  0.00  0.00     0.011 A 
HETATM   14  C   UNK N   1      30.908  17.391   7.524  0.00  0.00    -0.015 A 
HETATM   15  C   UNK N   1      29.569  17.589   7.948  0.00  0.00     0.056 A 
HETATM   16  C   UNK N   1      28.581  17.473   7.023  0.00  0.00     0.032 A 
BRANCH  14  17
HETATM   17  C   UNK N   1      32.067  17.408   8.483  0.00  0.00     0.311 C 
BRANCH  17  18
HETATM   18  N   UNK N   1      32.915  16.198   8.474  0.00  0.00     0.094 N 
HETATM   19  C   UNK N   1      32.492  15.133   9.388  0.00  0.00     0.275 C 
HETATM   20  C   UNK N   1      33.719  14.575  10.071  0.00  0.00     0.068 C 
HETATM   21  C   UNK N   1      34.817  15.605   9.851  0.00  0.00     0.252 C 
HETATM   22  C   UNK N   1      34.274  16.587   8.825  0.00  0.00     0.308 C 
BRANCH  21  23
HETATM   23  N   UNK N   1      36.071  15.011   9.368  0.00  0.00     0.086 N 
HETATM   24  C   UNK N   1      36.929  14.661  10.490  0.00  0.00     0.310 C 
HETATM   25  C   UNK N   1      35.822  13.795   8.597  0.00  0.00     0.310 C 
ENDBRANCH  21  23
ENDBRANCH  17  18
ENDBRANCH  14  17
BRANCH  15  26
HETATM   26  C   UNK N   1      29.073  17.975   9.316  0.00  0.00     0.418 C 
HETATM   27  F   UNK N   1      29.196  16.893  10.169  0.00  0.00    -0.166 F 
HETATM   28  F   UNK N   1      29.694  19.091   9.820  0.00  0.00    -0.166 F 
HETATM   29  F   UNK N   1      27.723  18.283   9.235  0.00  0.00    -0.166 F 
ENDBRANCH  15  26
ENDBRANCH   9  11
BRANCH   9  30
HETATM   30  O   UNK N   1      27.553  16.844   3.604  0.00  0.00    -0.345 OA
HETATM   31  H   UNK N   1      26.753  16.877   3.117  0.00  0.00     0.219 HD
ENDBRANCH   9  30
ENDBRANCH   6   8
BRANCH   7  32
HETATM   32  N   UNK N   1      22.056  18.005   4.776  0.00  0.00    -0.191 N 
HETATM   33  C   UNK N   1      21.973  16.633   4.968  0.00  0.00     0.683 A 
HETATM   34  N   UNK N   1      21.511  15.832   3.968  0.00  0.00    -0.202 N 
HETATM   35  N   UNK N   1      22.550  16.084   6.066  0.00  0.00    -0.191 N 
HETATM   36  C   UNK N   1      21.625  14.487   4.053  0.00  0.00     0.108 A 
ATOM     37  HN  UNK N   1      21.075  16.252   3.148  1.00  0.00     0.183 HD
HETATM   38  C   UNK N   1      22.218  13.908   5.174  0.00  0.00     0.048 A 
HETATM   39  C   UNK N   1      22.669  14.747   6.203  0.00  0.00     0.063 A 
ATOM     40  HN  UNK N   1      22.900  16.694   6.804  1.00  0.00     0.184 HD
HETATM   41  H   UNK N   1      21.264  18.566   4.937  0.00  0.00     0.184 HD
BRANCH  39  42
HETATM   42  C   UNK N   1      23.198  14.191   7.456  0.00  0.00     0.022 A 
HETATM   43  C   UNK N   1      24.558  13.929   7.614  0.00  0.00     0.104 A 
HETATM   44  N   UNK N   1      25.006  13.322   8.743  0.00  0.00    -0.361 N 
HETATM   45  C   UNK N   1      24.141  12.951   9.724  0.00  0.00     0.180 A 
ATOM     46  HN  UNK N   1      26.003  13.142   8.857  1.00  0.00     0.166 HD
HETATM   47  N   UNK N   1      22.812  13.205   9.596  0.00  0.00    -0.361 N 
HETATM   48  C   UNK N   1      22.327  13.816   8.485  0.00  0.00     0.104 A 
ATOM     49  HN  UNK N   1      22.173  12.934  10.343  1.00  0.00     0.166 HD
ENDBRANCH  39  42
ENDBRANCH   7  32
TORSDOF 9
ENDMDL
MODEL 6
REMARK VINA RESULT:      -8.7      3.046      4.088
REMARK  9 active torsions:
REMARK  status: ('A' for Active; 'I' for Inactive)
REMARK    1  A    between atoms: C_21  and  C_16 
REMARK    2  A    between atoms: N_46  and  C_16 
REMARK    3  A    between atoms: C_28  and  C_20 
REMARK    4  A    between atoms: C_26  and  C_22 
REMARK    5  A    between atoms: N_40  and  C_23 
REMARK    6  A    between atoms: C_24  and  N_45 
REMARK    7  A    between atoms: C_30  and  C_25 
REMARK    8  A    between atoms: N_44  and  C_27 
REMARK    9  A    between atoms: O_47  and  C_28 
REMARK       I    between atoms: N_44  and  C_29 
ROOT
HETATM    1  C   UNK N   1      23.175  15.277   2.858  0.00  0.00     0.050 C 
HETATM    2  C   UNK N   1      25.566  14.895   2.458  0.00  0.00     0.011 A 
HETATM    3  C   UNK N   1      26.911  14.987   2.798  0.00  0.00     0.030 A 
HETATM    4  C   UNK N   1      26.290  15.935   4.932  0.00  0.00     0.060 A 
HETATM    5  C   UNK N   1      24.579  15.346   3.342  0.00  0.00    -0.035 A 
HETATM    6  C   UNK N   1      27.254  15.507   4.040  0.00  0.00     0.036 A 
HETATM    7  C   UNK N   1      24.957  15.880   4.612  0.00  0.00     0.057 A 
ENDROOT
BRANCH   6   8
HETATM    8  N   UNK N   1      28.565  15.723   4.425  0.00  0.00    -0.336 N 
HETATM    9  C   UNK N   1      29.347  16.664   4.026  0.00  0.00     0.150 C 
ATOM     10  HN  UNK N   1      28.955  15.064   5.099  1.00  0.00     0.168 HD
BRANCH   9  11
HETATM   11  C   UNK N   1      30.574  16.822   4.797  0.00  0.00     0.015 A 
HETATM   12  C   UNK N   1      31.832  17.129   4.275  0.00  0.00     0.016 A 
HETATM   13  C   UNK N   1      32.881  17.414   5.169  0.00  0.00     0.011 A 
HETATM   14  C   UNK N   1      32.650  17.452   6.564  0.00  0.00    -0.015 A 
HETATM   15  C   UNK N   1      31.349  17.179   7.058  0.00  0.00     0.056 A 
HETATM   16  C   UNK N   1      30.381  16.849   6.164  0.00  0.00     0.032 A 
BRANCH  14  17
HETATM   17  C   UNK N   1      33.814  17.739   7.474  0.00  0.00     0.311 C 
BRANCH  17  18
HETATM   18  N   UNK N   1      34.581  16.555   7.913  0.00  0.00     0.094 N 
HETATM   19  C   UNK N   1      34.044  15.264   7.472  0.00  0.00     0.275 C 
HETATM   20  C   UNK N   1      34.116  14.297   8.630  0.00  0.00     0.068 C 
HETATM   21  C   UNK N   1      34.320  15.154   9.871  0.00  0.00     0.252 C 
HETATM   22  C   UNK N   1      34.632  16.554   9.369  0.00  0.00     0.308 C 
BRANCH  21  23
HETATM   23  N   UNK N   1      35.410  14.670  10.729  0.00  0.00     0.086 N 
HETATM   24  C   UNK N   1      36.009  15.779  11.457  0.00  0.00     0.310 C 
HETATM   25  C   UNK N   1      34.927  13.699  11.707  0.00  0.00     0.310 C 
ENDBRANCH  21  23
ENDBRANCH  17  18
ENDBRANCH  14  17
BRANCH  15  26
HETATM   26  C   UNK N   1      30.857  17.257   8.479  0.00  0.00     0.418 C 
HETATM   27  F   UNK N   1      29.474  17.261   8.485  0.00  0.00    -0.166 F 
HETATM   28  F   UNK N   1      31.364  16.262   9.280  0.00  0.00    -0.166 F 
HETATM   29  F   UNK N   1      31.275  18.456   9.036  0.00  0.00    -0.166 F 
ENDBRANCH  15  26
ENDBRANCH   9  11
BRANCH   9  30
HETATM   30  O   UNK N   1      28.956  17.568   3.104  0.00  0.00    -0.345 OA
HETATM   31  H   UNK N   1      28.178  18.076   3.234  0.00  0.00     0.219 HD
ENDBRANCH   9  30
ENDBRANCH   6   8
BRANCH   7  32
HETATM   32  N   UNK N   1      24.044  16.408   5.565  0.00  0.00    -0.191 N 
HETATM   33  C   UNK N   1      23.192  15.577   6.278  0.00  0.00     0.683 A 
HETATM   34  N   UNK N   1      21.923  15.361   5.833  0.00  0.00    -0.202 N 
HETATM   35  N   UNK N   1      23.695  14.823   7.287  0.00  0.00    -0.191 N 
HETATM   36  C   UNK N   1      21.153  14.395   6.385  0.00  0.00     0.108 A 
ATOM     37  HN  UNK N   1      21.549  15.934   5.077  1.00  0.00     0.183 HD
HETATM   38  C   UNK N   1      21.658  13.611   7.421  0.00  0.00     0.048 A 
HETATM   39  C   UNK N   1      22.959  13.861   7.879  0.00  0.00     0.063 A 
ATOM     40  HN  UNK N   1      24.650  14.988   7.605  1.00  0.00     0.184 HD
HETATM   41  H   UNK N   1      24.017  17.379   5.721  0.00  0.00     0.184 HD
BRANCH  39  42
HETATM   42  C   UNK N   1      23.502  13.145   9.042  0.00  0.00     0.022 A 
HETATM   43  C   UNK N   1      22.710  12.277   9.793  0.00  0.00     0.104 A 
HETATM   44  N   UNK N   1      23.207  11.706  10.919  0.00  0.00    -0.361 N 
HETATM   45  C   UNK N   1      24.471  11.978  11.337  0.00  0.00     0.180 A 
ATOM     46  HN  UNK N   1      22.625  11.065  11.459  1.00  0.00     0.166 HD
HETATM   47  N   UNK N   1      25.266  12.813  10.617  0.00  0.00    -0.361 N 
HETATM   48  C   UNK N   1      24.806  13.397   9.481  0.00  0.00     0.104 A 
ATOM     49  HN  UNK N   1      26.217  13.001  10.932  1.00  0.00     0.166 HD
ENDBRANCH  39  42
ENDBRANCH   7  32
TORSDOF 9
ENDMDL
MODEL 7
REMARK VINA RESULT:      -8.7      3.787     12.012
REMARK  9 active torsions:
REMARK  status: ('A' for Active; 'I' for Inactive)
REMARK    1  A    between atoms: C_21  and  C_16 
REMARK    2  A    between atoms: N_46  and  C_16 
REMARK    3  A    between atoms: C_28  and  C_20 
REMARK    4  A    between atoms: C_26  and  C_22 
REMARK    5  A    between atoms: N_40  and  C_23 
REMARK    6  A    between atoms: C_24  and  N_45 
REMARK    7  A    between atoms: C_30  and  C_25 
REMARK    8  A    between atoms: N_44  and  C_27 
REMARK    9  A    between atoms: O_47  and  C_28 
REMARK       I    between atoms: N_44  and  C_29 
ROOT
HETATM    1  C   UNK N   1      34.414  12.635   4.976  0.00  0.00     0.050 C 
HETATM    2  C   UNK N   1      32.016  12.881   4.519  0.00  0.00     0.011 A 
HETATM    3  C   UNK N   1      30.842  13.617   4.416  0.00  0.00     0.030 A 
HETATM    4  C   UNK N   1      32.093  15.640   4.839  0.00  0.00     0.060 A 
HETATM    5  C   UNK N   1      33.229  13.515   4.809  0.00  0.00    -0.035 A 
HETATM    6  C   UNK N   1      30.899  14.997   4.576  0.00  0.00     0.036 A 
HETATM    7  C   UNK N   1      33.263  14.934   4.973  0.00  0.00     0.057 A 
ENDROOT
BRANCH   6   8
HETATM    8  N   UNK N   1      29.772  15.797   4.582  0.00  0.00    -0.336 N 
HETATM    9  C   UNK N   1      29.394  16.613   3.661  0.00  0.00     0.150 C 
ATOM     10  HN  UNK N   1      29.174  15.734   5.406  1.00  0.00     0.168 HD
BRANCH   9  11
HETATM   11  C   UNK N   1      28.033  17.117   3.798  0.00  0.00     0.015 A 
HETATM   12  C   UNK N   1      26.865  16.368   3.632  0.00  0.00     0.016 A 
HETATM   13  C   UNK N   1      25.632  16.959   3.966  0.00  0.00     0.011 A 
HETATM   14  C   UNK N   1      25.583  18.262   4.517  0.00  0.00    -0.015 A 
HETATM   15  C   UNK N   1      26.791  18.977   4.713  0.00  0.00     0.056 A 
HETATM   16  C   UNK N   1      27.953  18.392   4.322  0.00  0.00     0.032 A 
BRANCH  14  17
HETATM   17  C   UNK N   1      24.236  18.853   4.832  0.00  0.00     0.311 C 
BRANCH  17  18
HETATM   18  N   UNK N   1      23.277  18.881   3.708  0.00  0.00     0.094 N 
HETATM   19  C   UNK N   1      23.110  20.188   3.063  0.00  0.00     0.275 C 
HETATM   20  C   UNK N   1      21.639  20.406   2.803  0.00  0.00     0.068 C 
HETATM   21  C   UNK N   1      20.911  19.395   3.676  0.00  0.00     0.252 C 
HETATM   22  C   UNK N   1      21.977  18.447   4.201  0.00  0.00     0.308 C 
BRANCH  21  23
HETATM   23  N   UNK N   1      19.882  18.643   2.946  0.00  0.00     0.086 N 
HETATM   24  C   UNK N   1      20.284  18.452   1.560  0.00  0.00     0.310 C 
HETATM   25  C   UNK N   1      19.666  17.324   3.536  0.00  0.00     0.310 C 
ENDBRANCH  21  23
ENDBRANCH  17  18
ENDBRANCH  14  17
BRANCH  15  26
HETATM   26  C   UNK N   1      26.982  20.320   5.366  0.00  0.00     0.418 C 
HETATM   27  F   UNK N   1      26.525  20.265   6.670  0.00  0.00    -0.166 F 
HETATM   28  F   UNK N   1      28.279  20.771   5.303  0.00  0.00    -0.166 F 
HETATM   29  F   UNK N   1      26.210  21.259   4.698  0.00  0.00    -0.166 F 
ENDBRANCH  15  26
ENDBRANCH   9  11
BRANCH   9  30
HETATM   30  O   UNK N   1      30.126  16.813   2.546  0.00  0.00    -0.345 OA
HETATM   31  H   UNK N   1      30.717  16.153   2.240  0.00  0.00     0.219 HD
ENDBRANCH   9  30
ENDBRANCH   6   8
BRANCH   7  32
HETATM   32  N   UNK N   1      34.426  15.676   5.314  0.00  0.00    -0.191 N 
HETATM   33  C   UNK N   1      34.548  16.287   6.554  0.00  0.00     0.683 A 
HETATM   34  N   UNK N   1      34.203  17.596   6.704  0.00  0.00    -0.202 N 
HETATM   35  N   UNK N   1      34.804  15.524   7.645  0.00  0.00    -0.191 N 
HETATM   36  C   UNK N   1      34.107  18.148   7.935  0.00  0.00     0.108 A 
ATOM     37  HN  UNK N   1      34.017  18.166   5.879  1.00  0.00     0.183 HD
HETATM   38  C   UNK N   1      34.365  17.375   9.066  0.00  0.00     0.048 A 
HETATM   39  C   UNK N   1      34.738  16.035   8.891  0.00  0.00     0.063 A 
ATOM     40  HN  UNK N   1      35.052  14.542   7.520  1.00  0.00     0.184 HD
HETATM   41  H   UNK N   1      35.157  15.756   4.660  0.00  0.00     0.184 HD
BRANCH  39  42
HETATM   42  C   UNK N   1      35.131  15.204  10.038  0.00  0.00     0.022 A 
HETATM   43  C   UNK N   1      34.189  14.468  10.756  0.00  0.00     0.104 A 
HETATM   44  N   UNK N   1      34.564  13.788  11.870  0.00  0.00    -0.361 N 
HETATM   45  C   UNK N   1      35.849  13.825  12.308  0.00  0.00     0.180 A 
ATOM     46  HN  UNK N   1      33.871  13.245  12.384  1.00  0.00     0.166 HD
HETATM   47  N   UNK N   1      36.787  14.528  11.620  0.00  0.00    -0.361 N 
HETATM   48  C   UNK N   1      36.453  15.214  10.497  0.00  0.00     0.104 A 
ATOM     49  HN  UNK N   1      37.752  14.539  11.950  1.00  0.00     0.166 HD
ENDBRANCH  39  42
ENDBRANCH   7  32
TORSDOF 9
ENDMDL
MODEL 8
REMARK VINA RESULT:      -8.6      3.538      4.418
REMARK  9 active torsions:
REMARK  status: ('A' for Active; 'I' for Inactive)
REMARK    1  A    between atoms: C_21  and  C_16 
REMARK    2  A    between atoms: N_46  and  C_16 
REMARK    3  A    between atoms: C_28  and  C_20 
REMARK    4  A    between atoms: C_26  and  C_22 
REMARK    5  A    between atoms: N_40  and  C_23 
REMARK    6  A    between atoms: C_24  and  N_45 
REMARK    7  A    between atoms: C_30  and  C_25 
REMARK    8  A    between atoms: N_44  and  C_27 
REMARK    9  A    between atoms: O_47  and  C_28 
REMARK       I    between atoms: N_44  and  C_29 
ROOT
HETATM    1  C   UNK N   1      22.887  15.096   3.014  0.00  0.00     0.050 C 
HETATM    2  C   UNK N   1      25.340  15.067   2.943  0.00  0.00     0.011 A 
HETATM    3  C   UNK N   1      26.599  15.296   3.483  0.00  0.00     0.030 A 
HETATM    4  C   UNK N   1      25.567  15.934   5.573  0.00  0.00     0.060 A 
HETATM    5  C   UNK N   1      24.188  15.295   3.704  0.00  0.00    -0.035 A 
HETATM    6  C   UNK N   1      26.695  15.727   4.802  0.00  0.00     0.036 A 
HETATM    7  C   UNK N   1      24.311  15.741   5.056  0.00  0.00     0.057 A 
ENDROOT
BRANCH   6   8
HETATM    8  N   UNK N   1      27.898  16.068   5.392  0.00  0.00    -0.336 N 
HETATM    9  C   UNK N   1      28.671  17.045   5.070  0.00  0.00     0.150 C 
ATOM     10  HN  UNK N   1      28.205  15.482   6.168  1.00  0.00     0.168 HD
BRANCH   9  11
HETATM   11  C   UNK N   1      29.727  17.344   6.030  0.00  0.00     0.015 A 
HETATM   12  C   UNK N   1      29.550  17.547   7.401  0.00  0.00     0.016 A 
HETATM   13  C   UNK N   1      30.690  17.658   8.218  0.00  0.00     0.011 A 
HETATM   14  C   UNK N   1      31.986  17.504   7.673  0.00  0.00    -0.015 A 
HETATM   15  C   UNK N   1      32.128  17.254   6.284  0.00  0.00     0.056 A 
HETATM   16  C   UNK N   1      31.004  17.215   5.522  0.00  0.00     0.032 A 
BRANCH  14  17
HETATM   17  C   UNK N   1      33.170  17.656   8.589  0.00  0.00     0.311 C 
BRANCH  17  18
HETATM   18  N   UNK N   1      33.899  16.408   8.897  0.00  0.00     0.094 N 
HETATM   19  C   UNK N   1      33.079  15.329   9.457  0.00  0.00     0.275 C 
HETATM   20  C   UNK N   1      33.846  14.686  10.588  0.00  0.00     0.068 C 
HETATM   21  C   UNK N   1      34.949  15.670  10.950  0.00  0.00     0.252 C 
HETATM   22  C   UNK N   1      34.958  16.716   9.847  0.00  0.00     0.308 C 
BRANCH  21  23
HETATM   23  N   UNK N   1      36.271  15.036  11.055  0.00  0.00     0.086 N 
HETATM   24  C   UNK N   1      36.205  13.873  11.928  0.00  0.00     0.310 C 
HETATM   25  C   UNK N   1      36.752  14.590   9.750  0.00  0.00     0.310 C 
ENDBRANCH  21  23
ENDBRANCH  17  18
ENDBRANCH  14  17
BRANCH  15  26
HETATM   26  C   UNK N   1      33.389  16.964   5.514  0.00  0.00     0.418 C 
HETATM   27  F   UNK N   1      33.748  15.642   5.705  0.00  0.00    -0.166 F 
HETATM   28  F   UNK N   1      33.290  17.274   4.180  0.00  0.00    -0.166 F 
HETATM   29  F   UNK N   1      34.416  17.747   6.021  0.00  0.00    -0.166 F 
ENDBRANCH  15  26
ENDBRANCH   9  11
BRANCH   9  30
HETATM   30  O   UNK N   1      28.390  17.861   4.034  0.00  0.00    -0.345 OA
HETATM   31  H   UNK N   1      29.076  18.319   3.588  0.00  0.00     0.219 HD
ENDBRANCH   9  30
ENDBRANCH   6   8
BRANCH   7  32
HETATM   32  N   UNK N   1      23.213  16.048   5.904  0.00  0.00    -0.191 N 
HETATM   33  C   UNK N   1      22.506  15.045   6.553  0.00  0.00     0.683 A 
HETATM   34  N   UNK N   1      21.370  14.543   5.994  0.00  0.00    -0.202 N 
HETATM   35  N   UNK N   1      23.065  14.429   7.624  0.00  0.00    -0.191 N 
HETATM   36  C   UNK N   1      20.790  13.428   6.493  0.00  0.00     0.108 A 
ATOM     37  HN  UNK N   1      20.952  15.014   5.192  1.00  0.00     0.183 HD
HETATM   38  C   UNK N   1      21.355  12.782   7.592  0.00  0.00     0.048 A 
HETATM   39  C   UNK N   1      22.513  13.325   8.166  0.00  0.00     0.063 A 
ATOM     40  HN  UNK N   1      23.921  14.809   8.027  1.00  0.00     0.184 HD
HETATM   41  H   UNK N   1      22.950  16.988   6.033  0.00  0.00     0.184 HD
BRANCH  39  42
HETATM   42  C   UNK N   1      23.088  12.755   9.393  0.00  0.00     0.022 A 
HETATM   43  C   UNK N   1      22.305  12.027  10.289  0.00  0.00     0.104 A 
HETATM   44  N   UNK N   1      22.837  11.597  11.461  0.00  0.00    -0.361 N 
HETATM   45  C   UNK N   1      24.127  11.878  11.785  0.00  0.00     0.180 A 
ATOM     46  HN  UNK N   1      22.262  11.058  12.108  1.00  0.00     0.166 HD
HETATM   47  N   UNK N   1      24.912  12.577  10.923  0.00  0.00    -0.361 N 
HETATM   48  C   UNK N   1      24.418  13.017   9.738  0.00  0.00     0.104 A 
ATOM     49  HN  UNK N   1      25.883  12.771  11.170  1.00  0.00     0.166 HD
ENDBRANCH  39  42
ENDBRANCH   7  32
TORSDOF 9
ENDMDL
MODEL 9
REMARK VINA RESULT:      -8.5      2.606      3.772
REMARK  9 active torsions:
REMARK  status: ('A' for Active; 'I' for Inactive)
REMARK    1  A    between atoms: C_21  and  C_16 
REMARK    2  A    between atoms: N_46  and  C_16 
REMARK    3  A    between atoms: C_28  and  C_20 
REMARK    4  A    between atoms: C_26  and  C_22 
REMARK    5  A    between atoms: N_40  and  C_23 
REMARK    6  A    between atoms: C_24  and  N_45 
REMARK    7  A    between atoms: C_30  and  C_25 
REMARK    8  A    between atoms: N_44  and  C_27 
REMARK    9  A    between atoms: O_47  and  C_28 
REMARK       I    between atoms: N_44  and  C_29 
ROOT
HETATM    1  C   UNK N   1      23.869  19.975   3.180  0.00  0.00     0.050 C 
HETATM    2  C   UNK N   1      25.920  20.635   4.357  0.00  0.00     0.011 A 
HETATM    3  C   UNK N   1      27.100  20.364   5.039  0.00  0.00     0.030 A 
HETATM    4  C   UNK N   1      26.784  18.006   4.616  0.00  0.00     0.060 A 
HETATM    5  C   UNK N   1      25.153  19.592   3.824  0.00  0.00    -0.035 A 
HETATM    6  C   UNK N   1      27.518  19.044   5.157  0.00  0.00     0.036 A 
HETATM    7  C   UNK N   1      25.602  18.243   3.961  0.00  0.00     0.057 A 
ENDROOT
BRANCH   6   8
HETATM    8  N   UNK N   1      28.627  18.673   5.896  0.00  0.00    -0.336 N 
HETATM    9  C   UNK N   1      28.635  18.063   7.030  0.00  0.00     0.150 C 
ATOM     10  HN  UNK N   1      29.537  18.908   5.500  1.00  0.00     0.168 HD
BRANCH   9  11
HETATM   11  C   UNK N   1      29.934  17.548   7.448  0.00  0.00     0.015 A 
HETATM   12  C   UNK N   1      30.207  16.909   8.659  0.00  0.00     0.016 A 
HETATM   13  C   UNK N   1      31.472  16.320   8.840  0.00  0.00     0.011 A 
HETATM   14  C   UNK N   1      32.424  16.319   7.793  0.00  0.00    -0.015 A 
HETATM   15  C   UNK N   1      32.097  16.938   6.560  0.00  0.00     0.056 A 
HETATM   16  C   UNK N   1      30.888  17.548   6.450  0.00  0.00     0.032 A 
BRANCH  14  17
HETATM   17  C   UNK N   1      33.769  15.696   8.051  0.00  0.00     0.311 C 
BRANCH  17  18
HETATM   18  N   UNK N   1      34.137  15.550   9.475  0.00  0.00     0.094 N 
HETATM   19  C   UNK N   1      34.918  16.658  10.034  0.00  0.00     0.275 C 
HETATM   20  C   UNK N   1      36.021  16.080  10.889  0.00  0.00     0.068 C 
HETATM   21  C   UNK N   1      36.126  14.615  10.492  0.00  0.00     0.252 C 
HETATM   22  C   UNK N   1      34.911  14.325   9.626  0.00  0.00     0.308 C 
BRANCH  21  23
HETATM   23  N   UNK N   1      36.151  13.708  11.648  0.00  0.00     0.086 N 
HETATM   24  C   UNK N   1      37.370  12.913  11.639  0.00  0.00     0.310 C 
HETATM   25  C   UNK N   1      36.107  14.449  12.906  0.00  0.00     0.310 C 
ENDBRANCH  21  23
ENDBRANCH  17  18
ENDBRANCH  14  17
BRANCH  15  26
HETATM   26  C   UNK N   1      32.908  16.973   5.293  0.00  0.00     0.418 C 
HETATM   27  F   UNK N   1      34.189  17.408   5.581  0.00  0.00    -0.166 F 
HETATM   28  F   UNK N   1      32.920  15.772   4.626  0.00  0.00    -0.166 F 
HETATM   29  F   UNK N   1      32.346  17.896   4.423  0.00  0.00    -0.166 F 
ENDBRANCH  15  26
ENDBRANCH   9  11
BRANCH   9  30
HETATM   30  O   UNK N   1      27.494  17.739   7.670  0.00  0.00    -0.345 OA
HETATM   31  H   UNK N   1      26.669  18.067   7.369  0.00  0.00     0.219 HD
ENDBRANCH   9  30
ENDBRANCH   6   8
BRANCH   7  32
HETATM   32  N   UNK N   1      24.882  17.106   3.502  0.00  0.00    -0.191 N 
HETATM   33  C   UNK N   1      24.489  16.105   4.379  0.00  0.00     0.683 A 
HETATM   34  N   UNK N   1      25.267  15.000   4.542  0.00  0.00    -0.202 N 
HETATM   35  N   UNK N   1      23.449  16.333   5.218  0.00  0.00    -0.191 N 
HETATM   36  C   UNK N   1      25.019  14.122   5.541  0.00  0.00     0.108 A 
ATOM     37  HN  UNK N   1      26.045  14.832   3.904  1.00  0.00     0.183 HD
HETATM   38  C   UNK N   1      23.954  14.345   6.414  0.00  0.00     0.048 A 
HETATM   39  C   UNK N   1      23.152  15.477   6.217  0.00  0.00     0.063 A 
ATOM     40  HN  UNK N   1      22.879  17.169   5.091  1.00  0.00     0.184 HD
HETATM   41  H   UNK N   1      24.659  17.029   2.546  0.00  0.00     0.184 HD
BRANCH  39  42
HETATM   42  C   UNK N   1      21.951  15.703   7.033  0.00  0.00     0.022 A 
HETATM   43  C   UNK N   1      21.217  16.885   6.930  0.00  0.00     0.104 A 
HETATM   44  N   UNK N   1      20.171  17.110   7.765  0.00  0.00    -0.361 N 
HETATM   45  C   UNK N   1      19.832  16.201   8.717  0.00  0.00     0.180 A 
ATOM     46  HN  UNK N   1      19.633  17.972   7.678  1.00  0.00     0.166 HD
HETATM   47  N   UNK N   1      20.526  15.038   8.830  0.00  0.00    -0.361 N 
HETATM   48  C   UNK N   1      21.574  14.774   8.009  0.00  0.00     0.104 A 
ATOM     49  HN  UNK N   1      20.256  14.357   9.540  1.00  0.00     0.166 HD
ENDBRANCH  39  42
ENDBRANCH   7  32
TORSDOF 9
ENDMDL
