MODEL 1
REMARK VINA RESULT:      -7.2      0.000      0.000
REMARK  9 active torsions:
REMARK  status: ('A' for Active; 'I' for Inactive)
REMARK    1  A    between atoms: C_2  and  N_3 
REMARK       I    between atoms: N_3  and  C_5 
REMARK    2  A    between atoms: C_10  and  N_13 
REMARK    3  A    between atoms: N_13  and  C_14 
REMARK    4  A    between atoms: N_22  and  C_33 
REMARK    5  A    between atoms: C_25  and  C_26 
REMARK       I    between atoms: C_26  and  N_28 
REMARK    6  A    between atoms: N_28  and  S_29 
REMARK    7  A    between atoms: C_33  and  C_34 
REMARK    8  A    between atoms: C_34  and  O_35 
REMARK    9  A    between atoms: O_35  and  C_36 
ROOT
HETATM    1  N   UNK N   1      23.886  18.815   4.080  0.00  0.00    -0.222 N 
HETATM    2  C   UNK N   1      22.651  19.315   3.532  0.00  0.00     0.168 C 
HETATM    3  C   UNK N   1      23.880  17.669   4.928  0.00  0.00     0.682 A 
HETATM    4  N   UNK N   1      22.707  17.005   5.180  0.00  0.00    -0.187 N 
ATOM      5  HN  UNK N   1      21.822  17.348   4.806  1.00  0.00     0.184 HD
HETATM    6  C   UNK N   1      22.752  15.883   5.937  0.00  0.00     0.115 A 
HETATM    7  C   UNK N   1      23.904  15.403   6.462  0.00  0.00     0.125 A 
HETATM    8  C   UNK N   1      25.098  16.085   6.249  0.00  0.00     0.153 A 
HETATM    9  N   UNK N   1      25.058  17.209   5.472  0.00  0.00    -0.174 N 
ATOM     10  HN  UNK N   1      25.922  17.718   5.291  1.00  0.00     0.186 HD
HETATM   11  N   UNK N   1      23.629  14.273   7.150  0.00  0.00    -0.284 N 
HETATM   12  N   UNK N   1      22.326  14.025   7.059  0.00  0.00    -0.291 N 
ATOM     13  HN  UNK N   1      21.840  13.229   7.472  1.00  0.00     0.187 HD
HETATM   14  C   UNK N   1      21.752  15.011   6.324  0.00  0.00     0.147 A 
ENDROOT
BRANCH   8  15
HETATM   15  N   UNK N   1      26.305  15.639   6.846  0.00  0.00    -0.326 N 
HETATM   16  H   UNK N   1      26.394  14.675   7.026  0.00  0.00     0.169 HD
BRANCH  15  17
HETATM   17  C   UNK N   1      27.397  16.473   7.204  0.00  0.00     0.106 A 
HETATM   18  C   UNK N   1      28.548  16.457   6.412  0.00  0.00     0.055 A 
HETATM   19  C   UNK N   1      29.654  17.215   6.791  0.00  0.00    -0.057 A 
HETATM   20  C   UNK N   1      29.602  17.983   7.955  0.00  0.00     0.024 A 
HETATM   21  C   UNK N   1      30.891  17.190   5.967  0.00  0.00     0.048 C 
HETATM   22  C   UNK N   1      28.436  17.978   8.723  0.00  0.00     0.090 A 
HETATM   23  N   UNK N   1      27.370  17.224   8.341  0.00  0.00    -0.352 N 
ATOM     24  HN  UNK N   1      26.530  17.220   8.921  1.00  0.00     0.166 HD
ENDBRANCH  15  17
ENDBRANCH   8  15
BRANCH  11  25
HETATM   25  C   UNK N   1      24.557  13.400   7.863  0.00  0.00     0.175 C 
BRANCH  25  26
HETATM   26  C   UNK N   1      23.836  12.578   8.919  0.00  0.00     0.189 C 
BRANCH  26  27
HETATM   27  O   UNK N   1      23.226  13.434   9.840  0.00  0.00    -0.390 OA
BRANCH  27  28
HETATM   28  C   UNK N   1      22.258  12.664  10.482  0.00  0.00     0.163 C 
HETATM   29  C   UNK N   1      22.868  11.998  11.697  0.00  0.00     0.033 C 
ENDBRANCH  27  28
ENDBRANCH  26  27
ENDBRANCH  25  26
ENDBRANCH  11  25
BRANCH  14  30
HETATM   30  C   UNK N   1      20.302  15.138   6.019  0.00  0.00     0.285 C 
HETATM   31  O   UNK N   1      19.839  14.457   5.116  0.00  0.00    -0.265 OA
HETATM   32  N   UNK N   1      19.462  15.976   6.686  0.00  0.00    -0.249 N 
HETATM   33  H   UNK N   1      18.543  16.046   6.342  0.00  0.00     0.182 HD
BRANCH  32  34
HETATM   34  S   UNK N   1      19.854  16.948   8.101  0.00  0.00     0.229 S 
HETATM   35  O   UNK N   1      20.806  18.038   7.586  0.00  0.00    -0.206 OA
HETATM   36  O   UNK N   1      20.829  16.054   8.880  0.00  0.00    -0.206 OA
HETATM   37  C   UNK N   1      18.544  17.560   9.200  0.00  0.00     0.186 C 
ENDBRANCH  32  34
ENDBRANCH  14  30
BRANCH   1  38
HETATM   38  C   UNK N   1      25.126  19.411   3.636  0.00  0.00     0.136 C 
HETATM   39  C   UNK N   1      24.874  20.527   2.639  0.00  0.00     0.027 C 
ENDBRANCH   1  38
TORSDOF 9
ENDMDL
MODEL 2
REMARK VINA RESULT:      -6.9      1.775      2.130
REMARK  9 active torsions:
REMARK  status: ('A' for Active; 'I' for Inactive)
REMARK    1  A    between atoms: C_2  and  N_3 
REMARK       I    between atoms: N_3  and  C_5 
REMARK    2  A    between atoms: C_10  and  N_13 
REMARK    3  A    between atoms: N_13  and  C_14 
REMARK    4  A    between atoms: N_22  and  C_33 
REMARK    5  A    between atoms: C_25  and  C_26 
REMARK       I    between atoms: C_26  and  N_28 
REMARK    6  A    between atoms: N_28  and  S_29 
REMARK    7  A    between atoms: C_33  and  C_34 
REMARK    8  A    between atoms: C_34  and  O_35 
REMARK    9  A    between atoms: O_35  and  C_36 
ROOT
HETATM    1  N   UNK N   1      25.138  19.866   3.909  0.00  0.00    -0.222 N 
HETATM    2  C   UNK N   1      24.201  20.585   3.084  0.00  0.00     0.168 C 
HETATM    3  C   UNK N   1      24.795  18.584   4.430  0.00  0.00     0.682 A 
HETATM    4  N   UNK N   1      23.596  18.006   4.101  0.00  0.00    -0.187 N 
ATOM      5  HN  UNK N   1      22.918  18.502   3.524  1.00  0.00     0.184 HD
HETATM    6  C   UNK N   1      23.334  16.759   4.562  0.00  0.00     0.115 A 
HETATM    7  C   UNK N   1      24.202  16.073   5.342  0.00  0.00     0.125 A 
HETATM    8  C   UNK N   1      25.408  16.659   5.717  0.00  0.00     0.153 A 
HETATM    9  N   UNK N   1      25.680  17.910   5.240  0.00  0.00    -0.174 N 
ATOM     10  HN  UNK N   1      26.563  18.356   5.490  1.00  0.00     0.186 HD
HETATM   11  N   UNK N   1      23.668  14.864   5.625  0.00  0.00    -0.284 N 
HETATM   12  N   UNK N   1      22.484  14.772   5.030  0.00  0.00    -0.291 N 
ATOM     13  HN  UNK N   1      21.862  13.965   5.062  1.00  0.00     0.187 HD
HETATM   14  C   UNK N   1      22.242  15.934   4.373  0.00  0.00     0.147 A 
ENDROOT
BRANCH   8  15
HETATM   15  N   UNK N   1      26.302  15.987   6.589  0.00  0.00    -0.326 N 
HETATM   16  H   UNK N   1      26.123  15.037   6.779  0.00  0.00     0.169 HD
BRANCH  15  17
HETATM   17  C   UNK N   1      27.436  16.574   7.209  0.00  0.00     0.106 A 
HETATM   18  C   UNK N   1      28.657  16.568   6.530  0.00  0.00     0.055 A 
HETATM   19  C   UNK N   1      29.794  17.076   7.155  0.00  0.00    -0.057 A 
HETATM   20  C   UNK N   1      29.704  17.585   8.450  0.00  0.00     0.024 A 
HETATM   21  C   UNK N   1      31.102  17.056   6.449  0.00  0.00     0.048 C 
HETATM   22  C   UNK N   1      28.468  17.578   9.101  0.00  0.00     0.090 A 
HETATM   23  N   UNK N   1      27.371  17.069   8.477  0.00  0.00    -0.352 N 
ATOM     24  HN  UNK N   1      26.478  17.058   8.971  1.00  0.00     0.166 HD
ENDBRANCH  15  17
ENDBRANCH   8  15
BRANCH  11  25
HETATM   25  C   UNK N   1      24.250  13.781   6.412  0.00  0.00     0.175 C 
BRANCH  25  26
HETATM   26  C   UNK N   1      23.649  13.730   7.807  0.00  0.00     0.189 C 
BRANCH  26  27
HETATM   27  O   UNK N   1      22.256  13.788   7.717  0.00  0.00    -0.390 OA
BRANCH  27  28
HETATM   28  C   UNK N   1      21.780  13.035   8.788  0.00  0.00     0.163 C 
HETATM   29  C   UNK N   1      21.047  13.941   9.755  0.00  0.00     0.033 C 
ENDBRANCH  27  28
ENDBRANCH  26  27
ENDBRANCH  25  26
ENDBRANCH  11  25
BRANCH  14  30
HETATM   30  C   UNK N   1      21.007  16.264   3.612  0.00  0.00     0.285 C 
HETATM   31  O   UNK N   1      21.115  16.543   2.428  0.00  0.00    -0.265 OA
HETATM   32  N   UNK N   1      19.763  16.277   4.164  0.00  0.00    -0.249 N 
HETATM   33  H   UNK N   1      19.029  16.596   3.591  0.00  0.00     0.182 HD
BRANCH  32  34
HETATM   34  S   UNK N   1      19.333  15.782   5.798  0.00  0.00     0.229 S 
HETATM   35  O   UNK N   1      19.501  14.256   5.809  0.00  0.00    -0.206 OA
HETATM   36  O   UNK N   1      17.803  15.907   5.810  0.00  0.00    -0.206 OA
HETATM   37  C   UNK N   1      20.046  16.622   7.242  0.00  0.00     0.186 C 
ENDBRANCH  32  34
ENDBRANCH  14  30
BRANCH   1  38
HETATM   38  C   UNK N   1      26.468  20.409   4.071  0.00  0.00     0.136 C 
HETATM   39  C   UNK N   1      26.628  21.077   5.423  0.00  0.00     0.027 C 
ENDBRANCH   1  38
TORSDOF 9
ENDMDL
MODEL 3
REMARK VINA RESULT:      -6.8      3.650      6.272
REMARK  9 active torsions:
REMARK  status: ('A' for Active; 'I' for Inactive)
REMARK    1  A    between atoms: C_2  and  N_3 
REMARK       I    between atoms: N_3  and  C_5 
REMARK    2  A    between atoms: C_10  and  N_13 
REMARK    3  A    between atoms: N_13  and  C_14 
REMARK    4  A    between atoms: N_22  and  C_33 
REMARK    5  A    between atoms: C_25  and  C_26 
REMARK       I    between atoms: C_26  and  N_28 
REMARK    6  A    between atoms: N_28  and  S_29 
REMARK    7  A    between atoms: C_33  and  C_34 
REMARK    8  A    between atoms: C_34  and  O_35 
REMARK    9  A    between atoms: O_35  and  C_36 
ROOT
HETATM    1  N   UNK N   1      25.605  14.321   2.786  0.00  0.00    -0.222 N 
HETATM    2  C   UNK N   1      26.506  15.163   2.043  0.00  0.00     0.168 C 
HETATM    3  C   UNK N   1      24.550  14.900   3.551  0.00  0.00     0.682 A 
HETATM    4  N   UNK N   1      24.355  16.257   3.535  0.00  0.00    -0.187 N 
ATOM      5  HN  UNK N   1      24.986  16.870   3.020  1.00  0.00     0.184 HD
HETATM    6  C   UNK N   1      23.302  16.765   4.221  0.00  0.00     0.115 A 
HETATM    7  C   UNK N   1      22.450  15.986   4.927  0.00  0.00     0.125 A 
HETATM    8  C   UNK N   1      22.655  14.611   4.986  0.00  0.00     0.153 A 
HETATM    9  N   UNK N   1      23.707  14.096   4.282  0.00  0.00    -0.174 N 
ATOM     10  HN  UNK N   1      23.870  13.089   4.298  1.00  0.00     0.186 HD
HETATM   11  N   UNK N   1      21.503  16.774   5.484  0.00  0.00    -0.284 N 
HETATM   12  N   UNK N   1      21.738  18.034   5.132  0.00  0.00    -0.291 N 
ATOM     13  HN  UNK N   1      21.175  18.842   5.398  1.00  0.00     0.187 HD
HETATM   14  C   UNK N   1      22.852  18.064   4.359  0.00  0.00     0.147 A 
ENDROOT
BRANCH   8  15
HETATM   15  N   UNK N   1      21.815  13.784   5.775  0.00  0.00    -0.326 N 
HETATM   16  H   UNK N   1      20.848  13.813   5.593  0.00  0.00     0.169 HD
BRANCH  15  17
HETATM   17  C   UNK N   1      22.259  12.917   6.808  0.00  0.00     0.106 A 
HETATM   18  C   UNK N   1      21.946  13.228   8.134  0.00  0.00     0.055 A 
HETATM   19  C   UNK N   1      22.435  12.425   9.163  0.00  0.00    -0.057 A 
HETATM   20  C   UNK N   1      23.230  11.319   8.860  0.00  0.00     0.024 A 
HETATM   21  C   UNK N   1      22.126  12.759  10.577  0.00  0.00     0.048 C 
HETATM   22  C   UNK N   1      23.522  11.035   7.525  0.00  0.00     0.090 A 
HETATM   23  N   UNK N   1      23.043  11.836   6.535  0.00  0.00    -0.352 N 
ATOM     24  HN  UNK N   1      23.277  11.622   5.565  1.00  0.00     0.166 HD
ENDBRANCH  15  17
ENDBRANCH   8  15
BRANCH  11  25
HETATM   25  C   UNK N   1      20.367  16.377   6.309  0.00  0.00     0.175 C 
BRANCH  25  26
HETATM   26  C   UNK N   1      20.593  16.740   7.767  0.00  0.00     0.189 C 
BRANCH  26  27
HETATM   27  O   UNK N   1      20.391  18.111   7.944  0.00  0.00    -0.390 OA
BRANCH  27  28
HETATM   28  C   UNK N   1      19.620  18.231   9.098  0.00  0.00     0.163 C 
HETATM   29  C   UNK N   1      18.495  17.218   9.060  0.00  0.00     0.033 C 
ENDBRANCH  27  28
ENDBRANCH  26  27
ENDBRANCH  25  26
ENDBRANCH  11  25
BRANCH  14  30
HETATM   30  C   UNK N   1      23.486  19.284   3.790  0.00  0.00     0.285 C 
HETATM   31  O   UNK N   1      24.679  19.458   3.983  0.00  0.00    -0.265 OA
HETATM   32  N   UNK N   1      22.807  20.220   3.072  0.00  0.00    -0.249 N 
HETATM   33  H   UNK N   1      23.306  21.030   2.821  0.00  0.00     0.182 HD
BRANCH  32  34
HETATM   34  S   UNK N   1      21.129  20.128   2.547  0.00  0.00     0.229 S 
HETATM   35  O   UNK N   1      20.927  21.354   1.644  0.00  0.00    -0.206 OA
HETATM   36  O   UNK N   1      20.348  20.556   3.797  0.00  0.00    -0.206 OA
HETATM   37  C   UNK N   1      20.449  18.585   1.875  0.00  0.00     0.186 C 
ENDBRANCH  32  34
ENDBRANCH  14  30
BRANCH   1  38
HETATM   38  C   UNK N   1      25.711  12.889   2.622  0.00  0.00     0.136 C 
HETATM   39  C   UNK N   1      25.056  12.433   1.332  0.00  0.00     0.027 C 
ENDBRANCH   1  38
TORSDOF 9
ENDMDL
MODEL 4
REMARK VINA RESULT:      -6.7      6.375      9.123
REMARK  9 active torsions:
REMARK  status: ('A' for Active; 'I' for Inactive)
REMARK    1  A    between atoms: C_2  and  N_3 
REMARK       I    between atoms: N_3  and  C_5 
REMARK    2  A    between atoms: C_10  and  N_13 
REMARK    3  A    between atoms: N_13  and  C_14 
REMARK    4  A    between atoms: N_22  and  C_33 
REMARK    5  A    between atoms: C_25  and  C_26 
REMARK       I    between atoms: C_26  and  N_28 
REMARK    6  A    between atoms: N_28  and  S_29 
REMARK    7  A    between atoms: C_33  and  C_34 
REMARK    8  A    between atoms: C_34  and  O_35 
REMARK    9  A    between atoms: O_35  and  C_36 
ROOT
HETATM    1  N   UNK N   1      27.278  19.296   4.967  0.00  0.00    -0.222 N 
HETATM    2  C   UNK N   1      27.310  20.349   5.950  0.00  0.00     0.168 C 
HETATM    3  C   UNK N   1      28.188  18.202   5.060  0.00  0.00     0.682 A 
HETATM    4  N   UNK N   1      29.058  18.120   6.118  0.00  0.00    -0.187 N 
ATOM      5  HN  UNK N   1      29.099  18.859   6.819  1.00  0.00     0.184 HD
HETATM    6  C   UNK N   1      29.861  17.033   6.207  0.00  0.00     0.115 A 
HETATM    7  C   UNK N   1      29.846  16.038   5.290  0.00  0.00     0.125 A 
HETATM    8  C   UNK N   1      28.997  16.123   4.190  0.00  0.00     0.153 A 
HETATM    9  N   UNK N   1      28.175  17.211   4.106  0.00  0.00    -0.174 N 
ATOM     10  HN  UNK N   1      27.534  17.290   3.316  1.00  0.00     0.186 HD
HETATM   11  N   UNK N   1      30.741  15.094   5.658  0.00  0.00    -0.284 N 
HETATM   12  N   UNK N   1      31.312  15.472   6.797  0.00  0.00    -0.291 N 
ATOM     13  HN  UNK N   1      32.018  14.946   7.313  1.00  0.00     0.187 HD
HETATM   14  C   UNK N   1      30.798  16.674   7.158  0.00  0.00     0.147 A 
ENDROOT
BRANCH   8  15
HETATM   15  N   UNK N   1      29.013  15.127   3.181  0.00  0.00    -0.326 N 
HETATM   16  H   UNK N   1      29.841  15.025   2.657  0.00  0.00     0.169 HD
BRANCH  15  17
HETATM   17  C   UNK N   1      27.931  14.264   2.866  0.00  0.00     0.106 A 
HETATM   18  C   UNK N   1      26.840  14.778   2.159  0.00  0.00     0.055 A 
HETATM   19  C   UNK N   1      25.739  13.962   1.906  0.00  0.00    -0.057 A 
HETATM   20  C   UNK N   1      25.736  12.642   2.357  0.00  0.00     0.024 A 
HETATM   21  C   UNK N   1      24.565  14.504   1.173  0.00  0.00     0.048 C 
HETATM   22  C   UNK N   1      26.842  12.159   3.058  0.00  0.00     0.090 A 
HETATM   23  N   UNK N   1      27.904  12.974   3.304  0.00  0.00    -0.352 N 
ATOM     24  HN  UNK N   1      28.699  12.610   3.831  1.00  0.00     0.166 HD
ENDBRANCH  15  17
ENDBRANCH   8  15
BRANCH  11  25
HETATM   25  C   UNK N   1      31.052  13.834   4.991  0.00  0.00     0.175 C 
BRANCH  25  26
HETATM   26  C   UNK N   1      32.350  13.934   4.207  0.00  0.00     0.189 C 
BRANCH  26  27
HETATM   27  O   UNK N   1      32.132  14.661   3.033  0.00  0.00    -0.390 OA
BRANCH  27  28
HETATM   28  C   UNK N   1      33.068  15.692   3.052  0.00  0.00     0.163 C 
HETATM   29  C   UNK N   1      32.363  17.016   2.840  0.00  0.00     0.033 C 
ENDBRANCH  27  28
ENDBRANCH  26  27
ENDBRANCH  25  26
ENDBRANCH  11  25
BRANCH  14  30
HETATM   30  C   UNK N   1      31.197  17.471   8.349  0.00  0.00     0.285 C 
HETATM   31  O   UNK N   1      30.340  17.746   9.174  0.00  0.00    -0.265 OA
HETATM   32  N   UNK N   1      32.465  17.915   8.567  0.00  0.00    -0.249 N 
HETATM   33  H   UNK N   1      32.598  18.509   9.341  0.00  0.00     0.182 HD
BRANCH  32  34
HETATM   34  S   UNK N   1      33.891  17.537   7.606  0.00  0.00     0.229 S 
HETATM   35  O   UNK N   1      34.869  18.691   7.872  0.00  0.00    -0.206 OA
HETATM   36  O   UNK N   1      33.443  17.859   6.174  0.00  0.00    -0.206 OA
HETATM   37  C   UNK N   1      34.647  15.887   7.675  0.00  0.00     0.186 C 
ENDBRANCH  32  34
ENDBRANCH  14  30
BRANCH   1  38
HETATM   38  C   UNK N   1      26.220  19.307   3.983  0.00  0.00     0.136 C 
HETATM   39  C   UNK N   1      26.281  20.555   3.122  0.00  0.00     0.027 C 
ENDBRANCH   1  38
TORSDOF 9
ENDMDL
MODEL 5
REMARK VINA RESULT:      -6.7      1.425      2.247
REMARK  9 active torsions:
REMARK  status: ('A' for Active; 'I' for Inactive)
REMARK    1  A    between atoms: C_2  and  N_3 
REMARK       I    between atoms: N_3  and  C_5 
REMARK    2  A    between atoms: C_10  and  N_13 
REMARK    3  A    between atoms: N_13  and  C_14 
REMARK    4  A    between atoms: N_22  and  C_33 
REMARK    5  A    between atoms: C_25  and  C_26 
REMARK       I    between atoms: C_26  and  N_28 
REMARK    6  A    between atoms: N_28  and  S_29 
REMARK    7  A    between atoms: C_33  and  C_34 
REMARK    8  A    between atoms: C_34  and  O_35 
REMARK    9  A    between atoms: O_35  and  C_36 
ROOT
HETATM    1  N   UNK N   1      23.653  18.637   4.080  0.00  0.00    -0.222 N 
HETATM    2  C   UNK N   1      22.373  19.163   3.678  0.00  0.00     0.168 C 
HETATM    3  C   UNK N   1      23.722  17.524   4.968  0.00  0.00     0.682 A 
HETATM    4  N   UNK N   1      22.571  16.913   5.396  0.00  0.00    -0.187 N 
ATOM      5  HN  UNK N   1      21.656  17.275   5.128  1.00  0.00     0.184 HD
HETATM    6  C   UNK N   1      22.679  15.818   6.186  0.00  0.00     0.115 A 
HETATM    7  C   UNK N   1      23.874  15.315   6.575  0.00  0.00     0.125 A 
HETATM    8  C   UNK N   1      25.051  15.943   6.180  0.00  0.00     0.153 A 
HETATM    9  N   UNK N   1      24.945  17.039   5.371  0.00  0.00    -0.174 N 
ATOM     10  HN  UNK N   1      25.794  17.510   5.058  1.00  0.00     0.186 HD
HETATM   11  N   UNK N   1      23.656  14.220   7.337  0.00  0.00    -0.284 N 
HETATM   12  N   UNK N   1      22.345  14.019   7.428  0.00  0.00    -0.291 N 
ATOM     13  HN  UNK N   1      21.893  13.257   7.933  1.00  0.00     0.187 HD
HETATM   14  C   UNK N   1      21.712  14.998   6.735  0.00  0.00     0.147 A 
ENDROOT
BRANCH   8  15
HETATM   15  N   UNK N   1      26.311  15.475   6.632  0.00  0.00    -0.326 N 
HETATM   16  H   UNK N   1      26.447  14.500   6.667  0.00  0.00     0.169 HD
BRANCH  15  17
HETATM   17  C   UNK N   1      27.394  16.299   7.036  0.00  0.00     0.106 A 
HETATM   18  C   UNK N   1      28.544  16.342   6.244  0.00  0.00     0.055 A 
HETATM   19  C   UNK N   1      29.642  17.090   6.666  0.00  0.00    -0.057 A 
HETATM   20  C   UNK N   1      29.582  17.790   7.871  0.00  0.00     0.024 A 
HETATM   21  C   UNK N   1      30.878  17.125   5.841  0.00  0.00     0.048 C 
HETATM   22  C   UNK N   1      28.417  17.728   8.637  0.00  0.00     0.090 A 
HETATM   23  N   UNK N   1      27.360  16.984   8.214  0.00  0.00    -0.352 N 
ATOM     24  HN  UNK N   1      26.520  16.938   8.793  1.00  0.00     0.166 HD
ENDBRANCH  15  17
ENDBRANCH   8  15
BRANCH  11  25
HETATM   25  C   UNK N   1      24.641  13.340   7.958  0.00  0.00     0.175 C 
BRANCH  25  26
HETATM   26  C   UNK N   1      23.969  12.171   8.659  0.00  0.00     0.189 C 
BRANCH  26  27
HETATM   27  O   UNK N   1      23.323  12.628   9.812  0.00  0.00    -0.390 OA
BRANCH  27  28
HETATM   28  C   UNK N   1      24.092  12.169  10.879  0.00  0.00     0.163 C 
HETATM   29  C   UNK N   1      23.196  11.915  12.073  0.00  0.00     0.033 C 
ENDBRANCH  27  28
ENDBRANCH  26  27
ENDBRANCH  25  26
ENDBRANCH  11  25
BRANCH  14  30
HETATM   30  C   UNK N   1      20.239  15.168   6.617  0.00  0.00     0.285 C 
HETATM   31  O   UNK N   1      19.628  15.605   7.580  0.00  0.00    -0.265 OA
HETATM   32  N   UNK N   1      19.532  14.856   5.496  0.00  0.00    -0.249 N 
HETATM   33  H   UNK N   1      18.552  14.924   5.559  0.00  0.00     0.182 HD
BRANCH  32  34
HETATM   34  S   UNK N   1      20.192  14.346   3.946  0.00  0.00     0.229 S 
HETATM   35  O   UNK N   1      20.709  15.634   3.288  0.00  0.00    -0.206 OA
HETATM   36  O   UNK N   1      18.937  14.073   3.104  0.00  0.00    -0.206 OA
HETATM   37  C   UNK N   1      21.340  12.942   3.841  0.00  0.00     0.186 C 
ENDBRANCH  32  34
ENDBRANCH  14  30
BRANCH   1  38
HETATM   38  C   UNK N   1      24.841  19.171   3.454  0.00  0.00     0.136 C 
HETATM   39  C   UNK N   1      25.360  20.384   4.203  0.00  0.00     0.027 C 
ENDBRANCH   1  38
TORSDOF 9
ENDMDL
MODEL 6
REMARK VINA RESULT:      -6.7      3.863      6.054
REMARK  9 active torsions:
REMARK  status: ('A' for Active; 'I' for Inactive)
REMARK    1  A    between atoms: C_2  and  N_3 
REMARK       I    between atoms: N_3  and  C_5 
REMARK    2  A    between atoms: C_10  and  N_13 
REMARK    3  A    between atoms: N_13  and  C_14 
REMARK    4  A    between atoms: N_22  and  C_33 
REMARK    5  A    between atoms: C_25  and  C_26 
REMARK       I    between atoms: C_26  and  N_28 
REMARK    6  A    between atoms: N_28  and  S_29 
REMARK    7  A    between atoms: C_33  and  C_34 
REMARK    8  A    between atoms: C_34  and  O_35 
REMARK    9  A    between atoms: O_35  and  C_36 
ROOT
HETATM    1  N   UNK N   1      24.040  13.633   1.935  0.00  0.00    -0.222 N 
HETATM    2  C   UNK N   1      23.819  13.842   0.526  0.00  0.00     0.168 C 
HETATM    3  C   UNK N   1      23.365  14.446   2.893  0.00  0.00     0.682 A 
HETATM    4  N   UNK N   1      22.460  15.389   2.479  0.00  0.00    -0.187 N 
ATOM      5  HN  UNK N   1      22.295  15.555   1.486  1.00  0.00     0.184 HD
HETATM    6  C   UNK N   1      21.790  16.096   3.420  0.00  0.00     0.115 A 
HETATM    7  C   UNK N   1      21.990  15.914   4.747  0.00  0.00     0.125 A 
HETATM    8  C   UNK N   1      22.932  14.988   5.185  0.00  0.00     0.153 A 
HETATM    9  N   UNK N   1      23.597  14.263   4.236  0.00  0.00    -0.174 N 
ATOM     10  HN  UNK N   1      24.283  13.569   4.533  1.00  0.00     0.186 HD
HETATM   11  N   UNK N   1      21.171  16.748   5.426  0.00  0.00    -0.284 N 
HETATM   12  N   UNK N   1      20.451  17.444   4.552  0.00  0.00    -0.291 N 
ATOM     13  HN  UNK N   1      19.743  18.140   4.784  1.00  0.00     0.187 HD
HETATM   14  C   UNK N   1      20.819  17.072   3.301  0.00  0.00     0.147 A 
ENDROOT
BRANCH   8  15
HETATM   15  N   UNK N   1      23.207  14.830   6.567  0.00  0.00    -0.326 N 
HETATM   16  H   UNK N   1      23.358  15.647   7.096  0.00  0.00     0.169 HD
BRANCH  15  17
HETATM   17  C   UNK N   1      23.282  13.587   7.249  0.00  0.00     0.106 A 
HETATM   18  C   UNK N   1      23.889  13.542   8.507  0.00  0.00     0.055 A 
HETATM   19  C   UNK N   1      24.034  12.318   9.157  0.00  0.00    -0.057 A 
HETATM   20  C   UNK N   1      23.571  11.151   8.549  0.00  0.00     0.024 A 
HETATM   21  C   UNK N   1      24.696  12.255  10.486  0.00  0.00     0.048 C 
HETATM   22  C   UNK N   1      22.968  11.231   7.292  0.00  0.00     0.090 A 
HETATM   23  N   UNK N   1      22.844  12.434   6.669  0.00  0.00    -0.352 N 
ATOM     24  HN  UNK N   1      22.413  12.475   5.745  1.00  0.00     0.166 HD
ENDBRANCH  15  17
ENDBRANCH   8  15
BRANCH  11  25
HETATM   25  C   UNK N   1      21.021  16.888   6.872  0.00  0.00     0.175 C 
BRANCH  25  26
HETATM   26  C   UNK N   1      20.817  18.341   7.265  0.00  0.00     0.189 C 
BRANCH  26  27
HETATM   27  O   UNK N   1      20.149  18.405   8.490  0.00  0.00    -0.390 OA
BRANCH  27  28
HETATM   28  C   UNK N   1      19.580  17.146   8.673  0.00  0.00     0.163 C 
HETATM   29  C   UNK N   1      18.175  17.302   9.215  0.00  0.00     0.033 C 
ENDBRANCH  27  28
ENDBRANCH  26  27
ENDBRANCH  25  26
ENDBRANCH  11  25
BRANCH  14  30
HETATM   30  C   UNK N   1      20.289  17.639   2.032  0.00  0.00     0.285 C 
HETATM   31  O   UNK N   1      19.647  16.907   1.295  0.00  0.00    -0.265 OA
HETATM   32  N   UNK N   1      20.485  18.929   1.644  0.00  0.00    -0.249 N 
HETATM   33  H   UNK N   1      20.166  19.173   0.745  0.00  0.00     0.182 HD
BRANCH  32  34
HETATM   34  S   UNK N   1      21.249  20.206   2.586  0.00  0.00     0.229 S 
HETATM   35  O   UNK N   1      20.269  20.498   3.732  0.00  0.00    -0.206 OA
HETATM   36  O   UNK N   1      21.053  21.451   1.710  0.00  0.00    -0.206 OA
HETATM   37  C   UNK N   1      22.984  20.066   3.105  0.00  0.00     0.186 C 
ENDBRANCH  32  34
ENDBRANCH  14  30
BRANCH   1  38
HETATM   38  C   UNK N   1      24.841  12.502   2.344  0.00  0.00     0.136 C 
HETATM   39  C   UNK N   1      25.516  11.846   1.155  0.00  0.00     0.027 C 
ENDBRANCH   1  38
TORSDOF 9
ENDMDL
MODEL 7
REMARK VINA RESULT:      -6.4      2.674      5.711
REMARK  9 active torsions:
REMARK  status: ('A' for Active; 'I' for Inactive)
REMARK    1  A    between atoms: C_2  and  N_3 
REMARK       I    between atoms: N_3  and  C_5 
REMARK    2  A    between atoms: C_10  and  N_13 
REMARK    3  A    between atoms: N_13  and  C_14 
REMARK    4  A    between atoms: N_22  and  C_33 
REMARK    5  A    between atoms: C_25  and  C_26 
REMARK       I    between atoms: C_26  and  N_28 
REMARK    6  A    between atoms: N_28  and  S_29 
REMARK    7  A    between atoms: C_33  and  C_34 
REMARK    8  A    between atoms: C_34  and  O_35 
REMARK    9  A    between atoms: O_35  and  C_36 
ROOT
HETATM    1  N   UNK N   1      23.495  13.615   7.584  0.00  0.00    -0.222 N 
HETATM    2  C   UNK N   1      22.151  13.549   8.098  0.00  0.00     0.168 C 
HETATM    3  C   UNK N   1      23.894  14.711   6.763  0.00  0.00     0.682 A 
HETATM    4  N   UNK N   1      23.018  15.734   6.508  0.00  0.00    -0.187 N 
ATOM      5  HN  UNK N   1      22.061  15.702   6.858  1.00  0.00     0.184 HD
HETATM    6  C   UNK N   1      23.455  16.789   5.779  0.00  0.00     0.115 A 
HETATM    7  C   UNK N   1      24.713  16.863   5.286  0.00  0.00     0.125 A 
HETATM    8  C   UNK N   1      25.604  15.817   5.503  0.00  0.00     0.153 A 
HETATM    9  N   UNK N   1      25.171  14.759   6.251  0.00  0.00    -0.174 N 
ATOM     10  HN  UNK N   1      25.810  13.985   6.435  1.00  0.00     0.186 HD
HETATM   11  N   UNK N   1      24.850  18.032   4.621  0.00  0.00    -0.284 N 
HETATM   12  N   UNK N   1      23.703  18.701   4.696  0.00  0.00    -0.291 N 
ATOM     13  HN  UNK N   1      23.522  19.621   4.294  1.00  0.00     0.187 HD
HETATM   14  C   UNK N   1      22.815  17.953   5.396  0.00  0.00     0.147 A 
ENDROOT
BRANCH   8  15
HETATM   15  N   UNK N   1      26.905  15.841   4.938  0.00  0.00    -0.326 N 
HETATM   16  H   UNK N   1      26.998  15.555   4.000  0.00  0.00     0.169 HD
BRANCH  15  17
HETATM   17  C   UNK N   1      28.084  16.247   5.616  0.00  0.00     0.106 A 
HETATM   18  C   UNK N   1      27.968  17.065   6.743  0.00  0.00     0.055 A 
HETATM   19  C   UNK N   1      29.119  17.531   7.376  0.00  0.00    -0.057 A 
HETATM   20  C   UNK N   1      30.374  17.175   6.882  0.00  0.00     0.024 A 
HETATM   21  C   UNK N   1      29.008  18.417   8.564  0.00  0.00     0.048 C 
HETATM   22  C   UNK N   1      30.455  16.355   5.755  0.00  0.00     0.090 A 
HETATM   23  N   UNK N   1      29.320  15.919   5.145  0.00  0.00    -0.352 N 
ATOM     24  HN  UNK N   1      29.396  15.331   4.313  1.00  0.00     0.166 HD
ENDBRANCH  15  17
ENDBRANCH   8  15
BRANCH  11  25
HETATM   25  C   UNK N   1      26.034  18.555   3.946  0.00  0.00     0.175 C 
BRANCH  25  26
HETATM   26  C   UNK N   1      26.367  19.957   4.428  0.00  0.00     0.189 C 
BRANCH  26  27
HETATM   27  O   UNK N   1      27.663  19.974   4.951  0.00  0.00    -0.390 OA
BRANCH  27  28
HETATM   28  C   UNK N   1      27.692  21.042   5.845  0.00  0.00     0.163 C 
HETATM   29  C   UNK N   1      26.461  20.996   6.726  0.00  0.00     0.033 C 
ENDBRANCH  27  28
ENDBRANCH  26  27
ENDBRANCH  25  26
ENDBRANCH  11  25
BRANCH  14  30
HETATM   30  C   UNK N   1      21.399  18.315   5.673  0.00  0.00     0.285 C 
HETATM   31  O   UNK N   1      21.102  18.663   6.805  0.00  0.00    -0.265 OA
HETATM   32  N   UNK N   1      20.413  18.272   4.735  0.00  0.00    -0.249 N 
HETATM   33  H   UNK N   1      19.497  18.446   5.049  0.00  0.00     0.182 HD
BRANCH  32  34
HETATM   34  S   UNK N   1      20.611  17.939   3.018  0.00  0.00     0.229 S 
HETATM   35  O   UNK N   1      21.460  19.101   2.481  0.00  0.00    -0.206 OA
HETATM   36  O   UNK N   1      19.235  18.289   2.433  0.00  0.00    -0.206 OA
HETATM   37  C   UNK N   1      21.142  16.300   2.444  0.00  0.00     0.186 C 
ENDBRANCH  32  34
ENDBRANCH  14  30
BRANCH   1  38
HETATM   38  C   UNK N   1      24.452  12.630   8.034  0.00  0.00     0.136 C 
HETATM   39  C   UNK N   1      23.771  11.321   8.385  0.00  0.00     0.027 C 
ENDBRANCH   1  38
TORSDOF 9
ENDMDL
MODEL 8
REMARK VINA RESULT:      -6.4      4.327      5.919
REMARK  9 active torsions:
REMARK  status: ('A' for Active; 'I' for Inactive)
REMARK    1  A    between atoms: C_2  and  N_3 
REMARK       I    between atoms: N_3  and  C_5 
REMARK    2  A    between atoms: C_10  and  N_13 
REMARK    3  A    between atoms: N_13  and  C_14 
REMARK    4  A    between atoms: N_22  and  C_33 
REMARK    5  A    between atoms: C_25  and  C_26 
REMARK       I    between atoms: C_26  and  N_28 
REMARK    6  A    between atoms: N_28  and  S_29 
REMARK    7  A    between atoms: C_33  and  C_34 
REMARK    8  A    between atoms: C_34  and  O_35 
REMARK    9  A    between atoms: O_35  and  C_36 
ROOT
HETATM    1  N   UNK N   1      26.044  14.898   2.077  0.00  0.00    -0.222 N 
HETATM    2  C   UNK N   1      24.904  14.976   1.200  0.00  0.00     0.168 C 
HETATM    3  C   UNK N   1      26.417  16.027   2.865  0.00  0.00     0.682 A 
HETATM    4  N   UNK N   1      25.660  17.169   2.834  0.00  0.00    -0.187 N 
ATOM      5  HN  UNK N   1      24.853  17.244   2.214  1.00  0.00     0.184 HD
HETATM    6  C   UNK N   1      26.008  18.196   3.646  0.00  0.00     0.115 A 
HETATM    7  C   UNK N   1      27.079  18.139   4.473  0.00  0.00     0.125 A 
HETATM    8  C   UNK N   1      27.881  17.003   4.490  0.00  0.00     0.153 A 
HETATM    9  N   UNK N   1      27.522  15.960   3.683  0.00  0.00    -0.174 N 
ATOM     10  HN  UNK N   1      28.087  15.110   3.688  1.00  0.00     0.186 HD
HETATM   11  N   UNK N   1      27.157  19.301   5.159  0.00  0.00    -0.284 N 
HETATM   12  N   UNK N   1      26.150  20.084   4.788  0.00  0.00    -0.291 N 
ATOM     13  HN  UNK N   1      25.954  21.017   5.151  1.00  0.00     0.187 HD
HETATM   14  C   UNK N   1      25.426  19.433   3.843  0.00  0.00     0.147 A 
ENDROOT
BRANCH   8  15
HETATM   15  N   UNK N   1      29.046  16.948   5.297  0.00  0.00    -0.326 N 
HETATM   16  H   UNK N   1      28.921  16.884   6.272  0.00  0.00     0.169 HD
BRANCH  15  17
HETATM   17  C   UNK N   1      30.380  16.978   4.812  0.00  0.00     0.106 A 
HETATM   18  C   UNK N   1      31.429  17.114   5.724  0.00  0.00     0.055 A 
HETATM   19  C   UNK N   1      32.738  17.217   5.258  0.00  0.00    -0.057 A 
HETATM   20  C   UNK N   1      32.989  17.183   3.886  0.00  0.00     0.024 A 
HETATM   21  C   UNK N   1      33.859  17.383   6.219  0.00  0.00     0.048 C 
HETATM   22  C   UNK N   1      31.919  17.045   3.000  0.00  0.00     0.090 A 
HETATM   23  N   UNK N   1      30.647  16.955   3.475  0.00  0.00    -0.352 N 
ATOM     24  HN  UNK N   1      29.874  16.868   2.814  1.00  0.00     0.166 HD
ENDBRANCH  15  17
ENDBRANCH   8  15
BRANCH  11  25
HETATM   25  C   UNK N   1      28.131  19.686   6.177  0.00  0.00     0.175 C 
BRANCH  25  26
HETATM   26  C   UNK N   1      27.669  19.271   7.564  0.00  0.00     0.189 C 
BRANCH  26  27
HETATM   27  O   UNK N   1      28.433  18.188   8.006  0.00  0.00    -0.390 OA
BRANCH  27  28
HETATM   28  C   UNK N   1      29.112  18.644   9.134  0.00  0.00     0.163 C 
HETATM   29  C   UNK N   1      30.582  18.300   9.009  0.00  0.00     0.033 C 
ENDBRANCH  27  28
ENDBRANCH  26  27
ENDBRANCH  25  26
ENDBRANCH  11  25
BRANCH  14  30
HETATM   30  C   UNK N   1      24.237  19.974   3.130  0.00  0.00     0.285 C 
HETATM   31  O   UNK N   1      24.412  20.846   2.293  0.00  0.00    -0.265 OA
HETATM   32  N   UNK N   1      22.964  19.554   3.365  0.00  0.00    -0.249 N 
HETATM   33  H   UNK N   1      22.246  20.042   2.902  0.00  0.00     0.182 HD
BRANCH  32  34
HETATM   34  S   UNK N   1      22.471  18.227   4.411  0.00  0.00     0.229 S 
HETATM   35  O   UNK N   1      23.479  18.236   5.570  0.00  0.00    -0.206 OA
HETATM   36  O   UNK N   1      22.928  16.983   3.637  0.00  0.00    -0.206 OA
HETATM   37  C   UNK N   1      20.740  18.046   4.929  0.00  0.00     0.186 C 
ENDBRANCH  32  34
ENDBRANCH  14  30
BRANCH   1  38
HETATM   38  C   UNK N   1      26.699  13.621   2.241  0.00  0.00     0.136 C 
HETATM   39  C   UNK N   1      25.829  12.486   1.733  0.00  0.00     0.027 C 
ENDBRANCH   1  38
TORSDOF 9
ENDMDL
MODEL 9
REMARK VINA RESULT:      -6.3      2.948      6.442
REMARK  9 active torsions:
REMARK  status: ('A' for Active; 'I' for Inactive)
REMARK    1  A    between atoms: C_2  and  N_3 
REMARK       I    between atoms: N_3  and  C_5 
REMARK    2  A    between atoms: C_10  and  N_13 
REMARK    3  A    between atoms: N_13  and  C_14 
REMARK    4  A    between atoms: N_22  and  C_33 
REMARK    5  A    between atoms: C_25  and  C_26 
REMARK       I    between atoms: C_26  and  N_28 
REMARK    6  A    between atoms: N_28  and  S_29 
REMARK    7  A    between atoms: C_33  and  C_34 
REMARK    8  A    between atoms: C_34  and  O_35 
REMARK    9  A    between atoms: O_35  and  C_36 
ROOT
HETATM    1  N   UNK N   1      23.190  13.118   8.493  0.00  0.00    -0.222 N 
HETATM    2  C   UNK N   1      22.062  13.222   9.383  0.00  0.00     0.168 C 
HETATM    3  C   UNK N   1      23.370  14.077   7.453  0.00  0.00     0.682 A 
HETATM    4  N   UNK N   1      22.504  15.133   7.333  0.00  0.00    -0.187 N 
ATOM      5  HN  UNK N   1      21.696  15.219   7.950  1.00  0.00     0.184 HD
HETATM    6  C   UNK N   1      22.746  16.059   6.374  0.00  0.00     0.115 A 
HETATM    7  C   UNK N   1      23.799  15.973   5.528  0.00  0.00     0.125 A 
HETATM    8  C   UNK N   1      24.667  14.889   5.610  0.00  0.00     0.153 A 
HETATM    9  N   UNK N   1      24.433  13.962   6.587  0.00  0.00    -0.174 N 
ATOM     10  HN  UNK N   1      25.063  13.164   6.676  1.00  0.00     0.186 HD
HETATM   11  N   UNK N   1      23.780  17.044   4.703  0.00  0.00    -0.284 N 
HETATM   12  N   UNK N   1      22.740  17.808   5.021  0.00  0.00    -0.291 N 
ATOM     13  HN  UNK N   1      22.487  18.688   4.571  1.00  0.00     0.187 HD
HETATM   14  C   UNK N   1      22.073  17.220   6.045  0.00  0.00     0.147 A 
ENDROOT
BRANCH   8  15
HETATM   15  N   UNK N   1      25.737  14.742   4.690  0.00  0.00    -0.326 N 
HETATM   16  H   UNK N   1      26.533  15.304   4.828  0.00  0.00     0.169 HD
BRANCH  15  17
HETATM   17  C   UNK N   1      25.750  13.849   3.587  0.00  0.00     0.106 A 
HETATM   18  C   UNK N   1      24.835  14.042   2.549  0.00  0.00     0.055 A 
HETATM   19  C   UNK N   1      24.788  13.132   1.495  0.00  0.00    -0.057 A 
HETATM   20  C   UNK N   1      25.655  12.039   1.484  0.00  0.00     0.024 A 
HETATM   21  C   UNK N   1      23.804  13.316   0.396  0.00  0.00     0.048 C 
HETATM   22  C   UNK N   1      26.559  11.876   2.536  0.00  0.00     0.090 A 
HETATM   23  N   UNK N   1      26.582  12.770   3.561  0.00  0.00    -0.352 N 
ATOM     24  HN  UNK N   1      27.240  12.629   4.329  1.00  0.00     0.166 HD
ENDBRANCH  15  17
ENDBRANCH   8  15
BRANCH  11  25
HETATM   25  C   UNK N   1      24.727  17.387   3.646  0.00  0.00     0.175 C 
BRANCH  25  26
HETATM   26  C   UNK N   1      25.138  18.848   3.731  0.00  0.00     0.189 C 
BRANCH  26  27
HETATM   27  O   UNK N   1      25.288  19.214   5.071  0.00  0.00    -0.390 OA
BRANCH  27  28
HETATM   28  C   UNK N   1      26.152  20.307   5.067  0.00  0.00     0.163 C 
HETATM   29  C   UNK N   1      27.204  20.114   3.995  0.00  0.00     0.033 C 
ENDBRANCH  27  28
ENDBRANCH  26  27
ENDBRANCH  25  26
ENDBRANCH  11  25
BRANCH  14  30
HETATM   30  C   UNK N   1      20.824  17.726   6.675  0.00  0.00     0.285 C 
HETATM   31  O   UNK N   1      20.891  18.729   7.367  0.00  0.00    -0.265 OA
HETATM   32  N   UNK N   1      19.610  17.127   6.527  0.00  0.00    -0.249 N 
HETATM   33  H   UNK N   1      18.869  17.494   7.060  0.00  0.00     0.182 HD
BRANCH  32  34
HETATM   34  S   UNK N   1      19.231  15.763   5.480  0.00  0.00     0.229 S 
HETATM   35  O   UNK N   1      17.703  15.625   5.542  0.00  0.00    -0.206 OA
HETATM   36  O   UNK N   1      19.668  14.550   6.313  0.00  0.00    -0.206 OA
HETATM   37  C   UNK N   1      19.922  15.659   3.804  0.00  0.00     0.186 C 
ENDBRANCH  32  34
ENDBRANCH  14  30
BRANCH   1  38
HETATM   38  C   UNK N   1      24.193  12.116   8.770  0.00  0.00     0.136 C 
HETATM   39  C   UNK N   1      24.697  12.220  10.197  0.00  0.00     0.027 C 
ENDBRANCH   1  38
TORSDOF 9
ENDMDL
