MODEL 1
REMARK VINA RESULT:      -8.4      0.000      0.000
REMARK  5 active torsions:
REMARK  status: ('A' for Active; 'I' for Inactive)
REMARK    1  A    between atoms: C_16  and  C_15 
REMARK    2  A    between atoms: N_31  and  C_15 
REMARK    3  A    between atoms: C_22  and  C_17 
REMARK    4  A    between atoms: N_32  and  C_23 
REMARK    5  A    between atoms: S_38  and  N_33 
ROOT
HETATM    1  C   UNK N   1      28.532  18.249   6.594  0.00  0.00     0.047 A 
HETATM    2  C   UNK N   1      27.677  18.068   5.486  0.00  0.00     0.014 A 
HETATM    3  C   UNK N   1      29.572  17.266   6.613  0.00  0.00     0.055 A 
HETATM    4  C   UNK N   1      29.520  16.361   5.566  0.00  0.00     0.076 A 
HETATM    5  C   UNK N   1      31.464  16.143   7.463  0.00  0.00     0.118 A 
HETATM    6  C   UNK N   1      30.417  15.302   5.481  0.00  0.00     0.124 A 
HETATM    7  N   UNK N   1      30.544  17.157   7.558  0.00  0.00    -0.340 N 
ATOM      8  HN  UNK N   1      30.589  17.822   8.329  1.00  0.00     0.167 HD
HETATM    9  N   UNK N   1      31.381  15.231   6.442  0.00  0.00    -0.327 N 
ATOM     10  HN  UNK N   1      32.064  14.474   6.401  1.00  0.00     0.169 HD
HETATM   11  S   UNK N   1      28.271  16.800   4.610  0.00  0.00    -0.087 SA
ENDROOT
BRANCH   2  12
HETATM   12  C   UNK N   1      26.471  18.880   5.095  0.00  0.00     0.318 C 
BRANCH  12  13
HETATM   13  N   UNK N   1      25.837  18.548   3.793  0.00  0.00     0.095 N 
HETATM   14  C   UNK N   1      24.633  17.752   4.001  0.00  0.00     0.288 C 
HETATM   15  C   UNK N   1      23.549  18.585   4.686  0.00  0.00     0.137 C 
HETATM   16  N   UNK N   1      23.200  19.820   3.955  0.00  0.00    -0.208 NA
HETATM   17  C   UNK N   1      24.331  20.511   3.311  0.00  0.00     0.137 C 
HETATM   18  C   UNK N   1      25.505  19.629   2.855  0.00  0.00     0.288 C 
BRANCH  16  19
HETATM   19  S   UNK N   1      21.811  19.685   2.837  0.00  0.00     0.207 S 
HETATM   20  C   UNK N   1      20.674  20.919   2.144  0.00  0.00     0.180 C 
HETATM   21  O   UNK N   1      22.315  21.127   2.635  0.00  0.00    -0.212 OA
HETATM   22  O   UNK N   1      20.903  19.979   4.043  0.00  0.00    -0.212 OA
ENDBRANCH  16  19
ENDBRANCH  12  13
ENDBRANCH   2  12
BRANCH   6  23
HETATM   23  N   UNK N   1      30.330  14.279   4.480  0.00  0.00    -0.362 N 
HETATM   24  C   UNK N   1      31.019  14.399   3.206  0.00  0.00     0.150 C 
HETATM   25  C   UNK N   1      31.440  13.012   2.732  0.00  0.00     0.187 C 
HETATM   26  O   UNK N   1      30.301  12.191   2.664  0.00  0.00    -0.388 OA
HETATM   27  C   UNK N   1      29.914  11.940   3.994  0.00  0.00     0.187 C 
HETATM   28  C   UNK N   1      29.349  13.221   4.614  0.00  0.00     0.150 C 
ENDBRANCH   6  23
BRANCH   5  29
HETATM   29  C   UNK N   1      32.555  16.022   8.457  0.00  0.00     0.022 A 
HETATM   30  C   UNK N   1      32.641  14.893   9.300  0.00  0.00     0.016 A 
HETATM   31  C   UNK N   1      33.677  14.789  10.258  0.00  0.00     0.003 A 
HETATM   32  C   UNK N   1      34.636  15.810  10.389  0.00  0.00     0.032 A 
HETATM   33  C   UNK N   1      34.523  16.909   9.545  0.00  0.00     0.060 A 
HETATM   34  C   UNK N   1      33.532  17.019   8.618  0.00  0.00     0.023 A 
HETATM   35  N   UNK N   1      35.313  17.990   9.497  0.00  0.00    -0.300 N 
HETATM   36  C   UNK N   1      33.745  18.227   7.986  0.00  0.00     0.121 A 
HETATM   37  N   UNK N   1      34.842  18.793   8.547  0.00  0.00    -0.311 N 
ATOM     38  HN  UNK N   1      35.242  19.693   8.283  1.00  0.00     0.186 HD
HETATM   39  H   UNK N   1      36.101  18.158  10.061  0.00  0.00     0.187 HD
ENDBRANCH   5  29
TORSDOF 5
ENDMDL
MODEL 2
REMARK VINA RESULT:      -8.0      4.412     10.414
REMARK  5 active torsions:
REMARK  status: ('A' for Active; 'I' for Inactive)
REMARK    1  A    between atoms: C_16  and  C_15 
REMARK    2  A    between atoms: N_31  and  C_15 
REMARK    3  A    between atoms: C_22  and  C_17 
REMARK    4  A    between atoms: N_32  and  C_23 
REMARK    5  A    between atoms: S_38  and  N_33 
ROOT
HETATM    1  C   UNK N   1      31.265  16.683   8.475  0.00  0.00     0.047 A 
HETATM    2  C   UNK N   1      32.377  15.814   8.479  0.00  0.00     0.014 A 
HETATM    3  C   UNK N   1      30.700  16.795   7.165  0.00  0.00     0.055 A 
HETATM    4  C   UNK N   1      31.348  16.047   6.198  0.00  0.00     0.076 A 
HETATM    5  C   UNK N   1      29.214  17.598   5.519  0.00  0.00     0.118 A 
HETATM    6  C   UNK N   1      30.964  16.104   4.862  0.00  0.00     0.124 A 
HETATM    7  N   UNK N   1      29.633  17.567   6.825  0.00  0.00    -0.340 N 
ATOM      8  HN  UNK N   1      29.149  18.118   7.535  1.00  0.00     0.167 HD
HETATM    9  N   UNK N   1      29.886  16.883   4.562  0.00  0.00    -0.327 N 
ATOM     10  HN  UNK N   1      29.570  16.935   3.594  1.00  0.00     0.169 HD
HETATM   11  S   UNK N   1      32.542  15.221   6.945  0.00  0.00    -0.087 SA
ENDROOT
BRANCH   2  12
HETATM   12  C   UNK N   1      33.250  15.420   9.640  0.00  0.00     0.318 C 
BRANCH  12  13
HETATM   13  N   UNK N   1      34.619  14.943   9.314  0.00  0.00     0.095 N 
HETATM   14  C   UNK N   1      35.593  15.527  10.228  0.00  0.00     0.288 C 
HETATM   15  C   UNK N   1      35.392  14.988  11.645  0.00  0.00     0.137 C 
HETATM   16  N   UNK N   1      35.456  13.515  11.734  0.00  0.00    -0.208 NA
HETATM   17  C   UNK N   1      34.855  12.788  10.602  0.00  0.00     0.137 C 
HETATM   18  C   UNK N   1      34.881  13.499   9.238  0.00  0.00     0.288 C 
BRANCH  16  19
HETATM   19  S   UNK N   1      37.060  12.840  12.149  0.00  0.00     0.207 S 
HETATM   20  C   UNK N   1      37.562  11.349  13.054  0.00  0.00     0.180 C 
HETATM   21  O   UNK N   1      36.131  11.610  12.127  0.00  0.00    -0.212 OA
HETATM   22  O   UNK N   1      36.778  13.253  13.603  0.00  0.00    -0.212 OA
ENDBRANCH  16  19
ENDBRANCH  12  13
ENDBRANCH   2  12
BRANCH   6  23
HETATM   23  N   UNK N   1      31.678  15.437   3.812  0.00  0.00    -0.362 N 
HETATM   24  C   UNK N   1      32.835  16.041   3.174  0.00  0.00     0.150 C 
HETATM   25  C   UNK N   1      33.812  14.943   2.767  0.00  0.00     0.187 C 
HETATM   26  O   UNK N   1      33.145  14.025   1.937  0.00  0.00    -0.388 OA
HETATM   27  C   UNK N   1      32.246  13.325   2.765  0.00  0.00     0.187 C 
HETATM   28  C   UNK N   1      31.109  14.258   3.192  0.00  0.00     0.150 C 
ENDBRANCH   6  23
BRANCH   5  29
HETATM   29  C   UNK N   1      28.033  18.402   5.127  0.00  0.00     0.022 A 
HETATM   30  C   UNK N   1      28.188  19.700   4.594  0.00  0.00     0.016 A 
HETATM   31  C   UNK N   1      27.056  20.469   4.235  0.00  0.00     0.003 A 
HETATM   32  C   UNK N   1      25.757  19.955   4.405  0.00  0.00     0.032 A 
HETATM   33  C   UNK N   1      25.638  18.674   4.933  0.00  0.00     0.060 A 
HETATM   34  C   UNK N   1      26.721  17.924   5.281  0.00  0.00     0.023 A 
HETATM   35  N   UNK N   1      24.513  17.992   5.184  0.00  0.00    -0.300 N 
HETATM   36  C   UNK N   1      26.211  16.735   5.761  0.00  0.00     0.121 A 
HETATM   37  N   UNK N   1      24.859  16.811   5.687  0.00  0.00    -0.311 N 
ATOM     38  HN  UNK N   1      24.210  16.078   5.974  1.00  0.00     0.186 HD
HETATM   39  H   UNK N   1      23.595  18.308   5.023  0.00  0.00     0.187 HD
ENDBRANCH   5  29
TORSDOF 5
ENDMDL
MODEL 3
REMARK VINA RESULT:      -8.0      6.674     10.565
REMARK  5 active torsions:
REMARK  status: ('A' for Active; 'I' for Inactive)
REMARK    1  A    between atoms: C_16  and  C_15 
REMARK    2  A    between atoms: N_31  and  C_15 
REMARK    3  A    between atoms: C_22  and  C_17 
REMARK    4  A    between atoms: N_32  and  C_23 
REMARK    5  A    between atoms: S_38  and  N_33 
ROOT
HETATM    1  C   UNK N   1      35.287  14.215  12.587  0.00  0.00     0.047 A 
HETATM    2  C   UNK N   1      35.216  14.063  11.185  0.00  0.00     0.014 A 
HETATM    3  C   UNK N   1      35.167  12.953  13.251  0.00  0.00     0.055 A 
HETATM    4  C   UNK N   1      35.007  11.873  12.400  0.00  0.00     0.076 A 
HETATM    5  C   UNK N   1      35.026  11.493  15.098  0.00  0.00     0.118 A 
HETATM    6  C   UNK N   1      34.806  10.588  12.893  0.00  0.00     0.124 A 
HETATM    7  N   UNK N   1      35.179  12.761  14.598  0.00  0.00    -0.340 N 
ATOM      8  HN  UNK N   1      35.299  13.553  15.229  1.00  0.00     0.167 HD
HETATM    9  N   UNK N   1      34.832  10.435  14.247  0.00  0.00    -0.327 N 
ATOM     10  HN  UNK N   1      34.702   9.503  14.641  1.00  0.00     0.169 HD
HETATM   11  S   UNK N   1      35.077  12.447  10.873  0.00  0.00    -0.087 SA
ENDROOT
BRANCH   2  12
HETATM   12  C   UNK N   1      35.301  15.128  10.125  0.00  0.00     0.318 C 
BRANCH  12  13
HETATM   13  N   UNK N   1      34.069  15.923   9.878  0.00  0.00     0.095 N 
HETATM   14  C   UNK N   1      34.391  17.147   9.154  0.00  0.00     0.288 C 
HETATM   15  C   UNK N   1      34.858  16.825   7.734  0.00  0.00     0.137 C 
HETATM   16  N   UNK N   1      33.885  16.034   6.954  0.00  0.00    -0.208 NA
HETATM   17  C   UNK N   1      33.155  15.005   7.716  0.00  0.00     0.137 C 
HETATM   18  C   UNK N   1      32.924  15.291   9.209  0.00  0.00     0.288 C 
BRANCH  16  19
HETATM   19  S   UNK N   1      32.768  16.984   5.929  0.00  0.00     0.207 S 
HETATM   20  C   UNK N   1      32.717  17.297   4.141  0.00  0.00     0.180 C 
HETATM   21  O   UNK N   1      33.341  15.919   4.972  0.00  0.00    -0.212 OA
HETATM   22  O   UNK N   1      33.906  18.005   5.762  0.00  0.00    -0.212 OA
ENDBRANCH  16  19
ENDBRANCH  12  13
ENDBRANCH   2  12
BRANCH   6  23
HETATM   23  N   UNK N   1      34.523   9.461  12.052  0.00  0.00    -0.362 N 
HETATM   24  C   UNK N   1      33.293   9.374  11.283  0.00  0.00     0.150 C 
HETATM   25  C   UNK N   1      33.568   8.629   9.981  0.00  0.00     0.187 C 
HETATM   26  O   UNK N   1      34.115   7.370  10.286  0.00  0.00    -0.388 OA
HETATM   27  C   UNK N   1      35.416   7.610  10.766  0.00  0.00     0.187 C 
HETATM   28  C   UNK N   1      35.340   8.269  12.146  0.00  0.00     0.150 C 
ENDBRANCH   6  23
BRANCH   5  29
HETATM   29  C   UNK N   1      35.071  11.250  16.558  0.00  0.00     0.022 A 
HETATM   30  C   UNK N   1      34.986   9.939  17.075  0.00  0.00     0.016 A 
HETATM   31  C   UNK N   1      35.015   9.714  18.472  0.00  0.00     0.003 A 
HETATM   32  C   UNK N   1      35.126  10.792  19.368  0.00  0.00     0.032 A 
HETATM   33  C   UNK N   1      35.208  12.071  18.828  0.00  0.00     0.060 A 
HETATM   34  C   UNK N   1      35.183  12.299  17.486  0.00  0.00     0.023 A 
HETATM   35  N   UNK N   1      35.315  13.233  19.486  0.00  0.00    -0.300 N 
HETATM   36  C   UNK N   1      35.281  13.668  17.339  0.00  0.00     0.121 A 
HETATM   37  N   UNK N   1      35.360  14.207  18.582  0.00  0.00    -0.311 N 
ATOM     38  HN  UNK N   1      35.441  15.202  18.789  1.00  0.00     0.186 HD
HETATM   39  H   UNK N   1      35.353  13.346  20.463  0.00  0.00     0.187 HD
ENDBRANCH   5  29
TORSDOF 5
ENDMDL
MODEL 4
REMARK VINA RESULT:      -7.9      5.043      9.488
REMARK  5 active torsions:
REMARK  status: ('A' for Active; 'I' for Inactive)
REMARK    1  A    between atoms: C_16  and  C_15 
REMARK    2  A    between atoms: N_31  and  C_15 
REMARK    3  A    between atoms: C_22  and  C_17 
REMARK    4  A    between atoms: N_32  and  C_23 
REMARK    5  A    between atoms: S_38  and  N_33 
ROOT
HETATM    1  C   UNK N   1      27.088  15.005   6.264  0.00  0.00     0.047 A 
HETATM    2  C   UNK N   1      27.449  15.771   5.135  0.00  0.00     0.014 A 
HETATM    3  C   UNK N   1      25.671  15.013   6.465  0.00  0.00     0.055 A 
HETATM    4  C   UNK N   1      24.967  15.755   5.533  0.00  0.00     0.076 A 
HETATM    5  C   UNK N   1      23.645  14.502   7.558  0.00  0.00     0.118 A 
HETATM    6  C   UNK N   1      23.590  15.921   5.631  0.00  0.00     0.124 A 
HETATM    7  N   UNK N   1      25.010  14.386   7.474  0.00  0.00    -0.340 N 
ATOM      8  HN  UNK N   1      25.523  13.834   8.162  1.00  0.00     0.167 HD
HETATM    9  N   UNK N   1      22.961  15.270   6.652  0.00  0.00    -0.327 N 
ATOM     10  HN  UNK N   1      21.950  15.359   6.744  1.00  0.00     0.169 HD
HETATM   11  S   UNK N   1      26.051  16.332   4.455  0.00  0.00    -0.087 SA
ENDROOT
BRANCH   2  12
HETATM   12  C   UNK N   1      28.824  16.020   4.576  0.00  0.00     0.318 C 
BRANCH  12  13
HETATM   13  N   UNK N   1      29.436  17.341   4.872  0.00  0.00     0.095 N 
HETATM   14  C   UNK N   1      29.276  17.670   6.284  0.00  0.00     0.288 C 
HETATM   15  C   UNK N   1      30.107  16.727   7.154  0.00  0.00     0.137 C 
HETATM   16  N   UNK N   1      31.544  16.715   6.811  0.00  0.00    -0.208 NA
HETATM   17  C   UNK N   1      31.850  16.816   5.373  0.00  0.00     0.137 C 
HETATM   18  C   UNK N   1      30.838  17.586   4.508  0.00  0.00     0.288 C 
BRANCH  16  19
HETATM   19  S   UNK N   1      32.570  17.830   7.763  0.00  0.00     0.207 S 
HETATM   20  C   UNK N   1      34.370  17.990   7.935  0.00  0.00     0.180 C 
HETATM   21  O   UNK N   1      33.468  17.411   6.583  0.00  0.00    -0.212 OA
HETATM   22  O   UNK N   1      32.899  16.635   8.673  0.00  0.00    -0.212 OA
ENDBRANCH  16  19
ENDBRANCH  12  13
ENDBRANCH   2  12
BRANCH   6  23
HETATM   23  N   UNK N   1      22.838  16.772   4.757  0.00  0.00    -0.362 N 
HETATM   24  C   UNK N   1      22.353  16.304   3.469  0.00  0.00     0.150 C 
HETATM   25  C   UNK N   1      21.028  16.990   3.153  0.00  0.00     0.187 C 
HETATM   26  O   UNK N   1      21.216  18.382   3.195  0.00  0.00    -0.388 OA
HETATM   27  C   UNK N   1      21.402  18.715   4.551  0.00  0.00     0.187 C 
HETATM   28  C   UNK N   1      22.761  18.194   5.025  0.00  0.00     0.150 C 
ENDBRANCH   6  23
BRANCH   5  29
HETATM   29  C   UNK N   1      22.895  13.800   8.626  0.00  0.00     0.022 A 
HETATM   30  C   UNK N   1      21.485  13.743   8.600  0.00  0.00     0.016 A 
HETATM   31  C   UNK N   1      20.773  13.084   9.629  0.00  0.00     0.003 A 
HETATM   32  C   UNK N   1      21.458  12.477  10.698  0.00  0.00     0.032 A 
HETATM   33  C   UNK N   1      22.846  12.551  10.695  0.00  0.00     0.060 A 
HETATM   34  C   UNK N   1      23.542  13.181   9.709  0.00  0.00     0.023 A 
HETATM   35  N   UNK N   1      23.695  12.054  11.604  0.00  0.00    -0.300 N 
HETATM   36  C   UNK N   1      24.873  13.050  10.049  0.00  0.00     0.121 A 
HETATM   37  N   UNK N   1      24.930  12.355  11.213  0.00  0.00    -0.311 N 
ATOM     38  HN  UNK N   1      25.785  12.104  11.709  1.00  0.00     0.186 HD
HETATM   39  H   UNK N   1      23.450  11.554  12.416  0.00  0.00     0.187 HD
ENDBRANCH   5  29
TORSDOF 5
ENDMDL
MODEL 5
REMARK VINA RESULT:      -7.8      8.136     12.465
REMARK  5 active torsions:
REMARK  status: ('A' for Active; 'I' for Inactive)
REMARK    1  A    between atoms: C_16  and  C_15 
REMARK    2  A    between atoms: N_31  and  C_15 
REMARK    3  A    between atoms: C_22  and  C_17 
REMARK    4  A    between atoms: N_32  and  C_23 
REMARK    5  A    between atoms: S_38  and  N_33 
ROOT
HETATM    1  C   UNK N   1      35.716  13.384  13.309  0.00  0.00     0.047 A 
HETATM    2  C   UNK N   1      36.371  13.214  12.070  0.00  0.00     0.014 A 
HETATM    3  C   UNK N   1      36.135  12.396  14.256  0.00  0.00     0.055 A 
HETATM    4  C   UNK N   1      37.071  11.499  13.769  0.00  0.00     0.076 A 
HETATM    5  C   UNK N   1      36.152  11.260  16.322  0.00  0.00     0.118 A 
HETATM    6  C   UNK N   1      37.524  10.437  14.543  0.00  0.00     0.124 A 
HETATM    7  N   UNK N   1      35.679  12.276  15.532  0.00  0.00    -0.340 N 
ATOM      8  HN  UNK N   1      34.992  12.936  15.897  1.00  0.00     0.167 HD
HETATM    9  N   UNK N   1      37.051  10.355  15.819  0.00  0.00    -0.327 N 
ATOM     10  HN  UNK N   1      37.374   9.596  16.417  1.00  0.00     0.169 HD
HETATM   11  S   UNK N   1      37.421  11.950  12.239  0.00  0.00    -0.087 SA
ENDROOT
BRANCH   2  12
HETATM   12  C   UNK N   1      36.222  14.033  10.816  0.00  0.00     0.318 C 
BRANCH  12  13
HETATM   13  N   UNK N   1      34.886  14.021  10.166  0.00  0.00     0.095 N 
HETATM   14  C   UNK N   1      34.190  15.279  10.410  0.00  0.00     0.288 C 
HETATM   15  C   UNK N   1      34.891  16.431   9.689  0.00  0.00     0.137 C 
HETATM   16  N   UNK N   1      35.030  16.222   8.234  0.00  0.00    -0.208 NA
HETATM   17  C   UNK N   1      35.323  14.839   7.821  0.00  0.00     0.137 C 
HETATM   18  C   UNK N   1      34.785  13.722   8.731  0.00  0.00     0.288 C 
BRANCH  16  19
HETATM   19  S   UNK N   1      33.730  16.929   7.228  0.00  0.00     0.207 S 
HETATM   20  C   UNK N   1      33.681  17.468   5.495  0.00  0.00     0.180 C 
HETATM   21  O   UNK N   1      34.658  16.238   6.209  0.00  0.00    -0.212 OA
HETATM   22  O   UNK N   1      34.498  18.259   7.298  0.00  0.00    -0.212 OA
ENDBRANCH  16  19
ENDBRANCH  12  13
ENDBRANCH   2  12
BRANCH   6  23
HETATM   23  N   UNK N   1      38.404   9.422  14.042  0.00  0.00    -0.362 N 
HETATM   24  C   UNK N   1      39.763   9.278  14.538  0.00  0.00     0.150 C 
HETATM   25  C   UNK N   1      40.154   7.804  14.505  0.00  0.00     0.187 C 
HETATM   26  O   UNK N   1      39.995   7.321  13.195  0.00  0.00    -0.388 OA
HETATM   27  C   UNK N   1      38.608   7.260  12.962  0.00  0.00     0.187 C 
HETATM   28  C   UNK N   1      38.044   8.680  12.851  0.00  0.00     0.150 C 
ENDBRANCH   6  23
BRANCH   5  29
HETATM   29  C   UNK N   1      35.699  11.127  17.727  0.00  0.00     0.022 A 
HETATM   30  C   UNK N   1      35.589   9.857  18.333  0.00  0.00     0.016 A 
HETATM   31  C   UNK N   1      35.143   9.735  19.670  0.00  0.00     0.003 A 
HETATM   32  C   UNK N   1      34.799  10.877  20.417  0.00  0.00     0.032 A 
HETATM   33  C   UNK N   1      34.919  12.113  19.792  0.00  0.00     0.060 A 
HETATM   34  C   UNK N   1      35.349  12.242  18.506  0.00  0.00     0.023 A 
HETATM   35  N   UNK N   1      34.646  13.320  20.304  0.00  0.00    -0.300 N 
HETATM   36  C   UNK N   1      35.332  13.597  18.243  0.00  0.00     0.121 A 
HETATM   37  N   UNK N   1      34.898  14.225  19.363  0.00  0.00    -0.311 N 
ATOM     38  HN  UNK N   1      34.782  15.233  19.467  1.00  0.00     0.186 HD
HETATM   39  H   UNK N   1      34.320  13.504  21.214  0.00  0.00     0.187 HD
ENDBRANCH   5  29
TORSDOF 5
ENDMDL
MODEL 6
REMARK VINA RESULT:      -7.8      4.285     10.824
REMARK  5 active torsions:
REMARK  status: ('A' for Active; 'I' for Inactive)
REMARK    1  A    between atoms: C_16  and  C_15 
REMARK    2  A    between atoms: N_31  and  C_15 
REMARK    3  A    between atoms: C_22  and  C_17 
REMARK    4  A    between atoms: N_32  and  C_23 
REMARK    5  A    between atoms: S_38  and  N_33 
ROOT
HETATM    1  C   UNK N   1      26.290  16.610   4.761  0.00  0.00     0.047 A 
HETATM    2  C   UNK N   1      26.952  15.709   5.623  0.00  0.00     0.014 A 
HETATM    3  C   UNK N   1      24.872  16.551   4.938  0.00  0.00     0.055 A 
HETATM    4  C   UNK N   1      24.453  15.641   5.894  0.00  0.00     0.076 A 
HETATM    5  C   UNK N   1      22.619  17.099   4.505  0.00  0.00     0.118 A 
HETATM    6  C   UNK N   1      23.103  15.413   6.134  0.00  0.00     0.124 A 
HETATM    7  N   UNK N   1      23.954  17.279   4.247  0.00  0.00    -0.340 N 
ATOM      8  HN  UNK N   1      24.257  17.954   3.544  1.00  0.00     0.167 HD
HETATM    9  N   UNK N   1      22.214  16.168   5.427  0.00  0.00    -0.327 N 
ATOM     10  HN  UNK N   1      21.216  16.037   5.590  1.00  0.00     0.169 HD
HETATM   11  S   UNK N   1      25.795  14.977   6.548  0.00  0.00    -0.087 SA
ENDROOT
BRANCH   2  12
HETATM   12  C   UNK N   1      28.430  15.461   5.758  0.00  0.00     0.318 C 
BRANCH  12  13
HETATM   13  N   UNK N   1      29.335  16.509   5.218  0.00  0.00     0.095 N 
HETATM   14  C   UNK N   1      29.537  17.564   6.204  0.00  0.00     0.288 C 
HETATM   15  C   UNK N   1      30.330  17.037   7.400  0.00  0.00     0.137 C 
HETATM   16  N   UNK N   1      31.635  16.449   7.035  0.00  0.00    -0.208 NA
HETATM   17  C   UNK N   1      31.651  15.685   5.776  0.00  0.00     0.137 C 
HETATM   18  C   UNK N   1      30.652  16.124   4.693  0.00  0.00     0.288 C 
BRANCH  16  19
HETATM   19  S   UNK N   1      33.032  17.564   7.125  0.00  0.00     0.207 S 
HETATM   20  C   UNK N   1      34.394  17.724   8.314  0.00  0.00     0.180 C 
HETATM   21  O   UNK N   1      33.504  16.309   7.885  0.00  0.00    -0.212 OA
HETATM   22  O   UNK N   1      32.325  18.238   8.313  0.00  0.00    -0.212 OA
ENDBRANCH  16  19
ENDBRANCH  12  13
ENDBRANCH   2  12
BRANCH   6  23
HETATM   23  N   UNK N   1      22.625  14.402   7.031  0.00  0.00    -0.362 N 
HETATM   24  C   UNK N   1      22.735  12.988   6.713  0.00  0.00     0.150 C 
HETATM   25  C   UNK N   1      22.940  12.199   8.001  0.00  0.00     0.187 C 
HETATM   26  O   UNK N   1      21.880  12.483   8.881  0.00  0.00    -0.388 OA
HETATM   27  C   UNK N   1      22.071  13.808   9.316  0.00  0.00     0.187 C 
HETATM   28  C   UNK N   1      21.795  14.772   8.159  0.00  0.00     0.150 C 
ENDBRANCH   6  23
BRANCH   5  29
HETATM   29  C   UNK N   1      21.600  17.905   3.793  0.00  0.00     0.022 A 
HETATM   30  C   UNK N   1      21.407  19.267   4.109  0.00  0.00     0.016 A 
HETATM   31  C   UNK N   1      20.423  20.029   3.436  0.00  0.00     0.003 A 
HETATM   32  C   UNK N   1      19.619  19.441   2.442  0.00  0.00     0.032 A 
HETATM   33  C   UNK N   1      19.833  18.098   2.155  0.00  0.00     0.060 A 
HETATM   34  C   UNK N   1      20.778  17.355   2.795  0.00  0.00     0.023 A 
HETATM   35  N   UNK N   1      19.187  17.338   1.259  0.00  0.00    -0.300 N 
HETATM   36  C   UNK N   1      20.690  16.090   2.249  0.00  0.00     0.121 A 
HETATM   37  N   UNK N   1      19.708  16.116   1.314  0.00  0.00    -0.311 N 
ATOM     38  HN  UNK N   1      19.416  15.323   0.744  1.00  0.00     0.186 HD
HETATM   39  H   UNK N   1      18.459  17.633   0.666  0.00  0.00     0.187 HD
ENDBRANCH   5  29
TORSDOF 5
ENDMDL
MODEL 7
REMARK VINA RESULT:      -7.8      5.187      9.632
REMARK  5 active torsions:
REMARK  status: ('A' for Active; 'I' for Inactive)
REMARK    1  A    between atoms: C_16  and  C_15 
REMARK    2  A    between atoms: N_31  and  C_15 
REMARK    3  A    between atoms: C_22  and  C_17 
REMARK    4  A    between atoms: N_32  and  C_23 
REMARK    5  A    between atoms: S_38  and  N_33 
ROOT
HETATM    1  C   UNK N   1      26.099  14.886   5.772  0.00  0.00     0.047 A 
HETATM    2  C   UNK N   1      26.220  15.636   4.583  0.00  0.00     0.014 A 
HETATM    3  C   UNK N   1      24.750  14.887   6.250  0.00  0.00     0.055 A 
HETATM    4  C   UNK N   1      23.867  15.609   5.466  0.00  0.00     0.076 A 
HETATM    5  C   UNK N   1      22.987  14.379   7.731  0.00  0.00     0.118 A 
HETATM    6  C   UNK N   1      22.535  15.766   5.834  0.00  0.00     0.124 A 
HETATM    7  N   UNK N   1      24.308  14.271   7.380  0.00  0.00    -0.340 N 
ATOM      8  HN  UNK N   1      24.953  13.735   7.959  1.00  0.00     0.167 HD
HETATM    9  N   UNK N   1      22.128  15.127   6.968  0.00  0.00    -0.327 N 
ATOM     10  HN  UNK N   1      21.154  15.210   7.258  1.00  0.00     0.169 HD
HETATM   11  S   UNK N   1      24.709  16.176   4.187  0.00  0.00    -0.087 SA
ENDROOT
BRANCH   2  12
HETATM   12  C   UNK N   1      27.454  15.886   3.758  0.00  0.00     0.318 C 
BRANCH  12  13
HETATM   13  N   UNK N   1      28.612  14.986   4.000  0.00  0.00     0.095 N 
HETATM   14  C   UNK N   1      29.645  15.206   2.995  0.00  0.00     0.288 C 
HETATM   15  C   UNK N   1      30.272  16.590   3.161  0.00  0.00     0.137 C 
HETATM   16  N   UNK N   1      30.835  16.829   4.505  0.00  0.00    -0.208 NA
HETATM   17  C   UNK N   1      30.064  16.257   5.622  0.00  0.00     0.137 C 
HETATM   18  C   UNK N   1      29.259  14.982   5.319  0.00  0.00     0.288 C 
BRANCH  16  19
HETATM   19  S   UNK N   1      32.580  16.473   4.682  0.00  0.00     0.207 S 
HETATM   20  C   UNK N   1      33.843  17.088   5.831  0.00  0.00     0.180 C 
HETATM   21  O   UNK N   1      32.146  16.924   6.090  0.00  0.00    -0.212 OA
HETATM   22  O   UNK N   1      32.851  17.878   4.118  0.00  0.00    -0.212 OA
ENDBRANCH  16  19
ENDBRANCH  12  13
ENDBRANCH   2  12
BRANCH   6  23
HETATM   23  N   UNK N   1      21.616  16.598   5.113  0.00  0.00    -0.362 N 
HETATM   24  C   UNK N   1      21.468  18.011   5.417  0.00  0.00     0.150 C 
HETATM   25  C   UNK N   1      21.137  18.767   4.135  0.00  0.00     0.187 C 
HETATM   26  O   UNK N   1      19.983  18.206   3.562  0.00  0.00    -0.388 OA
HETATM   27  C   UNK N   1      20.361  16.943   3.067  0.00  0.00     0.187 C 
HETATM   28  C   UNK N   1      20.632  15.994   4.239  0.00  0.00     0.150 C 
ENDBRANCH   6  23
BRANCH   5  29
HETATM   29  C   UNK N   1      22.471  13.689   8.937  0.00  0.00     0.022 A 
HETATM   30  C   UNK N   1      21.083  13.611   9.185  0.00  0.00     0.016 A 
HETATM   31  C   UNK N   1      20.596  12.963  10.345  0.00  0.00     0.003 A 
HETATM   32  C   UNK N   1      21.487  12.389  11.271  0.00  0.00     0.032 A 
HETATM   33  C   UNK N   1      22.846  12.484  10.998  0.00  0.00     0.060 A 
HETATM   34  C   UNK N   1      23.326  13.103   9.884  0.00  0.00     0.023 A 
HETATM   35  N   UNK N   1      23.864  12.018  11.734  0.00  0.00    -0.300 N 
HETATM   36  C   UNK N   1      24.700  12.998   9.963  0.00  0.00     0.121 A 
HETATM   37  N   UNK N   1      24.994  12.329  11.106  0.00  0.00    -0.311 N 
ATOM     38  HN  UNK N   1      25.933  12.102  11.431  1.00  0.00     0.186 HD
HETATM   39  H   UNK N   1      23.790  11.532  12.587  0.00  0.00     0.187 HD
ENDBRANCH   5  29
TORSDOF 5
ENDMDL
MODEL 8
REMARK VINA RESULT:      -7.8      4.854     11.593
REMARK  5 active torsions:
REMARK  status: ('A' for Active; 'I' for Inactive)
REMARK    1  A    between atoms: C_16  and  C_15 
REMARK    2  A    between atoms: N_31  and  C_15 
REMARK    3  A    between atoms: C_22  and  C_17 
REMARK    4  A    between atoms: N_32  and  C_23 
REMARK    5  A    between atoms: S_38  and  N_33 
ROOT
HETATM    1  C   UNK N   1      25.175  15.707   2.668  0.00  0.00     0.047 A 
HETATM    2  C   UNK N   1      25.874  16.334   3.721  0.00  0.00     0.014 A 
HETATM    3  C   UNK N   1      23.794  15.526   2.998  0.00  0.00     0.055 A 
HETATM    4  C   UNK N   1      23.442  15.990   4.254  0.00  0.00     0.076 A 
HETATM    5  C   UNK N   1      21.573  14.806   2.664  0.00  0.00     0.118 A 
HETATM    6  C   UNK N   1      22.154  15.823   4.751  0.00  0.00     0.124 A 
HETATM    7  N   UNK N   1      22.859  14.937   2.205  0.00  0.00    -0.340 N 
ATOM      8  HN  UNK N   1      23.112  14.597   1.277  1.00  0.00     0.167 HD
HETATM    9  N   UNK N   1      21.244  15.236   3.924  0.00  0.00    -0.327 N 
ATOM     10  HN  UNK N   1      20.287  15.112   4.252  1.00  0.00     0.169 HD
HETATM   11  S   UNK N   1      24.777  16.663   4.912  0.00  0.00    -0.087 SA
ENDROOT
BRANCH   2  12
HETATM   12  C   UNK N   1      27.331  16.708   3.782  0.00  0.00     0.318 C 
BRANCH  12  13
HETATM   13  N   UNK N   1      28.268  15.663   4.269  0.00  0.00     0.095 N 
HETATM   14  C   UNK N   1      29.622  15.934   3.800  0.00  0.00     0.288 C 
HETATM   15  C   UNK N   1      30.176  17.198   4.458  0.00  0.00     0.137 C 
HETATM   16  N   UNK N   1      30.169  17.149   5.934  0.00  0.00    -0.208 NA
HETATM   17  C   UNK N   1      29.001  16.485   6.537  0.00  0.00     0.137 C 
HETATM   18  C   UNK N   1      28.340  15.371   5.707  0.00  0.00     0.288 C 
BRANCH  16  19
HETATM   19  S   UNK N   1      31.688  16.585   6.692  0.00  0.00     0.207 S 
HETATM   20  C   UNK N   1      32.847  17.375   7.845  0.00  0.00     0.180 C 
HETATM   21  O   UNK N   1      31.151  17.644   7.674  0.00  0.00    -0.212 OA
HETATM   22  O   UNK N   1      32.430  17.561   5.763  0.00  0.00    -0.212 OA
ENDBRANCH  16  19
ENDBRANCH  12  13
ENDBRANCH   2  12
BRANCH   6  23
HETATM   23  N   UNK N   1      21.777  16.185   6.086  0.00  0.00    -0.362 N 
HETATM   24  C   UNK N   1      21.389  17.544   6.426  0.00  0.00     0.150 C 
HETATM   25  C   UNK N   1      20.338  17.503   7.531  0.00  0.00     0.187 C 
HETATM   26  O   UNK N   1      20.858  16.791   8.626  0.00  0.00    -0.388 OA
HETATM   27  C   UNK N   1      20.916  15.441   8.228  0.00  0.00     0.187 C 
HETATM   28  C   UNK N   1      22.017  15.263   7.178  0.00  0.00     0.150 C 
ENDBRANCH   6  23
BRANCH   5  29
HETATM   29  C   UNK N   1      20.527  14.202   1.807  0.00  0.00     0.022 A 
HETATM   30  C   UNK N   1      20.366  12.801   1.743  0.00  0.00     0.016 A 
HETATM   31  C   UNK N   1      19.374  12.229   0.913  0.00  0.00     0.003 A 
HETATM   32  C   UNK N   1      18.534  13.045   0.134  0.00  0.00     0.032 A 
HETATM   33  C   UNK N   1      18.718  14.421   0.218  0.00  0.00     0.060 A 
HETATM   34  C   UNK N   1      19.668  14.983   1.016  0.00  0.00     0.023 A 
HETATM   35  N   UNK N   1      18.042  15.379  -0.430  0.00  0.00    -0.300 N 
HETATM   36  C   UNK N   1      19.549  16.346   0.832  0.00  0.00     0.121 A 
HETATM   37  N   UNK N   1      18.546  16.552  -0.057  0.00  0.00    -0.311 N 
ATOM     38  HN  UNK N   1      18.229  17.463  -0.388  1.00  0.00     0.186 HD
HETATM   39  H   UNK N   1      17.305  15.240  -1.067  0.00  0.00     0.187 HD
ENDBRANCH   5  29
TORSDOF 5
ENDMDL
MODEL 9
REMARK VINA RESULT:      -7.7      5.241      9.344
REMARK  5 active torsions:
REMARK  status: ('A' for Active; 'I' for Inactive)
REMARK    1  A    between atoms: C_16  and  C_15 
REMARK    2  A    between atoms: N_31  and  C_15 
REMARK    3  A    between atoms: C_22  and  C_17 
REMARK    4  A    between atoms: N_32  and  C_23 
REMARK    5  A    between atoms: S_38  and  N_33 
ROOT
HETATM    1  C   UNK N   1      26.930  15.791   6.181  0.00  0.00     0.047 A 
HETATM    2  C   UNK N   1      27.359  16.084   4.868  0.00  0.00     0.014 A 
HETATM    3  C   UNK N   1      25.654  15.145   6.177  0.00  0.00     0.055 A 
HETATM    4  C   UNK N   1      25.117  14.949   4.916  0.00  0.00     0.076 A 
HETATM    5  C   UNK N   1      23.730  14.164   7.125  0.00  0.00     0.118 A 
HETATM    6  C   UNK N   1      23.851  14.399   4.747  0.00  0.00     0.124 A 
HETATM    7  N   UNK N   1      24.961  14.750   7.279  0.00  0.00    -0.340 N 
ATOM      8  HN  UNK N   1      25.353  14.889   8.210  1.00  0.00     0.167 HD
HETATM    9  N   UNK N   1      23.192  14.008   5.874  0.00  0.00    -0.327 N 
ATOM     10  HN  UNK N   1      22.267  13.587   5.784  1.00  0.00     0.169 HD
HETATM   11  S   UNK N   1      26.212  15.497   3.835  0.00  0.00    -0.087 SA
ENDROOT
BRANCH   2  12
HETATM   12  C   UNK N   1      28.634  16.753   4.430  0.00  0.00     0.318 C 
BRANCH  12  13
HETATM   13  N   UNK N   1      29.733  15.862   3.975  0.00  0.00     0.095 N 
HETATM   14  C   UNK N   1      30.802  16.643   3.366  0.00  0.00     0.288 C 
HETATM   15  C   UNK N   1      31.502  17.508   4.415  0.00  0.00     0.137 C 
HETATM   16  N   UNK N   1      32.043  16.738   5.553  0.00  0.00    -0.208 NA
HETATM   17  C   UNK N   1      31.213  15.606   6.000  0.00  0.00     0.137 C 
HETATM   18  C   UNK N   1      30.345  14.926   4.928  0.00  0.00     0.288 C 
BRANCH  16  19
HETATM   19  S   UNK N   1      33.759  16.254   5.406  0.00  0.00     0.207 S 
HETATM   20  C   UNK N   1      34.996  15.749   6.635  0.00  0.00     0.180 C 
HETATM   21  O   UNK N   1      33.283  15.557   6.696  0.00  0.00    -0.212 OA
HETATM   22  O   UNK N   1      34.120  17.602   6.053  0.00  0.00    -0.212 OA
ENDBRANCH  16  19
ENDBRANCH  12  13
ENDBRANCH   2  12
BRANCH   6  23
HETATM   23  N   UNK N   1      23.211  14.283   3.468  0.00  0.00    -0.362 N 
HETATM   24  C   UNK N   1      21.859  14.766   3.247  0.00  0.00     0.150 C 
HETATM   25  C   UNK N   1      21.734  15.266   1.812  0.00  0.00     0.187 C 
HETATM   26  O   UNK N   1      22.095  14.227   0.936  0.00  0.00    -0.388 OA
HETATM   27  C   UNK N   1      23.488  14.064   1.070  0.00  0.00     0.187 C 
HETATM   28  C   UNK N   1      23.804  13.455   2.438  0.00  0.00     0.150 C 
ENDBRANCH   6  23
BRANCH   5  29
HETATM   29  C   UNK N   1      22.970  13.692   8.306  0.00  0.00     0.022 A 
HETATM   30  C   UNK N   1      21.559  13.747   8.326  0.00  0.00     0.016 A 
HETATM   31  C   UNK N   1      20.838  13.308   9.461  0.00  0.00     0.003 A 
HETATM   32  C   UNK N   1      21.515  12.812  10.590  0.00  0.00     0.032 A 
HETATM   33  C   UNK N   1      22.903  12.770  10.540  0.00  0.00     0.060 A 
HETATM   34  C   UNK N   1      23.608  13.188   9.452  0.00  0.00     0.023 A 
HETATM   35  N   UNK N   1      23.746  12.344  11.491  0.00  0.00    -0.300 N 
HETATM   36  C   UNK N   1      24.936  12.999   9.773  0.00  0.00     0.121 A 
HETATM   37  N   UNK N   1      24.984  12.482  11.026  0.00  0.00    -0.311 N 
ATOM     38  HN  UNK N   1      25.835  12.237  11.531  1.00  0.00     0.186 HD
HETATM   39  H   UNK N   1      23.493  11.991  12.374  0.00  0.00     0.187 HD
ENDBRANCH   5  29
TORSDOF 5
ENDMDL
