MODEL 1
REMARK VINA RESULT:      -7.1      0.000      0.000
REMARK  4 active torsions:
REMARK  status: ('A' for Active; 'I' for Inactive)
REMARK    1  A    between atoms: C_2  and  N_4 
REMARK    2  A    between atoms: C_7  and  C_10 
REMARK    3  A    between atoms: C_18  and  N_20 
REMARK    4  A    between atoms: C_21  and  N_27 
ROOT
HETATM    1  N   UNK N   1      29.565  17.084   4.497  0.00  0.00    -0.271 N 
HETATM    2  C   UNK N   1      29.459  17.530   5.758  0.00  0.00     0.140 A 
HETATM    3  C   UNK N   1      28.400  18.383   5.870  0.00  0.00     0.082 A 
HETATM    4  C   UNK N   1      27.849  18.429   4.578  0.00  0.00     0.076 A 
HETATM    5  N   UNK N   1      28.587  17.618   3.773  0.00  0.00    -0.295 N 
ATOM      6  HN  UNK N   1      28.418  17.448   2.781  1.00  0.00     0.187 HD
HETATM    7  C   UNK N   1      28.122  18.935   7.135  0.00  0.00     0.116 A 
HETATM    8  N   UNK N   1      28.924  18.588   8.182  0.00  0.00    -0.338 N 
ATOM      9  HN  UNK N   1      28.735  18.979   9.105  1.00  0.00     0.168 HD
HETATM   10  C   UNK N   1      29.976  17.729   8.024  0.00  0.00     0.183 A 
HETATM   11  N   UNK N   1      30.249  17.191   6.803  0.00  0.00    -0.337 N 
ATOM     12  HN  UNK N   1      31.031  16.549   6.677  1.00  0.00     0.168 HD
ENDROOT
BRANCH   4  13
HETATM   13  C   UNK N   1      26.642  19.148   4.100  0.00  0.00    -0.005 A 
HETATM   14  C   UNK N   1      26.775  20.319   3.303  0.00  0.00     0.017 A 
HETATM   15  C   UNK N   1      25.636  20.952   2.753  0.00  0.00     0.040 A 
HETATM   16  C   UNK N   1      24.395  20.386   3.033  0.00  0.00     0.106 A 
HETATM   17  C   UNK N   1      24.267  19.286   3.819  0.00  0.00     0.070 A 
HETATM   18  O   UNK N   1      23.202  20.747   2.633  0.00  0.00    -0.277 OA
HETATM   19  C   UNK N   1      25.359  18.642   4.365  0.00  0.00     0.046 A 
HETATM   20  N   UNK N   1      22.973  18.947   3.922  0.00  0.00    -0.320 N 
HETATM   21  C   UNK N   1      22.354  19.883   3.166  0.00  0.00     0.223 A 
ATOM     22  HN  UNK N   1      22.558  18.173   4.442  1.00  0.00     0.169 HD
BRANCH  21  23
HETATM   23  N   UNK N   1      20.962  19.913   2.954  0.00  0.00    -0.365 N 
HETATM   24  H   UNK N   1      20.346  19.727   3.700  0.00  0.00     0.159 HD
HETATM   25  H   UNK N   1      20.605  20.119   2.060  0.00  0.00     0.159 HD
ENDBRANCH  21  23
ENDBRANCH   4  13
BRANCH   7  26
HETATM   26  N   UNK N   1      27.043  19.806   7.364  0.00  0.00    -0.385 N 
HETATM   27  H   UNK N   1      26.118  19.481   7.268  0.00  0.00     0.157 HD
HETATM   28  H   UNK N   1      27.212  20.741   7.619  0.00  0.00     0.157 HD
ENDBRANCH   7  26
BRANCH   1  29
HETATM   29  C   UNK N   1      30.570  16.135   4.003  0.00  0.00     0.102 C 
HETATM   30  C   UNK N   1      31.731  16.872   3.357  0.00  0.00     0.034 C 
HETATM   31  C   UNK N   1      29.984  15.158   3.000  0.00  0.00     0.034 C 
ENDBRANCH   1  29
TORSDOF 4
ENDMDL
MODEL 2
REMARK VINA RESULT:      -7.0      4.660      8.540
REMARK  4 active torsions:
REMARK  status: ('A' for Active; 'I' for Inactive)
REMARK    1  A    between atoms: C_2  and  N_4 
REMARK    2  A    between atoms: C_7  and  C_10 
REMARK    3  A    between atoms: C_18  and  N_20 
REMARK    4  A    between atoms: C_21  and  N_27 
ROOT
HETATM    1  N   UNK N   1      29.941  16.255   5.246  0.00  0.00    -0.271 N 
HETATM    2  C   UNK N   1      29.222  17.037   6.065  0.00  0.00     0.140 A 
HETATM    3  C   UNK N   1      29.976  17.420   7.135  0.00  0.00     0.082 A 
HETATM    4  C   UNK N   1      31.227  16.820   6.915  0.00  0.00     0.076 A 
HETATM    5  N   UNK N   1      31.164  16.123   5.749  0.00  0.00    -0.295 N 
ATOM      6  HN  UNK N   1      31.926  15.589   5.331  1.00  0.00     0.187 HD
HETATM    7  C   UNK N   1      29.387  18.268   8.093  0.00  0.00     0.116 A 
HETATM    8  N   UNK N   1      28.095  18.661   7.902  0.00  0.00    -0.338 N 
ATOM      9  HN  UNK N   1      27.655  19.275   8.587  1.00  0.00     0.168 HD
HETATM   10  C   UNK N   1      27.376  18.251   6.814  0.00  0.00     0.183 A 
HETATM   11  N   UNK N   1      27.941  17.432   5.883  0.00  0.00    -0.337 N 
ATOM     12  HN  UNK N   1      27.410  17.123   5.069  1.00  0.00     0.168 HD
ENDROOT
BRANCH   4  13
HETATM   13  C   UNK N   1      32.470  16.928   7.718  0.00  0.00    -0.005 A 
HETATM   14  C   UNK N   1      33.372  18.008   7.500  0.00  0.00     0.017 A 
HETATM   15  C   UNK N   1      34.505  18.182   8.328  0.00  0.00     0.040 A 
HETATM   16  C   UNK N   1      34.698  17.253   9.348  0.00  0.00     0.106 A 
HETATM   17  C   UNK N   1      33.854  16.206   9.536  0.00  0.00     0.070 A 
HETATM   18  O   UNK N   1      35.633  17.197  10.261  0.00  0.00    -0.277 OA
HETATM   19  C   UNK N   1      32.736  16.012   8.749  0.00  0.00     0.046 A 
HETATM   20  N   UNK N   1      34.263  15.472  10.582  0.00  0.00    -0.320 N 
HETATM   21  C   UNK N   1      35.370  16.131  10.999  0.00  0.00     0.223 A 
ATOM     22  HN  UNK N   1      33.842  14.627  10.968  1.00  0.00     0.169 HD
BRANCH  21  23
HETATM   23  N   UNK N   1      36.136  15.733  12.111  0.00  0.00    -0.365 N 
HETATM   24  H   UNK N   1      36.099  16.253  12.946  0.00  0.00     0.159 HD
HETATM   25  H   UNK N   1      36.708  14.934  12.054  0.00  0.00     0.159 HD
ENDBRANCH  21  23
ENDBRANCH   4  13
BRANCH   7  26
HETATM   26  N   UNK N   1      30.082  18.739   9.221  0.00  0.00    -0.385 N 
HETATM   27  H   UNK N   1      29.944  19.663   9.535  0.00  0.00     0.157 HD
HETATM   28  H   UNK N   1      30.706  18.147   9.696  0.00  0.00     0.157 HD
ENDBRANCH   7  26
BRANCH   1  29
HETATM   29  C   UNK N   1      29.471  15.670   3.985  0.00  0.00     0.102 C 
HETATM   30  C   UNK N   1      29.822  14.194   3.915  0.00  0.00     0.034 C 
HETATM   31  C   UNK N   1      30.060  16.377   2.777  0.00  0.00     0.034 C 
ENDBRANCH   1  29
TORSDOF 4
ENDMDL
MODEL 3
REMARK VINA RESULT:      -7.0      4.738      9.048
REMARK  4 active torsions:
REMARK  status: ('A' for Active; 'I' for Inactive)
REMARK    1  A    between atoms: C_2  and  N_4 
REMARK    2  A    between atoms: C_7  and  C_10 
REMARK    3  A    between atoms: C_18  and  N_20 
REMARK    4  A    between atoms: C_21  and  N_27 
ROOT
HETATM    1  N   UNK N   1      29.184  17.573   6.380  0.00  0.00    -0.271 N 
HETATM    2  C   UNK N   1      29.372  16.322   5.934  0.00  0.00     0.140 A 
HETATM    3  C   UNK N   1      30.582  15.849   6.348  0.00  0.00     0.082 A 
HETATM    4  C   UNK N   1      31.133  16.904   7.096  0.00  0.00     0.076 A 
HETATM    5  N   UNK N   1      30.245  17.934   7.095  0.00  0.00    -0.295 N 
ATOM      6  HN  UNK N   1      30.371  18.832   7.562  1.00  0.00     0.187 HD
HETATM    7  C   UNK N   1      30.941  14.535   5.990  0.00  0.00     0.116 A 
HETATM    8  N   UNK N   1      30.061  13.805   5.246  0.00  0.00    -0.338 N 
ATOM      9  HN  UNK N   1      30.306  12.852   4.979  1.00  0.00     0.168 HD
HETATM   10  C   UNK N   1      28.857  14.320   4.852  0.00  0.00     0.183 A 
HETATM   11  N   UNK N   1      28.504  15.589   5.198  0.00  0.00    -0.337 N 
ATOM     12  HN  UNK N   1      27.608  15.980   4.907  1.00  0.00     0.168 HD
ENDROOT
BRANCH   4  13
HETATM   13  C   UNK N   1      32.413  16.951   7.845  0.00  0.00    -0.005 A 
HETATM   14  C   UNK N   1      33.387  17.941   7.537  0.00  0.00     0.017 A 
HETATM   15  C   UNK N   1      34.563  18.064   8.313  0.00  0.00     0.040 A 
HETATM   16  C   UNK N   1      34.723  17.176   9.373  0.00  0.00     0.106 A 
HETATM   17  C   UNK N   1      33.807  16.212   9.648  0.00  0.00     0.070 A 
HETATM   18  O   UNK N   1      35.687  17.091  10.254  0.00  0.00    -0.277 OA
HETATM   19  C   UNK N   1      32.647  16.070   8.914  0.00  0.00     0.046 A 
HETATM   20  N   UNK N   1      34.199  15.502  10.717  0.00  0.00    -0.320 N 
HETATM   21  C   UNK N   1      35.371  16.089  11.057  0.00  0.00     0.223 A 
ATOM     22  HN  UNK N   1      33.729  14.714  11.164  1.00  0.00     0.169 HD
BRANCH  21  23
HETATM   23  N   UNK N   1      36.147  15.687  12.161  0.00  0.00    -0.365 N 
HETATM   24  H   UNK N   1      36.537  14.783  12.186  0.00  0.00     0.159 HD
HETATM   25  H   UNK N   1      36.301  16.311  12.907  0.00  0.00     0.159 HD
ENDBRANCH  21  23
ENDBRANCH   4  13
BRANCH   7  26
HETATM   26  N   UNK N   1      32.154  13.944   6.383  0.00  0.00    -0.385 N 
HETATM   27  H   UNK N   1      32.428  13.964   7.329  0.00  0.00     0.157 HD
HETATM   28  H   UNK N   1      32.729  13.511   5.714  0.00  0.00     0.157 HD
ENDBRANCH   7  26
BRANCH   1  29
HETATM   29  C   UNK N   1      27.991  18.397   6.151  0.00  0.00     0.102 C 
HETATM   30  C   UNK N   1      28.064  19.082   4.798  0.00  0.00     0.034 C 
HETATM   31  C   UNK N   1      27.812  19.450   7.231  0.00  0.00     0.034 C 
ENDBRANCH   1  29
TORSDOF 4
ENDMDL
MODEL 4
REMARK VINA RESULT:      -6.9      3.767      7.760
REMARK  4 active torsions:
REMARK  status: ('A' for Active; 'I' for Inactive)
REMARK    1  A    between atoms: C_2  and  N_4 
REMARK    2  A    between atoms: C_7  and  C_10 
REMARK    3  A    between atoms: C_18  and  N_20 
REMARK    4  A    between atoms: C_21  and  N_27 
ROOT
HETATM    1  N   UNK N   1      27.651  17.910   3.818  0.00  0.00    -0.271 N 
HETATM    2  C   UNK N   1      27.806  16.672   3.326  0.00  0.00     0.140 A 
HETATM    3  C   UNK N   1      29.053  16.200   3.616  0.00  0.00     0.082 A 
HETATM    4  C   UNK N   1      29.663  17.241   4.335  0.00  0.00     0.076 A 
HETATM    5  N   UNK N   1      28.771  18.263   4.441  0.00  0.00    -0.295 N 
ATOM      6  HN  UNK N   1      28.934  19.151   4.917  1.00  0.00     0.187 HD
HETATM    7  C   UNK N   1      29.386  14.898   3.193  0.00  0.00     0.116 A 
HETATM    8  N   UNK N   1      28.446  14.178   2.517  0.00  0.00    -0.338 N 
ATOM      9  HN  UNK N   1      28.673  13.234   2.204  1.00  0.00     0.168 HD
HETATM   10  C   UNK N   1      27.208  14.691   2.247  0.00  0.00     0.183 A 
HETATM   11  N   UNK N   1      26.880  15.949   2.655  0.00  0.00    -0.337 N 
ATOM     12  HN  UNK N   1      25.957  16.338   2.458  1.00  0.00     0.168 HD
ENDROOT
BRANCH   4  13
HETATM   13  C   UNK N   1      31.006  17.282   4.964  0.00  0.00    -0.005 A 
HETATM   14  C   UNK N   1      32.166  17.489   4.165  0.00  0.00     0.017 A 
HETATM   15  C   UNK N   1      33.438  17.636   4.763  0.00  0.00     0.040 A 
HETATM   16  C   UNK N   1      33.503  17.562   6.152  0.00  0.00     0.106 A 
HETATM   17  C   UNK N   1      32.401  17.335   6.912  0.00  0.00     0.070 A 
HETATM   18  O   UNK N   1      34.533  17.692   6.949  0.00  0.00    -0.277 OA
HETATM   19  C   UNK N   1      31.144  17.193   6.359  0.00  0.00     0.046 A 
HETATM   20  N   UNK N   1      32.738  17.316   8.211  0.00  0.00    -0.320 N 
HETATM   21  C   UNK N   1      34.071  17.545   8.180  0.00  0.00     0.223 A 
ATOM     22  HN  UNK N   1      32.136  17.167   9.021  1.00  0.00     0.169 HD
BRANCH  21  23
HETATM   23  N   UNK N   1      34.868  17.641   9.337  0.00  0.00    -0.365 N 
HETATM   24  H   UNK N   1      35.110  16.828   9.837  0.00  0.00     0.159 HD
HETATM   25  H   UNK N   1      35.183  18.521   9.646  0.00  0.00     0.159 HD
ENDBRANCH  21  23
ENDBRANCH   4  13
BRANCH   7  26
HETATM   26  N   UNK N   1      30.634  14.309   3.459  0.00  0.00    -0.385 N 
HETATM   27  H   UNK N   1      31.382  14.433   2.829  0.00  0.00     0.157 HD
HETATM   28  H   UNK N   1      30.762  13.773   4.274  0.00  0.00     0.157 HD
ENDBRANCH   7  26
BRANCH   1  29
HETATM   29  C   UNK N   1      26.437  18.728   3.721  0.00  0.00     0.102 C 
HETATM   30  C   UNK N   1      26.787  20.205   3.679  0.00  0.00     0.034 C 
HETATM   31  C   UNK N   1      25.488  18.476   4.879  0.00  0.00     0.034 C 
ENDBRANCH   1  29
TORSDOF 4
ENDMDL
MODEL 5
REMARK VINA RESULT:      -6.9      3.477      6.984
REMARK  4 active torsions:
REMARK  status: ('A' for Active; 'I' for Inactive)
REMARK    1  A    between atoms: C_2  and  N_4 
REMARK    2  A    between atoms: C_7  and  C_10 
REMARK    3  A    between atoms: C_18  and  N_20 
REMARK    4  A    between atoms: C_21  and  N_27 
ROOT
HETATM    1  N   UNK N   1      27.908  19.016   5.507  0.00  0.00    -0.271 N 
HETATM    2  C   UNK N   1      28.310  18.516   6.685  0.00  0.00     0.140 A 
HETATM    3  C   UNK N   1      29.375  17.682   6.506  0.00  0.00     0.082 A 
HETATM    4  C   UNK N   1      29.610  17.706   5.121  0.00  0.00     0.076 A 
HETATM    5  N   UNK N   1      28.696  18.537   4.550  0.00  0.00    -0.295 N 
ATOM      6  HN  UNK N   1      28.627  18.756   3.556  1.00  0.00     0.187 HD
HETATM    7  C   UNK N   1      29.946  17.080   7.644  0.00  0.00     0.116 A 
HETATM    8  N   UNK N   1      29.406  17.361   8.864  0.00  0.00    -0.338 N 
ATOM      9  HN  UNK N   1      29.810  16.933   9.697  1.00  0.00     0.168 HD
HETATM   10  C   UNK N   1      28.338  18.204   8.997  0.00  0.00     0.183 A 
HETATM   11  N   UNK N   1      27.782  18.790   7.901  0.00  0.00    -0.337 N 
ATOM     12  HN  UNK N   1      26.985  19.420   7.992  1.00  0.00     0.168 HD
ENDROOT
BRANCH   4  13
HETATM   13  C   UNK N   1      30.680  17.036   4.342  0.00  0.00    -0.005 A 
HETATM   14  C   UNK N   1      31.908  17.709   4.087  0.00  0.00     0.017 A 
HETATM   15  C   UNK N   1      32.975  17.044   3.439  0.00  0.00     0.040 A 
HETATM   16  C   UNK N   1      32.764  15.720   3.058  0.00  0.00     0.106 A 
HETATM   17  C   UNK N   1      31.582  15.090   3.275  0.00  0.00     0.070 A 
HETATM   18  O   UNK N   1      33.580  14.877   2.479  0.00  0.00    -0.277 OA
HETATM   19  C   UNK N   1      30.524  15.709   3.910  0.00  0.00     0.046 A 
HETATM   20  N   UNK N   1      31.647  13.829   2.821  0.00  0.00    -0.320 N 
HETATM   21  C   UNK N   1      32.909  13.746   2.339  0.00  0.00     0.223 A 
ATOM     22  HN  UNK N   1      30.924  13.109   2.837  1.00  0.00     0.169 HD
BRANCH  21  23
HETATM   23  N   UNK N   1      33.449  12.574   1.775  0.00  0.00    -0.365 N 
HETATM   24  H   UNK N   1      34.096  12.636   1.035  0.00  0.00     0.159 HD
HETATM   25  H   UNK N   1      33.179  11.693   2.121  0.00  0.00     0.159 HD
ENDBRANCH  21  23
ENDBRANCH   4  13
BRANCH   7  26
HETATM   26  N   UNK N   1      31.058  16.222   7.572  0.00  0.00    -0.385 N 
HETATM   27  H   UNK N   1      31.054  15.368   8.062  0.00  0.00     0.157 HD
HETATM   28  H   UNK N   1      31.840  16.476   7.033  0.00  0.00     0.157 HD
ENDBRANCH   7  26
BRANCH   1  29
HETATM   29  C   UNK N   1      26.806  19.964   5.308  0.00  0.00     0.102 C 
HETATM   30  C   UNK N   1      26.427  20.044   3.839  0.00  0.00     0.034 C 
HETATM   31  C   UNK N   1      27.156  21.356   5.805  0.00  0.00     0.034 C 
ENDBRANCH   1  29
TORSDOF 4
ENDMDL
MODEL 6
REMARK VINA RESULT:      -6.7      1.821      3.354
REMARK  4 active torsions:
REMARK  status: ('A' for Active; 'I' for Inactive)
REMARK    1  A    between atoms: C_2  and  N_4 
REMARK    2  A    between atoms: C_7  and  C_10 
REMARK    3  A    between atoms: C_18  and  N_20 
REMARK    4  A    between atoms: C_21  and  N_27 
ROOT
HETATM    1  N   UNK N   1      28.020  17.223   6.717  0.00  0.00    -0.271 N 
HETATM    2  C   UNK N   1      28.045  16.299   5.745  0.00  0.00     0.140 A 
HETATM    3  C   UNK N   1      27.217  16.665   4.723  0.00  0.00     0.082 A 
HETATM    4  C   UNK N   1      26.679  17.896   5.133  0.00  0.00     0.076 A 
HETATM    5  N   UNK N   1      27.199  18.203   6.352  0.00  0.00    -0.295 N 
ATOM      6  HN  UNK N   1      26.994  19.042   6.894  1.00  0.00     0.187 HD
HETATM    7  C   UNK N   1      27.134  15.819   3.600  0.00  0.00     0.116 A 
HETATM    8  N   UNK N   1      27.883  14.679   3.593  0.00  0.00    -0.338 N 
ATOM      9  HN  UNK N   1      27.834  14.057   2.786  1.00  0.00     0.168 HD
HETATM   10  C   UNK N   1      28.699  14.351   4.640  0.00  0.00     0.183 A 
HETATM   11  N   UNK N   1      28.785  15.166   5.728  0.00  0.00    -0.337 N 
ATOM     12  HN  UNK N   1      29.392  14.929   6.512  1.00  0.00     0.168 HD
ENDROOT
BRANCH   4  13
HETATM   13  C   UNK N   1      25.758  18.803   4.404  0.00  0.00    -0.005 A 
HETATM   14  C   UNK N   1      26.278  19.825   3.560  0.00  0.00     0.017 A 
HETATM   15  C   UNK N   1      25.413  20.625   2.779  0.00  0.00     0.040 A 
HETATM   16  C   UNK N   1      24.047  20.376   2.880  0.00  0.00     0.106 A 
HETATM   17  C   UNK N   1      23.550  19.421   3.708  0.00  0.00     0.070 A 
HETATM   18  O   UNK N   1      23.045  20.940   2.255  0.00  0.00    -0.277 OA
HETATM   19  C   UNK N   1      24.368  18.618   4.479  0.00  0.00     0.046 A 
HETATM   20  N   UNK N   1      22.213  19.383   3.610  0.00  0.00    -0.320 N 
HETATM   21  C   UNK N   1      21.949  20.343   2.693  0.00  0.00     0.223 A 
ATOM     22  HN  UNK N   1      21.556  18.778   4.104  1.00  0.00     0.169 HD
BRANCH  21  23
HETATM   23  N   UNK N   1      20.651  20.650   2.243  0.00  0.00    -0.365 N 
HETATM   24  H   UNK N   1      20.467  21.525   1.830  0.00  0.00     0.159 HD
HETATM   25  H   UNK N   1      19.927  19.989   2.341  0.00  0.00     0.159 HD
ENDBRANCH  21  23
ENDBRANCH   4  13
BRANCH   7  26
HETATM   26  N   UNK N   1      26.330  16.113   2.486  0.00  0.00    -0.385 N 
HETATM   27  H   UNK N   1      26.726  16.132   1.584  0.00  0.00     0.157 HD
HETATM   28  H   UNK N   1      25.372  16.299   2.606  0.00  0.00     0.157 HD
ENDBRANCH   7  26
BRANCH   1  29
HETATM   29  C   UNK N   1      28.797  17.183   7.961  0.00  0.00     0.102 C 
HETATM   30  C   UNK N   1      28.167  18.077   9.015  0.00  0.00     0.034 C 
HETATM   31  C   UNK N   1      30.238  17.609   7.745  0.00  0.00     0.034 C 
ENDBRANCH   1  29
TORSDOF 4
ENDMDL
MODEL 7
REMARK VINA RESULT:      -6.7      2.693      4.253
REMARK  4 active torsions:
REMARK  status: ('A' for Active; 'I' for Inactive)
REMARK    1  A    between atoms: C_2  and  N_4 
REMARK    2  A    between atoms: C_7  and  C_10 
REMARK    3  A    between atoms: C_18  and  N_20 
REMARK    4  A    between atoms: C_21  and  N_27 
ROOT
HETATM    1  N   UNK N   1      30.701  16.473   4.181  0.00  0.00    -0.271 N 
HETATM    2  C   UNK N   1      29.648  15.931   3.552  0.00  0.00     0.140 A 
HETATM    3  C   UNK N   1      28.533  16.690   3.756  0.00  0.00     0.082 A 
HETATM    4  C   UNK N   1      28.977  17.754   4.559  0.00  0.00     0.076 A 
HETATM    5  N   UNK N   1      30.307  17.587   4.790  0.00  0.00    -0.295 N 
ATOM      6  HN  UNK N   1      30.901  18.209   5.337  1.00  0.00     0.187 HD
HETATM    7  C   UNK N   1      27.330  16.281   3.148  0.00  0.00     0.116 A 
HETATM    8  N   UNK N   1      27.342  15.149   2.388  0.00  0.00    -0.338 N 
ATOM      9  HN  UNK N   1      26.479  14.841   1.941  1.00  0.00     0.168 HD
HETATM   10  C   UNK N   1      28.484  14.418   2.210  0.00  0.00     0.183 A 
HETATM   11  N   UNK N   1      29.650  14.809   2.795  0.00  0.00    -0.337 N 
ATOM     12  HN  UNK N   1      30.506  14.269   2.666  1.00  0.00     0.168 HD
ENDROOT
BRANCH   4  13
HETATM   13  C   UNK N   1      28.220  18.931   5.054  0.00  0.00    -0.005 A 
HETATM   14  C   UNK N   1      27.708  19.891   4.137  0.00  0.00     0.017 A 
HETATM   15  C   UNK N   1      26.896  20.958   4.586  0.00  0.00     0.040 A 
HETATM   16  C   UNK N   1      26.633  21.028   5.952  0.00  0.00     0.106 A 
HETATM   17  C   UNK N   1      27.147  20.129   6.830  0.00  0.00     0.070 A 
HETATM   18  O   UNK N   1      25.898  21.881   6.619  0.00  0.00    -0.277 OA
HETATM   19  C   UNK N   1      27.937  19.073   6.423  0.00  0.00     0.046 A 
HETATM   20  N   UNK N   1      26.736  20.419   8.074  0.00  0.00    -0.320 N 
HETATM   21  C   UNK N   1      25.962  21.514   7.888  0.00  0.00     0.223 A 
ATOM     22  HN  UNK N   1      26.953  19.933   8.945  1.00  0.00     0.169 HD
BRANCH  21  23
HETATM   23  N   UNK N   1      25.282  22.168   8.933  0.00  0.00    -0.365 N 
HETATM   24  H   UNK N   1      25.562  23.069   9.216  0.00  0.00     0.159 HD
HETATM   25  H   UNK N   1      24.525  21.725   9.381  0.00  0.00     0.159 HD
ENDBRANCH  21  23
ENDBRANCH   4  13
BRANCH   7  26
HETATM   26  N   UNK N   1      26.131  17.003   3.277  0.00  0.00    -0.385 N 
HETATM   27  H   UNK N   1      25.547  16.854   4.056  0.00  0.00     0.157 HD
HETATM   28  H   UNK N   1      25.874  17.657   2.588  0.00  0.00     0.157 HD
ENDBRANCH   7  26
BRANCH   1  29
HETATM   29  C   UNK N   1      32.072  15.948   4.171  0.00  0.00     0.102 C 
HETATM   30  C   UNK N   1      32.749  16.191   5.509  0.00  0.00     0.034 C 
HETATM   31  C   UNK N   1      32.911  16.572   3.070  0.00  0.00     0.034 C 
ENDBRANCH   1  29
TORSDOF 4
ENDMDL
MODEL 8
REMARK VINA RESULT:      -6.6      4.683      7.929
REMARK  4 active torsions:
REMARK  status: ('A' for Active; 'I' for Inactive)
REMARK    1  A    between atoms: C_2  and  N_4 
REMARK    2  A    between atoms: C_7  and  C_10 
REMARK    3  A    between atoms: C_18  and  N_20 
REMARK    4  A    between atoms: C_21  and  N_27 
ROOT
HETATM    1  N   UNK N   1      23.490  19.430   3.948  0.00  0.00    -0.271 N 
HETATM    2  C   UNK N   1      22.351  19.550   3.250  0.00  0.00     0.140 A 
HETATM    3  C   UNK N   1      21.476  18.564   3.598  0.00  0.00     0.082 A 
HETATM    4  C   UNK N   1      22.157  17.821   4.577  0.00  0.00     0.076 A 
HETATM    5  N   UNK N   1      23.381  18.386   4.764  0.00  0.00    -0.295 N 
ATOM      6  HN  UNK N   1      24.093  18.064   5.419  1.00  0.00     0.187 HD
HETATM    7  C   UNK N   1      20.212  18.547   2.978  0.00  0.00     0.116 A 
HETATM    8  N   UNK N   1      19.929  19.517   2.062  0.00  0.00    -0.338 N 
ATOM      9  HN  UNK N   1      19.017  19.518   1.604  1.00  0.00     0.168 HD
HETATM   10  C   UNK N   1      20.837  20.487   1.742  0.00  0.00     0.183 A 
HETATM   11  N   UNK N   1      22.061  20.509   2.339  0.00  0.00    -0.337 N 
ATOM     12  HN  UNK N   1      22.744  21.230   2.106  1.00  0.00     0.168 HD
ENDROOT
BRANCH   4  13
HETATM   13  C   UNK N   1      21.684  16.658   5.368  0.00  0.00    -0.005 A 
HETATM   14  C   UNK N   1      21.568  15.377   4.758  0.00  0.00     0.017 A 
HETATM   15  C   UNK N   1      21.221  14.241   5.526  0.00  0.00     0.040 A 
HETATM   16  C   UNK N   1      20.991  14.435   6.885  0.00  0.00     0.106 A 
HETATM   17  C   UNK N   1      21.073  15.663   7.460  0.00  0.00     0.070 A 
HETATM   18  O   UNK N   1      20.690  13.565   7.815  0.00  0.00    -0.277 OA
HETATM   19  C   UNK N   1      21.415  16.790   6.740  0.00  0.00     0.046 A 
HETATM   20  N   UNK N   1      20.814  15.570   8.773  0.00  0.00    -0.320 N 
HETATM   21  C   UNK N   1      20.585  14.247   8.943  0.00  0.00     0.223 A 
ATOM     22  HN  UNK N   1      20.795  16.314   9.471  1.00  0.00     0.169 HD
BRANCH  21  23
HETATM   23  N   UNK N   1      20.293  13.665  10.192  0.00  0.00    -0.365 N 
HETATM   24  H   UNK N   1      19.398  13.775  10.589  0.00  0.00     0.159 HD
HETATM   25  H   UNK N   1      20.983  13.148  10.667  0.00  0.00     0.159 HD
ENDBRANCH  21  23
ENDBRANCH   4  13
BRANCH   7  26
HETATM   26  N   UNK N   1      19.229  17.589   3.281  0.00  0.00    -0.385 N 
HETATM   27  H   UNK N   1      18.977  16.912   2.611  0.00  0.00     0.157 HD
HETATM   28  H   UNK N   1      18.793  17.594   4.163  0.00  0.00     0.157 HD
ENDBRANCH   7  26
BRANCH   1  29
HETATM   29  C   UNK N   1      24.653  20.321   3.857  0.00  0.00     0.102 C 
HETATM   30  C   UNK N   1      25.326  20.187   2.502  0.00  0.00     0.034 C 
HETATM   31  C   UNK N   1      25.672  20.038   4.947  0.00  0.00     0.034 C 
ENDBRANCH   1  29
TORSDOF 4
ENDMDL
MODEL 9
REMARK VINA RESULT:      -6.4     10.131     13.338
REMARK  4 active torsions:
REMARK  status: ('A' for Active; 'I' for Inactive)
REMARK    1  A    between atoms: C_2  and  N_4 
REMARK    2  A    between atoms: C_7  and  C_10 
REMARK    3  A    between atoms: C_18  and  N_20 
REMARK    4  A    between atoms: C_21  and  N_27 
ROOT
HETATM    1  N   UNK N   1      27.011  26.740  -5.463  0.00  0.00    -0.271 N 
HETATM    2  C   UNK N   1      26.754  25.768  -6.352  0.00  0.00     0.140 A 
HETATM    3  C   UNK N   1      27.482  24.653  -6.057  0.00  0.00     0.082 A 
HETATM    4  C   UNK N   1      28.210  25.003  -4.908  0.00  0.00     0.076 A 
HETATM    5  N   UNK N   1      27.888  26.283  -4.576  0.00  0.00    -0.295 N 
ATOM      6  HN  UNK N   1      28.258  26.804  -3.780  1.00  0.00     0.187 HD
HETATM    7  C   UNK N   1      27.321  23.519  -6.876  0.00  0.00     0.116 A 
HETATM    8  N   UNK N   1      26.448  23.594  -7.921  0.00  0.00    -0.338 N 
ATOM      9  HN  UNK N   1      26.321  22.781  -8.524  1.00  0.00     0.168 HD
HETATM   10  C   UNK N   1      25.739  24.734  -8.181  0.00  0.00     0.183 A 
HETATM   11  N   UNK N   1      25.889  25.833  -7.391  0.00  0.00    -0.337 N 
ATOM     12  HN  UNK N   1      25.363  26.687  -7.578  1.00  0.00     0.168 HD
ENDROOT
BRANCH   4  13
HETATM   13  C   UNK N   1      29.131  24.172  -4.094  0.00  0.00    -0.005 A 
HETATM   14  C   UNK N   1      28.750  23.748  -2.790  0.00  0.00     0.017 A 
HETATM   15  C   UNK N   1      29.572  22.869  -2.048  0.00  0.00     0.040 A 
HETATM   16  C   UNK N   1      30.761  22.452  -2.642  0.00  0.00     0.106 A 
HETATM   17  C   UNK N   1      31.137  22.881  -3.874  0.00  0.00     0.070 A 
HETATM   18  O   UNK N   1      31.675  21.630  -2.195  0.00  0.00    -0.277 OA
HETATM   19  C   UNK N   1      30.355  23.734  -4.626  0.00  0.00     0.046 A 
HETATM   20  N   UNK N   1      32.312  22.327  -4.211  0.00  0.00    -0.320 N 
HETATM   21  C   UNK N   1      32.602  21.557  -3.136  0.00  0.00     0.223 A 
ATOM     22  HN  UNK N   1      32.852  22.454  -5.067  1.00  0.00     0.169 HD
BRANCH  21  23
HETATM   23  N   UNK N   1      33.753  20.750  -3.048  0.00  0.00    -0.365 N 
HETATM   24  H   UNK N   1      33.798  19.901  -3.545  0.00  0.00     0.159 HD
HETATM   25  H   UNK N   1      34.512  21.035  -2.490  0.00  0.00     0.159 HD
ENDBRANCH  21  23
ENDBRANCH   4  13
BRANCH   7  26
HETATM   26  N   UNK N   1      28.006  22.313  -6.648  0.00  0.00    -0.385 N 
HETATM   27  H   UNK N   1      27.518  21.523  -6.318  0.00  0.00     0.157 HD
HETATM   28  H   UNK N   1      28.974  22.257  -6.817  0.00  0.00     0.157 HD
ENDBRANCH   7  26
BRANCH   1  29
HETATM   29  C   UNK N   1      26.399  28.073  -5.447  0.00  0.00     0.102 C 
HETATM   30  C   UNK N   1      27.455  29.149  -5.634  0.00  0.00     0.034 C 
HETATM   31  C   UNK N   1      25.646  28.337  -4.155  0.00  0.00     0.034 C 
ENDBRANCH   1  29
TORSDOF 4
ENDMDL
