REMARK  5 active torsions:
REMARK  status: ('A' for Active; 'I' for Inactive)
REMARK    1  A    between atoms: C_5  and  N_9 
REMARK       I    between atoms: N_9  and  C_10 
REMARK       I    between atoms: C_10  and  N_12 
REMARK    2  A    between atoms: N_12  and  C_13 
REMARK    3  A    between atoms: C_17  and  C_20 
REMARK    4  A    between atoms: C_20  and  N_21 
REMARK       I    between atoms: N_24  and  C_27 
REMARK    5  A    between atoms: C_27  and  O_29 
ROOT
HETATM    1  C   UNK N   1       8.888  -5.167  -0.270  0.00  0.00     0.075 A 
HETATM    2  C   UNK N   1       9.958  -4.537   0.386  0.00  0.00     0.033 A 
HETATM    3  C   UNK N   1      11.075  -5.272   0.788  0.00  0.00     0.003 A 
HETATM    4  C   UNK N   1      11.111  -6.654   0.588  0.00  0.00     0.012 A 
HETATM    5  C   UNK N   1      10.056  -7.296  -0.066  0.00  0.00     0.011 A 
HETATM    6  C   UNK N   1       8.953  -6.534  -0.522  0.00  0.00     0.151 A 
HETATM    7  F   UNK N   1       7.906  -7.122  -1.157  0.00  0.00    -0.203 F 
ENDROOT
BRANCH   1   8
HETATM    8  N   UNK N   1       7.680  -4.482  -0.596  0.00  0.00    -0.306 N 
HETATM    9  C   UNK N   1       7.417  -3.178  -0.338  0.00  0.00     0.325 C 
HETATM   10  N   UNK N   1       6.166  -2.698  -0.576  0.00  0.00    -0.307 N 
HETATM   11  O   UNK N   1       8.289  -2.450   0.113  0.00  0.00    -0.247 OA
HETATM   12  H   UNK N   1       5.508  -3.314  -0.971  0.00  0.00     0.170 HD
HETATM   13  H   UNK N   1       6.976  -5.002  -1.048  0.00  0.00     0.171 HD
BRANCH  10  14
HETATM   14  C   UNK N   1       5.739  -1.368  -0.296  0.00  0.00     0.051 A 
HETATM   15  C   UNK N   1       6.547  -0.463   0.408  0.00  0.00     0.033 A 
HETATM   16  C   UNK N   1       6.119   0.842   0.621  0.00  0.00     0.027 A 
HETATM   17  C   UNK N   1       4.878   1.238   0.127  0.00  0.00     0.005 A 
HETATM   18  C   UNK N   1       4.426   2.640   0.314  0.00  0.00     0.068 C 
HETATM   19  N   UNK N   1       4.090   0.347  -0.536  0.00  0.00    -0.367 N 
HETATM   20  C   UNK N   1       4.491  -0.936  -0.751  0.00  0.00     0.117 A 
ATOM     21  HN  UNK N   1       3.178   0.649  -0.879  1.00  0.00     0.165 HD
ENDBRANCH  10  14
ENDBRANCH   1   8
BRANCH   5  22
HETATM   22  C   UNK N   1      10.058  -8.803  -0.159  0.00  0.00     0.314 C 
BRANCH  22  23
HETATM   23  N   UNK N   1       8.684  -9.293  -0.109  0.00  0.00     0.095 N 
HETATM   24  C   UNK N   1       8.522 -10.709  -0.360  0.00  0.00     0.292 C 
HETATM   25  C   UNK N   1       7.042 -10.939  -0.703  0.00  0.00     0.158 C 
HETATM   26  N   UNK N   1       6.130 -10.250   0.216  0.00  0.00    -0.325 N 
HETATM   27  C   UNK N   1       6.523  -8.973   0.797  0.00  0.00     0.158 C 
HETATM   28  C   UNK N   1       4.859 -10.710   0.463  0.00  0.00     0.362 C 
HETATM   29  C   UNK N   1       8.001  -8.979   1.136  0.00  0.00     0.292 C 
HETATM   30  O   UNK N   1       4.106 -10.031   1.148  0.00  0.00    -0.238 OA
BRANCH  28  31
HETATM   31  O   UNK N   1       4.376 -11.889  -0.024  0.00  0.00    -0.309 OA
HETATM   32  C   UNK N   1       5.096 -12.885  -0.640  0.00  0.00     0.215 C 
ENDBRANCH  28  31
ENDBRANCH  22  23
ENDBRANCH   5  22
TORSDOF 5
