REMARK  6 active torsions:
REMARK  status: ('A' for Active; 'I' for Inactive)
REMARK    1  A    between atoms: C_4  and  N_7 
REMARK    2  A    between atoms: C_10  and  C_22 
REMARK    3  A    between atoms: N_13  and  C_16 
REMARK       I    between atoms: C_22  and  N_24 
REMARK    4  A    between atoms: N_24  and  C_25 
REMARK    5  A    between atoms: C_25  and  C_26 
REMARK    6  A    between atoms: C_26  and  O_28 
ROOT
HETATM    1  N   UNK N   1      -4.897  -2.149   0.313  0.00  0.00    -0.264 N 
HETATM    2  C   UNK N   1      -3.842  -1.320   0.032  0.00  0.00     0.250 A 
HETATM    3  O   UNK N   1      -4.029  -0.118  -0.095  0.00  0.00    -0.271 OA
HETATM    4  C   UNK N   1      -2.447  -1.873  -0.160  0.00  0.00     0.262 A 
HETATM    5  C   UNK N   1      -2.380  -3.381  -0.034  0.00  0.00     0.250 A 
HETATM    6  O   UNK N   1      -1.336  -3.947  -0.301  0.00  0.00    -0.271 OA
HETATM    7  N   UNK N   1      -3.509  -4.117   0.264  0.00  0.00    -0.264 N 
HETATM    8  C   UNK N   1      -4.728  -3.503   0.437  0.00  0.00     0.334 A 
HETATM    9  O   UNK N   1      -5.711  -4.196   0.692  0.00  0.00    -0.246 OA
ENDROOT
BRANCH   4  10
HETATM   10  C   UNK N   1      -1.285  -0.872   0.084  0.00  0.00     0.240 C 
HETATM   11  O   UNK N   1      -1.498   0.304  -0.164  0.00  0.00    -0.272 OA
HETATM   12  N   UNK N   1      -0.036  -1.186   0.528  0.00  0.00    -0.350 N 
HETATM   13  H   UNK N   1       0.590  -0.432   0.626  0.00  0.00     0.163 HD
BRANCH  12  14
HETATM   14  C   UNK N   1       0.482  -2.481   0.871  0.00  0.00     0.232 C 
BRANCH  14  15
HETATM   15  C   UNK N   1       1.621  -2.817  -0.043  0.00  0.00     0.158 C 
HETATM   16  O   UNK N   1       2.607  -2.099  -0.089  0.00  0.00    -0.649 OA
BRANCH  15  17
HETATM   17  O   UNK N   1       1.556  -3.914  -0.820  0.00  0.00    -0.775 OA
HETATM   18  H   UNK N   1       0.872  -4.257  -1.361  0.00  0.00     0.167 HD
ENDBRANCH  15  17
ENDBRANCH  14  15
ENDBRANCH  12  14
ENDBRANCH   4  10
BRANCH   1  19
HETATM   19  C   UNK N   1      -6.256  -1.622   0.448  0.00  0.00     0.097 C 
HETATM   20  C   UNK N   1      -6.431  -0.303   1.220  0.00  0.00     0.026 C 
HETATM   21  C   UNK N   1      -7.191   0.722   0.375  0.00  0.00     0.002 C 
HETATM   22  C   UNK N   1      -8.546   0.177  -0.104  0.00  0.00     0.000 C 
HETATM   23  C   UNK N   1      -8.516  -1.298  -0.535  0.00  0.00     0.002 C 
HETATM   24  C   UNK N   1      -7.100  -1.787  -0.818  0.00  0.00     0.026 C 
ENDBRANCH   1  19
BRANCH   7  25
HETATM   25  C   UNK N   1      -3.489  -5.587   0.379  0.00  0.00     0.097 C 
HETATM   26  C   UNK N   1      -2.139  -6.284   0.594  0.00  0.00     0.026 C 
HETATM   27  C   UNK N   1      -2.371  -7.763   0.899  0.00  0.00     0.002 C 
HETATM   28  C   UNK N   1      -3.162  -8.433  -0.225  0.00  0.00     0.000 C 
HETATM   29  C   UNK N   1      -4.495  -7.723  -0.442  0.00  0.00     0.002 C 
HETATM   30  C   UNK N   1      -4.259  -6.251  -0.767  0.00  0.00     0.026 C 
ENDBRANCH   7  25
TORSDOF 6
