MODEL 1
REMARK VINA RESULT:      -8.3      0.000      0.000
REMARK  6 active torsions:
REMARK  status: ('A' for Active; 'I' for Inactive)
REMARK    1  A    between atoms: C_10  and  N_13 
REMARK    2  A    between atoms: N_13  and  C_14 
REMARK       I    between atoms: N_21  and  C_23 
REMARK       I    between atoms: C_23  and  N_25 
REMARK    3  A    between atoms: C_26  and  N_25 
REMARK    4  A    between atoms: C_26  and  C_27 
REMARK    5  A    between atoms: C_26  and  C_31 
REMARK    6  A    between atoms: C_27  and  N_28 
ROOT
HETATM    1  C   UNK N   1      23.166  17.911   4.827  0.00  0.00     0.131 A 
HETATM    2  C   UNK N   1      22.570  16.968   5.593  0.00  0.00     0.032 A 
HETATM    3  C   UNK N   1      21.350  17.414   5.847  0.00  0.00     0.065 A 
HETATM    4  N   UNK N   1      21.156  18.614   5.266  0.00  0.00    -0.300 N 
HETATM    5  N   UNK N   1      22.287  18.925   4.629  0.00  0.00    -0.285 N 
ATOM      6  HN  UNK N   1      22.460  19.773   4.091  1.00  0.00     0.188 HD
HETATM    7  C   UNK N   1      20.555  16.479   6.666  0.00  0.00     0.074 A 
HETATM    8  N   UNK N   1      21.550  15.407   6.825  0.00  0.00    -0.315 N 
HETATM    9  C   UNK N   1      22.840  15.668   6.185  0.00  0.00     0.173 A 
HETATM   10  C   UNK N   1      21.337  14.223   7.454  0.00  0.00     0.320 C 
HETATM   11  O   UNK N   1      20.254  13.976   7.965  0.00  0.00    -0.247 OA
HETATM   12  N   UNK N   1      22.337  13.308   7.445  0.00  0.00    -0.333 N 
HETATM   13  C   UNK N   1      19.329  16.005   5.901  0.00  0.00     0.045 C 
HETATM   14  C   UNK N   1      20.165  17.092   8.001  0.00  0.00     0.045 C 
HETATM   15  H   UNK N   1      20.336  19.157   5.305  0.00  0.00     0.186 HD
HETATM   16  H   UNK N   1      23.179  13.616   7.037  0.00  0.00     0.165 HD
ENDROOT
BRANCH  12  17
HETATM   17  C   UNK N   1      22.363  11.949   7.941  0.00  0.00     0.147 C 
BRANCH  17  18
HETATM   18  C   UNK N   1      23.265  11.072   7.060  0.00  0.00     0.301 C 
BRANCH  18  19
HETATM   19  N   UNK N   1      23.641  11.688   5.778  0.00  0.00     0.082 N 
HETATM   20  C   UNK N   1      25.083  11.822   5.599  0.00  0.00     0.309 C 
HETATM   21  C   UNK N   1      23.187  10.779   4.740  0.00  0.00     0.309 C 
ENDBRANCH  18  19
ENDBRANCH  17  18
BRANCH  17  22
HETATM   22  C   UNK N   1      22.875  12.003   9.370  0.00  0.00    -0.034 A 
HETATM   23  C   UNK N   1      21.972  11.995  10.455  0.00  0.00     0.009 A 
HETATM   24  C   UNK N   1      22.429  12.033  11.772  0.00  0.00     0.001 A 
HETATM   25  C   UNK N   1      23.799  12.079  12.026  0.00  0.00     0.000 A 
HETATM   26  C   UNK N   1      24.708  12.085  10.962  0.00  0.00     0.001 A 
HETATM   27  C   UNK N   1      24.249  12.045   9.638  0.00  0.00     0.009 A 
ENDBRANCH  17  22
ENDBRANCH  12  17
BRANCH   1  28
HETATM   28  N   UNK N   1      24.490  17.833   4.328  0.00  0.00    -0.326 N 
HETATM   29  H   UNK N   1      24.626  17.418   3.445  0.00  0.00     0.169 HD
BRANCH  28  30
HETATM   30  C   UNK N   1      25.627  18.314   5.016  0.00  0.00     0.127 A 
HETATM   31  C   UNK N   1      26.677  17.463   5.320  0.00  0.00     0.075 A 
HETATM   32  S   UNK N   1      26.916  15.856   5.033  0.00  0.00    -0.096 SA
HETATM   33  C   UNK N   1      27.783  17.931   5.994  0.00  0.00     0.054 A 
HETATM   34  C   UNK N   1      28.420  15.677   5.745  0.00  0.00     0.053 A 
HETATM   35  C   UNK N   1      28.775  16.947   6.245  0.00  0.00     0.038 A 
HETATM   36  N   UNK N   1      27.862  19.233   6.363  0.00  0.00    -0.345 N 
HETATM   37  C   UNK N   1      26.830  20.080   6.062  0.00  0.00     0.079 A 
ATOM     38  HN  UNK N   1      28.682  19.579   6.862  1.00  0.00     0.167 HD
HETATM   39  C   UNK N   1      26.905  21.509   6.458  0.00  0.00     0.089 C 
HETATM   40  N   UNK N   1      25.726  19.619   5.398  0.00  0.00    -0.331 N 
ATOM     41  HN  UNK N   1      24.966  20.263   5.183  1.00  0.00     0.168 HD
ENDBRANCH  28  30
ENDBRANCH   1  28
TORSDOF 6
ENDMDL
MODEL 2
REMARK VINA RESULT:      -8.0      4.347      7.425
REMARK  6 active torsions:
REMARK  status: ('A' for Active; 'I' for Inactive)
REMARK    1  A    between atoms: C_10  and  N_13 
REMARK    2  A    between atoms: N_13  and  C_14 
REMARK       I    between atoms: N_21  and  C_23 
REMARK       I    between atoms: C_23  and  N_25 
REMARK    3  A    between atoms: C_26  and  N_25 
REMARK    4  A    between atoms: C_26  and  C_27 
REMARK    5  A    between atoms: C_26  and  C_31 
REMARK    6  A    between atoms: C_27  and  N_28 
ROOT
HETATM    1  C   UNK N   1      19.750  16.697   1.064  0.00  0.00     0.131 A 
HETATM    2  C   UNK N   1      20.126  17.091   2.303  0.00  0.00     0.032 A 
HETATM    3  C   UNK N   1      20.628  18.308   2.167  0.00  0.00     0.065 A 
HETATM    4  N   UNK N   1      20.584  18.696   0.877  0.00  0.00    -0.300 N 
HETATM    5  N   UNK N   1      20.036  17.692   0.188  0.00  0.00    -0.285 N 
ATOM      6  HN  UNK N   1      19.864  17.676  -0.817  1.00  0.00     0.188 HD
HETATM    7  C   UNK N   1      21.072  18.894   3.446  0.00  0.00     0.074 A 
HETATM    8  N   UNK N   1      20.717  17.783   4.344  0.00  0.00    -0.315 N 
HETATM    9  C   UNK N   1      20.135  16.617   3.677  0.00  0.00     0.173 A 
HETATM   10  C   UNK N   1      20.844  17.793   5.696  0.00  0.00     0.320 C 
HETATM   11  O   UNK N   1      21.298  18.770   6.271  0.00  0.00    -0.247 OA
HETATM   12  N   UNK N   1      20.398  16.714   6.385  0.00  0.00    -0.333 N 
HETATM   13  C   UNK N   1      20.278  20.152   3.764  0.00  0.00     0.045 C 
HETATM   14  C   UNK N   1      22.565  19.172   3.451  0.00  0.00     0.045 C 
HETATM   15  H   UNK N   1      20.896  19.555   0.513  0.00  0.00     0.186 HD
HETATM   16  H   UNK N   1      20.081  15.966   5.827  0.00  0.00     0.165 HD
ENDROOT
BRANCH  12  17
HETATM   17  C   UNK N   1      20.315  16.486   7.811  0.00  0.00     0.147 C 
BRANCH  17  18
HETATM   18  C   UNK N   1      18.873  16.681   8.304  0.00  0.00     0.301 C 
BRANCH  18  19
HETATM   19  N   UNK N   1      18.762  17.432   9.564  0.00  0.00     0.082 N 
HETATM   20  C   UNK N   1      19.462  18.713   9.541  0.00  0.00     0.309 C 
HETATM   21  C   UNK N   1      17.354  17.745   9.729  0.00  0.00     0.309 C 
ENDBRANCH  18  19
ENDBRANCH  17  18
BRANCH  17  22
HETATM   22  C   UNK N   1      20.796  15.069   8.068  0.00  0.00    -0.034 A 
HETATM   23  C   UNK N   1      21.117  14.648   9.377  0.00  0.00     0.009 A 
HETATM   24  C   UNK N   1      21.549  13.346   9.628  0.00  0.00     0.001 A 
HETATM   25  C   UNK N   1      21.668  12.442   8.574  0.00  0.00     0.000 A 
HETATM   26  C   UNK N   1      21.352  12.843   7.271  0.00  0.00     0.001 A 
HETATM   27  C   UNK N   1      20.916  14.150   7.017  0.00  0.00     0.009 A 
ENDBRANCH  17  22
ENDBRANCH  12  17
BRANCH   1  28
HETATM   28  N   UNK N   1      19.160  15.446   0.755  0.00  0.00    -0.326 N 
HETATM   29  H   UNK N   1      18.190  15.422   0.587  0.00  0.00     0.169 HD
BRANCH  28  30
HETATM   30  C   UNK N   1      19.876  14.230   0.672  0.00  0.00     0.127 A 
HETATM   31  C   UNK N   1      19.205  13.029   0.509  0.00  0.00     0.075 A 
HETATM   32  S   UNK N   1      17.601  12.667   0.383  0.00  0.00    -0.096 SA
HETATM   33  C   UNK N   1      19.903  11.844   0.431  0.00  0.00     0.054 A 
HETATM   34  C   UNK N   1      17.711  11.005   0.227  0.00  0.00     0.053 A 
HETATM   35  C   UNK N   1      19.087  10.693   0.274  0.00  0.00     0.038 A 
HETATM   36  N   UNK N   1      21.257  11.838   0.507  0.00  0.00    -0.345 N 
HETATM   37  C   UNK N   1      21.925  13.022   0.663  0.00  0.00     0.079 A 
ATOM     38  HN  UNK N   1      21.773  10.959   0.449  1.00  0.00     0.167 HD
HETATM   39  C   UNK N   1      23.408  13.030   0.744  0.00  0.00     0.089 C 
HETATM   40  N   UNK N   1      21.237  14.201   0.746  0.00  0.00    -0.331 N 
ATOM     41  HN  UNK N   1      21.751  15.074   0.865  1.00  0.00     0.168 HD
ENDBRANCH  28  30
ENDBRANCH   1  28
TORSDOF 6
ENDMDL
MODEL 3
REMARK VINA RESULT:      -7.8      3.685      6.995
REMARK  6 active torsions:
REMARK  status: ('A' for Active; 'I' for Inactive)
REMARK    1  A    between atoms: C_10  and  N_13 
REMARK    2  A    between atoms: N_13  and  C_14 
REMARK       I    between atoms: N_21  and  C_23 
REMARK       I    between atoms: C_23  and  N_25 
REMARK    3  A    between atoms: C_26  and  N_25 
REMARK    4  A    between atoms: C_26  and  C_27 
REMARK    5  A    between atoms: C_26  and  C_31 
REMARK    6  A    between atoms: C_27  and  N_28 
ROOT
HETATM    1  C   UNK N   1      28.750  16.884   3.841  0.00  0.00     0.131 A 
HETATM    2  C   UNK N   1      27.446  16.579   3.648  0.00  0.00     0.032 A 
HETATM    3  C   UNK N   1      27.428  15.484   2.906  0.00  0.00     0.065 A 
HETATM    4  N   UNK N   1      28.684  15.086   2.620  0.00  0.00    -0.300 N 
HETATM    5  N   UNK N   1      29.509  15.959   3.203  0.00  0.00    -0.285 N 
ATOM      6  HN  UNK N   1      30.528  15.935   3.174  1.00  0.00     0.188 HD
HETATM    7  C   UNK N   1      26.062  15.004   2.620  0.00  0.00     0.074 A 
HETATM    8  N   UNK N   1      25.300  16.029   3.349  0.00  0.00    -0.315 N 
HETATM    9  C   UNK N   1      26.118  17.054   4.000  0.00  0.00     0.173 A 
HETATM   10  C   UNK N   1      23.950  16.053   3.492  0.00  0.00     0.320 C 
HETATM   11  O   UNK N   1      23.256  15.186   2.982  0.00  0.00    -0.247 OA
HETATM   12  N   UNK N   1      23.408  17.028   4.263  0.00  0.00    -0.333 N 
HETATM   13  C   UNK N   1      25.848  13.616   3.205  0.00  0.00     0.045 C 
HETATM   14  C   UNK N   1      25.759  15.024   1.131  0.00  0.00     0.045 C 
HETATM   15  H   UNK N   1      28.942  14.303   2.084  0.00  0.00     0.186 HD
HETATM   16  H   UNK N   1      24.049  17.695   4.600  0.00  0.00     0.165 HD
ENDROOT
BRANCH  12  17
HETATM   17  C   UNK N   1      22.036  17.243   4.667  0.00  0.00     0.147 C 
BRANCH  17  18
HETATM   18  C   UNK N   1      21.965  17.605   6.157  0.00  0.00     0.301 C 
BRANCH  18  19
HETATM   19  N   UNK N   1      21.390  16.552   7.008  0.00  0.00     0.082 N 
HETATM   20  C   UNK N   1      20.314  17.026   7.873  0.00  0.00     0.309 C 
HETATM   21  C   UNK N   1      20.789  15.584   6.109  0.00  0.00     0.309 C 
ENDBRANCH  18  19
ENDBRANCH  17  18
BRANCH  17  22
HETATM   22  C   UNK N   1      21.485  18.363   3.802  0.00  0.00    -0.034 A 
HETATM   23  C   UNK N   1      22.311  19.440   3.413  0.00  0.00     0.009 A 
HETATM   24  C   UNK N   1      21.821  20.469   2.609  0.00  0.00     0.001 A 
HETATM   25  C   UNK N   1      20.495  20.438   2.180  0.00  0.00     0.000 A 
HETATM   26  C   UNK N   1      19.663  19.376   2.554  0.00  0.00     0.001 A 
HETATM   27  C   UNK N   1      20.156  18.341   3.361  0.00  0.00     0.009 A 
ENDBRANCH  17  22
ENDBRANCH  12  17
BRANCH   1  28
HETATM   28  N   UNK N   1      29.221  17.993   4.586  0.00  0.00    -0.326 N 
HETATM   29  H   UNK N   1      29.964  18.520   4.210  0.00  0.00     0.169 HD
BRANCH  28  30
HETATM   30  C   UNK N   1      28.693  18.393   5.835  0.00  0.00     0.127 A 
HETATM   31  C   UNK N   1      27.871  19.504   5.928  0.00  0.00     0.075 A 
HETATM   32  S   UNK N   1      27.323  20.571   4.796  0.00  0.00    -0.096 SA
HETATM   33  C   UNK N   1      27.359  19.895   7.146  0.00  0.00     0.054 A 
HETATM   34  C   UNK N   1      26.419  21.573   5.786  0.00  0.00     0.053 A 
HETATM   35  C   UNK N   1      26.543  21.054   7.092  0.00  0.00     0.038 A 
HETATM   36  N   UNK N   1      27.649  19.193   8.269  0.00  0.00    -0.345 N 
HETATM   37  C   UNK N   1      28.456  18.091   8.183  0.00  0.00     0.079 A 
ATOM     38  HN  UNK N   1      27.269  19.483   9.171  1.00  0.00     0.167 HD
HETATM   39  C   UNK N   1      28.777  17.311   9.405  0.00  0.00     0.089 C 
HETATM   40  N   UNK N   1      28.971  17.701   6.977  0.00  0.00    -0.331 N 
ATOM     41  HN  UNK N   1      29.573  16.880   6.931  1.00  0.00     0.168 HD
ENDBRANCH  28  30
ENDBRANCH   1  28
TORSDOF 6
ENDMDL
MODEL 4
REMARK VINA RESULT:      -7.7      2.367      3.611
REMARK  6 active torsions:
REMARK  status: ('A' for Active; 'I' for Inactive)
REMARK    1  A    between atoms: C_10  and  N_13 
REMARK    2  A    between atoms: N_13  and  C_14 
REMARK       I    between atoms: N_21  and  C_23 
REMARK       I    between atoms: C_23  and  N_25 
REMARK    3  A    between atoms: C_26  and  N_25 
REMARK    4  A    between atoms: C_26  and  C_27 
REMARK    5  A    between atoms: C_26  and  C_31 
REMARK    6  A    between atoms: C_27  and  N_28 
ROOT
HETATM    1  C   UNK N   1      27.508  16.470   5.233  0.00  0.00     0.131 A 
HETATM    2  C   UNK N   1      26.204  16.250   5.520  0.00  0.00     0.032 A 
HETATM    3  C   UNK N   1      25.509  17.000   4.679  0.00  0.00     0.065 A 
HETATM    4  N   UNK N   1      26.335  17.690   3.869  0.00  0.00    -0.300 N 
HETATM    5  N   UNK N   1      27.582  17.361   4.214  0.00  0.00    -0.285 N 
ATOM      6  HN  UNK N   1      28.437  17.716   3.786  1.00  0.00     0.188 HD
HETATM    7  C   UNK N   1      24.050  16.857   4.851  0.00  0.00     0.074 A 
HETATM    8  N   UNK N   1      24.042  15.873   5.946  0.00  0.00    -0.315 N 
HETATM    9  C   UNK N   1      25.368  15.469   6.417  0.00  0.00     0.173 A 
HETATM   10  C   UNK N   1      22.933  15.305   6.484  0.00  0.00     0.320 C 
HETATM   11  O   UNK N   1      21.821  15.607   6.080  0.00  0.00    -0.247 OA
HETATM   12  N   UNK N   1      23.103  14.356   7.437  0.00  0.00    -0.333 N 
HETATM   13  C   UNK N   1      23.413  16.301   3.586  0.00  0.00     0.045 C 
HETATM   14  C   UNK N   1      23.401  18.167   5.262  0.00  0.00     0.045 C 
HETATM   15  H   UNK N   1      26.069  18.318   3.160  0.00  0.00     0.186 HD
HETATM   16  H   UNK N   1      24.036  14.209   7.716  0.00  0.00     0.165 HD
ENDROOT
BRANCH  12  17
HETATM   17  C   UNK N   1      22.129  13.524   8.110  0.00  0.00     0.147 C 
BRANCH  17  18
HETATM   18  C   UNK N   1      21.675  12.379   7.193  0.00  0.00     0.301 C 
BRANCH  18  19
HETATM   19  N   UNK N   1      22.736  11.837   6.331  0.00  0.00     0.082 N 
HETATM   20  C   UNK N   1      23.080  10.452   6.635  0.00  0.00     0.309 C 
HETATM   21  C   UNK N   1      22.202  11.834   4.980  0.00  0.00     0.309 C 
ENDBRANCH  18  19
ENDBRANCH  17  18
BRANCH  17  22
HETATM   22  C   UNK N   1      22.789  12.991   9.370  0.00  0.00    -0.034 A 
HETATM   23  C   UNK N   1      22.005  12.601  10.478  0.00  0.00     0.009 A 
HETATM   24  C   UNK N   1      22.597  12.099  11.637  0.00  0.00     0.001 A 
HETATM   25  C   UNK N   1      23.984  11.978  11.707  0.00  0.00     0.000 A 
HETATM   26  C   UNK N   1      24.775  12.358  10.617  0.00  0.00     0.001 A 
HETATM   27  C   UNK N   1      24.181  12.861   9.451  0.00  0.00     0.009 A 
ENDBRANCH  17  22
ENDBRANCH  12  17
BRANCH   1  28
HETATM   28  N   UNK N   1      28.599  15.862   5.903  0.00  0.00    -0.326 N 
HETATM   29  H   UNK N   1      28.710  14.887   5.813  0.00  0.00     0.169 HD
BRANCH  28  30
HETATM   30  C   UNK N   1      29.539  16.566   6.690  0.00  0.00     0.127 A 
HETATM   31  C   UNK N   1      30.870  16.626   6.310  0.00  0.00     0.075 A 
HETATM   32  S   UNK N   1      31.681  15.992   5.021  0.00  0.00    -0.096 SA
HETATM   33  C   UNK N   1      31.786  17.309   7.079  0.00  0.00     0.054 A 
HETATM   34  C   UNK N   1      33.220  16.546   5.373  0.00  0.00     0.053 A 
HETATM   35  C   UNK N   1      33.112  17.278   6.574  0.00  0.00     0.038 A 
HETATM   36  N   UNK N   1      31.396  17.938   8.215  0.00  0.00    -0.345 N 
HETATM   37  C   UNK N   1      30.081  17.887   8.593  0.00  0.00     0.079 A 
ATOM     38  HN  UNK N   1      32.075  18.444   8.784  1.00  0.00     0.167 HD
HETATM   39  C   UNK N   1      29.640  18.574   9.833  0.00  0.00     0.089 C 
HETATM   40  N   UNK N   1      29.168  17.205   7.836  0.00  0.00    -0.331 N 
ATOM     41  HN  UNK N   1      28.193  17.175   8.133  1.00  0.00     0.168 HD
ENDBRANCH  28  30
ENDBRANCH   1  28
TORSDOF 6
ENDMDL
MODEL 5
REMARK VINA RESULT:      -7.7      3.121      7.417
REMARK  6 active torsions:
REMARK  status: ('A' for Active; 'I' for Inactive)
REMARK    1  A    between atoms: C_10  and  N_13 
REMARK    2  A    between atoms: N_13  and  C_14 
REMARK       I    between atoms: N_21  and  C_23 
REMARK       I    between atoms: C_23  and  N_25 
REMARK    3  A    between atoms: C_26  and  N_25 
REMARK    4  A    between atoms: C_26  and  C_27 
REMARK    5  A    between atoms: C_26  and  C_31 
REMARK    6  A    between atoms: C_27  and  N_28 
ROOT
HETATM    1  C   UNK N   1      20.421  15.687   5.314  0.00  0.00     0.131 A 
HETATM    2  C   UNK N   1      21.711  15.490   5.672  0.00  0.00     0.032 A 
HETATM    3  C   UNK N   1      21.777  14.263   6.161  0.00  0.00     0.065 A 
HETATM    4  N   UNK N   1      20.565  13.675   6.126  0.00  0.00    -0.300 N 
HETATM    5  N   UNK N   1      19.718  14.562   5.598  0.00  0.00    -0.285 N 
ATOM      6  HN  UNK N   1      18.722  14.419   5.437  1.00  0.00     0.188 HD
HETATM    7  C   UNK N   1      23.139  13.883   6.583  0.00  0.00     0.074 A 
HETATM    8  N   UNK N   1      23.844  15.127   6.232  0.00  0.00    -0.315 N 
HETATM    9  C   UNK N   1      22.993  16.177   5.671  0.00  0.00     0.173 A 
HETATM   10  C   UNK N   1      25.182  15.331   6.343  0.00  0.00     0.320 C 
HETATM   11  O   UNK N   1      25.911  14.453   6.779  0.00  0.00    -0.247 OA
HETATM   12  N   UNK N   1      25.685  16.510   5.903  0.00  0.00    -0.333 N 
HETATM   13  C   UNK N   1      23.642  12.700   5.771  0.00  0.00     0.045 C 
HETATM   14  C   UNK N   1      23.207  13.595   8.073  0.00  0.00     0.045 C 
HETATM   15  H   UNK N   1      20.347  12.766   6.432  0.00  0.00     0.186 HD
HETATM   16  H   UNK N   1      25.011  17.163   5.601  0.00  0.00     0.165 HD
ENDROOT
BRANCH  12  17
HETATM   17  C   UNK N   1      27.055  16.963   5.807  0.00  0.00     0.147 C 
BRANCH  17  18
HETATM   18  C   UNK N   1      27.741  16.345   4.580  0.00  0.00     0.301 C 
BRANCH  18  19
HETATM   19  N   UNK N   1      29.141  16.758   4.398  0.00  0.00     0.082 N 
HETATM   20  C   UNK N   1      30.069  16.072   5.292  0.00  0.00     0.309 C 
HETATM   21  C   UNK N   1      29.512  16.363   3.051  0.00  0.00     0.309 C 
ENDBRANCH  18  19
ENDBRANCH  17  18
BRANCH  17  22
HETATM   22  C   UNK N   1      27.022  18.478   5.713  0.00  0.00    -0.034 A 
HETATM   23  C   UNK N   1      27.720  19.269   6.652  0.00  0.00     0.009 A 
HETATM   24  C   UNK N   1      27.707  20.661   6.571  0.00  0.00     0.001 A 
HETATM   25  C   UNK N   1      26.995  21.287   5.549  0.00  0.00     0.000 A 
HETATM   26  C   UNK N   1      26.300  20.518   4.608  0.00  0.00     0.001 A 
HETATM   27  C   UNK N   1      26.314  19.118   4.688  0.00  0.00     0.009 A 
ENDBRANCH  17  22
ENDBRANCH  12  17
BRANCH   1  28
HETATM   28  N   UNK N   1      19.910  16.878   4.743  0.00  0.00    -0.326 N 
HETATM   29  H   UNK N   1      19.485  17.533   5.344  0.00  0.00     0.169 HD
BRANCH  28  30
HETATM   30  C   UNK N   1      19.971  17.187   3.365  0.00  0.00     0.127 A 
HETATM   31  C   UNK N   1      20.406  18.433   2.942  0.00  0.00     0.075 A 
HETATM   32  S   UNK N   1      20.912  19.767   3.771  0.00  0.00    -0.096 SA
HETATM   33  C   UNK N   1      20.462  18.736   1.599  0.00  0.00     0.054 A 
HETATM   34  C   UNK N   1      21.222  20.784   2.479  0.00  0.00     0.053 A 
HETATM   35  C   UNK N   1      20.916  20.049   1.314  0.00  0.00     0.038 A 
HETATM   36  N   UNK N   1      20.098  17.815   0.673  0.00  0.00    -0.345 N 
HETATM   37  C   UNK N   1      19.673  16.581   1.084  0.00  0.00     0.079 A 
ATOM     38  HN  UNK N   1      20.140  18.040  -0.322  1.00  0.00     0.167 HD
HETATM   39  C   UNK N   1      19.275  15.562   0.079  0.00  0.00     0.089 C 
HETATM   40  N   UNK N   1      19.610  16.277   2.416  0.00  0.00    -0.331 N 
ATOM     41  HN  UNK N   1      19.288  15.353   2.705  1.00  0.00     0.168 HD
ENDBRANCH  28  30
ENDBRANCH   1  28
TORSDOF 6
ENDMDL
MODEL 6
REMARK VINA RESULT:      -7.6      1.907      2.576
REMARK  6 active torsions:
REMARK  status: ('A' for Active; 'I' for Inactive)
REMARK    1  A    between atoms: C_10  and  N_13 
REMARK    2  A    between atoms: N_13  and  C_14 
REMARK       I    between atoms: N_21  and  C_23 
REMARK       I    between atoms: C_23  and  N_25 
REMARK    3  A    between atoms: C_26  and  N_25 
REMARK    4  A    between atoms: C_26  and  C_27 
REMARK    5  A    between atoms: C_26  and  C_31 
REMARK    6  A    between atoms: C_27  and  N_28 
ROOT
HETATM    1  C   UNK N   1      25.984  16.952   4.638  0.00  0.00     0.131 A 
HETATM    2  C   UNK N   1      24.805  16.568   5.182  0.00  0.00     0.032 A 
HETATM    3  C   UNK N   1      23.892  17.402   4.713  0.00  0.00     0.065 A 
HETATM    4  N   UNK N   1      24.456  18.307   3.890  0.00  0.00    -0.300 N 
HETATM    5  N   UNK N   1      25.761  18.027   3.842  0.00  0.00    -0.285 N 
ATOM      6  HN  UNK N   1      26.464  18.532   3.302  1.00  0.00     0.188 HD
HETATM    7  C   UNK N   1      22.532  17.101   5.202  0.00  0.00     0.074 A 
HETATM    8  N   UNK N   1      22.841  15.927   6.034  0.00  0.00    -0.315 N 
HETATM    9  C   UNK N   1      24.257  15.557   6.071  0.00  0.00     0.173 A 
HETATM   10  C   UNK N   1      21.929  15.170   6.696  0.00  0.00     0.320 C 
HETATM   11  O   UNK N   1      20.740  15.447   6.649  0.00  0.00    -0.247 OA
HETATM   12  N   UNK N   1      22.372  14.072   7.357  0.00  0.00    -0.333 N 
HETATM   13  C   UNK N   1      21.611  16.748   4.044  0.00  0.00     0.045 C 
HETATM   14  C   UNK N   1      21.964  18.245   6.026  0.00  0.00     0.045 C 
HETATM   15  H   UNK N   1      23.995  19.034   3.415  0.00  0.00     0.186 HD
HETATM   16  H   UNK N   1      23.350  13.957   7.362  0.00  0.00     0.165 HD
ENDROOT
BRANCH  12  17
HETATM   17  C   UNK N   1      21.634  13.044   8.057  0.00  0.00     0.147 C 
BRANCH  17  18
HETATM   18  C   UNK N   1      21.421  11.823   7.151  0.00  0.00     0.301 C 
BRANCH  18  19
HETATM   19  N   UNK N   1      22.455  11.647   6.120  0.00  0.00     0.082 N 
HETATM   20  C   UNK N   1      23.192  10.394   6.245  0.00  0.00     0.309 C 
HETATM   21  C   UNK N   1      21.757  11.581   4.848  0.00  0.00     0.309 C 
ENDBRANCH  18  19
ENDBRANCH  17  18
BRANCH  17  22
HETATM   22  C   UNK N   1      22.438  12.678   9.293  0.00  0.00    -0.034 A 
HETATM   23  C   UNK N   1      21.784  12.324  10.493  0.00  0.00     0.009 A 
HETATM   24  C   UNK N   1      22.509  11.974  11.631  0.00  0.00     0.001 A 
HETATM   25  C   UNK N   1      23.902  11.973  11.589  0.00  0.00     0.000 A 
HETATM   26  C   UNK N   1      24.566  12.318  10.406  0.00  0.00     0.001 A 
HETATM   27  C   UNK N   1      23.838  12.668   9.261  0.00  0.00     0.009 A 
ENDBRANCH  17  22
ENDBRANCH  12  17
BRANCH   1  28
HETATM   28  N   UNK N   1      27.231  16.324   4.877  0.00  0.00    -0.326 N 
HETATM   29  H   UNK N   1      27.467  15.543   4.325  0.00  0.00     0.169 HD
BRANCH  28  30
HETATM   30  C   UNK N   1      28.158  16.748   5.857  0.00  0.00     0.127 A 
HETATM   31  C   UNK N   1      29.514  16.773   5.577  0.00  0.00     0.075 A 
HETATM   32  S   UNK N   1      30.372  16.375   4.225  0.00  0.00    -0.096 SA
HETATM   33  C   UNK N   1      30.418  17.183   6.533  0.00  0.00     0.054 A 
HETATM   34  C   UNK N   1      31.916  16.697   4.781  0.00  0.00     0.053 A 
HETATM   35  C   UNK N   1      31.772  17.148   6.110  0.00  0.00     0.038 A 
HETATM   36  N   UNK N   1      29.990  17.573   7.758  0.00  0.00    -0.345 N 
HETATM   37  C   UNK N   1      28.651  17.556   8.039  0.00  0.00     0.079 A 
ATOM     38  HN  UNK N   1      30.660  17.877   8.466  1.00  0.00     0.167 HD
HETATM   39  C   UNK N   1      28.169  17.984   9.377  0.00  0.00     0.089 C 
HETATM   40  N   UNK N   1      27.750  17.144   7.096  0.00  0.00    -0.331 N 
ATOM     41  HN  UNK N   1      26.755  17.135   7.323  1.00  0.00     0.168 HD
ENDBRANCH  28  30
ENDBRANCH   1  28
TORSDOF 6
ENDMDL
MODEL 7
REMARK VINA RESULT:      -7.4      3.776      7.688
REMARK  6 active torsions:
REMARK  status: ('A' for Active; 'I' for Inactive)
REMARK    1  A    between atoms: C_10  and  N_13 
REMARK    2  A    between atoms: N_13  and  C_14 
REMARK       I    between atoms: N_21  and  C_23 
REMARK       I    between atoms: C_23  and  N_25 
REMARK    3  A    between atoms: C_26  and  N_25 
REMARK    4  A    between atoms: C_26  and  C_27 
REMARK    5  A    between atoms: C_26  and  C_31 
REMARK    6  A    between atoms: C_27  and  N_28 
ROOT
HETATM    1  C   UNK N   1      22.314  15.204   4.220  0.00  0.00     0.131 A 
HETATM    2  C   UNK N   1      23.643  15.258   4.468  0.00  0.00     0.032 A 
HETATM    3  C   UNK N   1      24.082  14.011   4.407  0.00  0.00     0.065 A 
HETATM    4  N   UNK N   1      23.069  13.167   4.130  0.00  0.00    -0.300 N 
HETATM    5  N   UNK N   1      21.966  13.910   4.013  0.00  0.00    -0.285 N 
ATOM      6  HN  UNK N   1      21.029  13.565   3.805  1.00  0.00     0.188 HD
HETATM    7  C   UNK N   1      25.535  13.900   4.638  0.00  0.00     0.074 A 
HETATM    8  N   UNK N   1      25.847  15.325   4.834  0.00  0.00    -0.315 N 
HETATM    9  C   UNK N   1      24.693  16.222   4.754  0.00  0.00     0.173 A 
HETATM   10  C   UNK N   1      27.089  15.840   5.022  0.00  0.00     0.320 C 
HETATM   11  O   UNK N   1      28.067  15.108   5.059  0.00  0.00    -0.247 OA
HETATM   12  N   UNK N   1      27.214  17.187   5.109  0.00  0.00    -0.333 N 
HETATM   13  C   UNK N   1      26.232  13.331   3.412  0.00  0.00     0.045 C 
HETATM   14  C   UNK N   1      25.847  13.077   5.877  0.00  0.00     0.045 C 
HETATM   15  H   UNK N   1      23.131  12.190   4.033  0.00  0.00     0.186 HD
HETATM   16  H   UNK N   1      26.364  17.684   5.101  0.00  0.00     0.165 HD
ENDROOT
BRANCH  12  17
HETATM   17  C   UNK N   1      28.399  18.010   5.211  0.00  0.00     0.147 C 
BRANCH  17  18
HETATM   18  C   UNK N   1      28.087  19.457   4.803  0.00  0.00     0.301 C 
BRANCH  18  19
HETATM   19  N   UNK N   1      26.651  19.755   4.686  0.00  0.00     0.082 N 
HETATM   20  C   UNK N   1      26.189  20.767   5.631  0.00  0.00     0.309 C 
HETATM   21  C   UNK N   1      26.458  20.321   3.363  0.00  0.00     0.309 C 
ENDBRANCH  18  19
ENDBRANCH  17  18
BRANCH  17  22
HETATM   22  C   UNK N   1      28.874  17.935   6.652  0.00  0.00    -0.034 A 
HETATM   23  C   UNK N   1      28.073  18.444   7.697  0.00  0.00     0.009 A 
HETATM   24  C   UNK N   1      28.491  18.371   9.025  0.00  0.00     0.001 A 
HETATM   25  C   UNK N   1      29.719  17.787   9.331  0.00  0.00     0.000 A 
HETATM   26  C   UNK N   1      30.524  17.275   8.308  0.00  0.00     0.001 A 
HETATM   27  C   UNK N   1      30.103  17.346   6.972  0.00  0.00     0.009 A 
ENDBRANCH  17  22
ENDBRANCH  12  17
BRANCH   1  28
HETATM   28  N   UNK N   1      21.448  16.325   4.190  0.00  0.00    -0.326 N 
HETATM   29  H   UNK N   1      21.177  16.722   5.050  0.00  0.00     0.169 HD
BRANCH  28  30
HETATM   30  C   UNK N   1      20.949  16.911   3.004  0.00  0.00     0.127 A 
HETATM   31  C   UNK N   1      21.114  18.266   2.765  0.00  0.00     0.075 A 
HETATM   32  S   UNK N   1      21.829  19.464   3.646  0.00  0.00    -0.096 SA
HETATM   33  C   UNK N   1      20.625  18.837   1.611  0.00  0.00     0.054 A 
HETATM   34  C   UNK N   1      21.553  20.755   2.617  0.00  0.00     0.053 A 
HETATM   35  C   UNK N   1      20.857  20.233   1.505  0.00  0.00     0.038 A 
HETATM   36  N   UNK N   1      19.980  18.079   0.690  0.00  0.00    -0.345 N 
HETATM   37  C   UNK N   1      19.819  16.739   0.918  0.00  0.00     0.079 A 
ATOM     38  HN  UNK N   1      19.618  18.503  -0.164  1.00  0.00     0.167 HD
HETATM   39  C   UNK N   1      19.117  15.897  -0.085  0.00  0.00     0.089 C 
HETATM   40  N   UNK N   1      20.298  16.168   2.065  0.00  0.00    -0.331 N 
ATOM     41  HN  UNK N   1      20.166  15.168   2.219  1.00  0.00     0.168 HD
ENDBRANCH  28  30
ENDBRANCH   1  28
TORSDOF 6
ENDMDL
MODEL 8
REMARK VINA RESULT:      -7.4      3.311      6.605
REMARK  6 active torsions:
REMARK  status: ('A' for Active; 'I' for Inactive)
REMARK    1  A    between atoms: C_10  and  N_13 
REMARK    2  A    between atoms: N_13  and  C_14 
REMARK       I    between atoms: N_21  and  C_23 
REMARK       I    between atoms: C_23  and  N_25 
REMARK    3  A    between atoms: C_26  and  N_25 
REMARK    4  A    between atoms: C_26  and  C_27 
REMARK    5  A    between atoms: C_26  and  C_31 
REMARK    6  A    between atoms: C_27  and  N_28 
ROOT
HETATM    1  C   UNK N   1      28.510  16.478   3.516  0.00  0.00     0.131 A 
HETATM    2  C   UNK N   1      27.212  16.098   3.481  0.00  0.00     0.032 A 
HETATM    3  C   UNK N   1      27.205  14.845   3.058  0.00  0.00     0.065 A 
HETATM    4  N   UNK N   1      28.460  14.418   2.822  0.00  0.00    -0.300 N 
HETATM    5  N   UNK N   1      29.276  15.436   3.106  0.00  0.00    -0.285 N 
ATOM      6  HN  UNK N   1      30.293  15.431   3.030  1.00  0.00     0.188 HD
HETATM    7  C   UNK N   1      25.847  14.270   2.984  0.00  0.00     0.074 A 
HETATM    8  N   UNK N   1      25.078  15.433   3.454  0.00  0.00    -0.315 N 
HETATM    9  C   UNK N   1      25.883  16.615   3.765  0.00  0.00     0.173 A 
HETATM   10  C   UNK N   1      23.736  15.459   3.658  0.00  0.00     0.320 C 
HETATM   11  O   UNK N   1      23.054  14.470   3.434  0.00  0.00    -0.247 OA
HETATM   12  N   UNK N   1      23.191  16.590   4.169  0.00  0.00    -0.333 N 
HETATM   13  C   UNK N   1      25.714  13.084   3.927  0.00  0.00     0.045 C 
HETATM   14  C   UNK N   1      25.477  13.884   1.561  0.00  0.00     0.045 C 
HETATM   15  H   UNK N   1      28.726  13.527   2.500  0.00  0.00     0.186 HD
HETATM   16  H   UNK N   1      23.820  17.340   4.283  0.00  0.00     0.165 HD
ENDROOT
BRANCH  12  17
HETATM   17  C   UNK N   1      21.831  16.870   4.575  0.00  0.00     0.147 C 
BRANCH  17  18
HETATM   18  C   UNK N   1      21.761  17.119   6.088  0.00  0.00     0.301 C 
BRANCH  18  19
HETATM   19  N   UNK N   1      20.527  16.633   6.724  0.00  0.00     0.082 N 
HETATM   20  C   UNK N   1      19.927  15.496   6.035  0.00  0.00     0.309 C 
HETATM   21  C   UNK N   1      20.908  16.153   8.041  0.00  0.00     0.309 C 
ENDBRANCH  18  19
ENDBRANCH  17  18
BRANCH  17  22
HETATM   22  C   UNK N   1      21.373  18.090   3.795  0.00  0.00    -0.034 A 
HETATM   23  C   UNK N   1      20.048  18.178   3.317  0.00  0.00     0.009 A 
HETATM   24  C   UNK N   1      19.611  19.298   2.610  0.00  0.00     0.001 A 
HETATM   25  C   UNK N   1      20.492  20.350   2.369  0.00  0.00     0.000 A 
HETATM   26  C   UNK N   1      21.809  20.280   2.837  0.00  0.00     0.001 A 
HETATM   27  C   UNK N   1      22.249  19.155   3.550  0.00  0.00     0.009 A 
ENDBRANCH  17  22
ENDBRANCH  12  17
BRANCH   1  28
HETATM   28  N   UNK N   1      28.971  17.758   3.913  0.00  0.00    -0.326 N 
HETATM   29  H   UNK N   1      29.629  18.211   3.337  0.00  0.00     0.169 HD
BRANCH  28  30
HETATM   30  C   UNK N   1      28.545  18.426   5.084  0.00  0.00     0.127 A 
HETATM   31  C   UNK N   1      28.995  18.018   6.329  0.00  0.00     0.075 A 
HETATM   32  S   UNK N   1      30.011  16.804   6.794  0.00  0.00    -0.096 SA
HETATM   33  C   UNK N   1      28.578  18.667   7.470  0.00  0.00     0.054 A 
HETATM   34  C   UNK N   1      29.970  17.039   8.451  0.00  0.00     0.053 A 
HETATM   35  C   UNK N   1      29.110  18.136   8.673  0.00  0.00     0.038 A 
HETATM   36  N   UNK N   1      27.726  19.719   7.389  0.00  0.00    -0.345 N 
HETATM   37  C   UNK N   1      27.282  20.130   6.161  0.00  0.00     0.079 A 
ATOM     38  HN  UNK N   1      27.417  20.199   8.235  1.00  0.00     0.167 HD
HETATM   39  C   UNK N   1      26.352  21.283   6.058  0.00  0.00     0.089 C 
HETATM   40  N   UNK N   1      27.689  19.486   5.025  0.00  0.00    -0.331 N 
ATOM     41  HN  UNK N   1      27.347  19.804   4.119  1.00  0.00     0.168 HD
ENDBRANCH  28  30
ENDBRANCH   1  28
TORSDOF 6
ENDMDL
MODEL 9
REMARK VINA RESULT:      -7.4      3.415      5.211
REMARK  6 active torsions:
REMARK  status: ('A' for Active; 'I' for Inactive)
REMARK    1  A    between atoms: C_10  and  N_13 
REMARK    2  A    between atoms: N_13  and  C_14 
REMARK       I    between atoms: N_21  and  C_23 
REMARK       I    between atoms: C_23  and  N_25 
REMARK    3  A    between atoms: C_26  and  N_25 
REMARK    4  A    between atoms: C_26  and  C_27 
REMARK    5  A    between atoms: C_26  and  C_31 
REMARK    6  A    between atoms: C_27  and  N_28 
ROOT
HETATM    1  C   UNK N   1      29.553  16.218   4.870  0.00  0.00     0.131 A 
HETATM    2  C   UNK N   1      28.263  15.837   4.727  0.00  0.00     0.032 A 
HETATM    3  C   UNK N   1      27.808  16.467   3.656  0.00  0.00     0.065 A 
HETATM    4  N   UNK N   1      28.772  17.239   3.117  0.00  0.00    -0.300 N 
HETATM    5  N   UNK N   1      29.861  17.084   3.873  0.00  0.00    -0.285 N 
ATOM      6  HN  UNK N   1      30.763  17.537   3.727  1.00  0.00     0.188 HD
HETATM    7  C   UNK N   1      26.402  16.139   3.348  0.00  0.00     0.074 A 
HETATM    8  N   UNK N   1      26.142  15.192   4.444  0.00  0.00    -0.315 N 
HETATM    9  C   UNK N   1      27.270  14.977   5.350  0.00  0.00     0.173 A 
HETATM   10  C   UNK N   1      24.989  14.497   4.626  0.00  0.00     0.320 C 
HETATM   11  O   UNK N   1      24.049  14.641   3.858  0.00  0.00    -0.247 OA
HETATM   12  N   UNK N   1      24.938  13.603   5.643  0.00  0.00    -0.333 N 
HETATM   13  C   UNK N   1      26.293  15.472   1.985  0.00  0.00     0.045 C 
HETATM   14  C   UNK N   1      25.507  17.364   3.433  0.00  0.00     0.045 C 
HETATM   15  H   UNK N   1      28.689  17.808   2.318  0.00  0.00     0.186 HD
HETATM   16  H   UNK N   1      25.735  13.588   6.223  0.00  0.00     0.165 HD
ENDROOT
BRANCH  12  17
HETATM   17  C   UNK N   1      23.898  12.669   6.014  0.00  0.00     0.147 C 
BRANCH  17  18
HETATM   18  C   UNK N   1      24.106  11.323   5.305  0.00  0.00     0.301 C 
BRANCH  18  19
HETATM   19  N   UNK N   1      23.058  10.984   4.331  0.00  0.00     0.082 N 
HETATM   20  C   UNK N   1      22.526   9.635   4.495  0.00  0.00     0.309 C 
HETATM   21  C   UNK N   1      21.952  11.889   4.590  0.00  0.00     0.309 C 
ENDBRANCH  18  19
ENDBRANCH  17  18
BRANCH  17  22
HETATM   22  C   UNK N   1      23.954  12.511   7.523  0.00  0.00    -0.034 A 
HETATM   23  C   UNK N   1      24.866  13.269   8.289  0.00  0.00     0.009 A 
HETATM   24  C   UNK N   1      24.920  13.143   9.677  0.00  0.00     0.001 A 
HETATM   25  C   UNK N   1      24.062  12.255  10.323  0.00  0.00     0.000 A 
HETATM   26  C   UNK N   1      23.150  11.497   9.579  0.00  0.00     0.001 A 
HETATM   27  C   UNK N   1      23.094  11.625   8.184  0.00  0.00     0.009 A 
ENDBRANCH  17  22
ENDBRANCH  12  17
BRANCH   1  28
HETATM   28  N   UNK N   1      30.420  15.776   5.900  0.00  0.00    -0.326 N 
HETATM   29  H   UNK N   1      30.629  14.814   5.946  0.00  0.00     0.169 HD
BRANCH  28  30
HETATM   30  C   UNK N   1      31.004  16.627   6.866  0.00  0.00     0.127 A 
HETATM   31  C   UNK N   1      30.215  17.263   7.812  0.00  0.00     0.075 A 
HETATM   32  S   UNK N   1      28.588  17.249   8.084  0.00  0.00    -0.096 SA
HETATM   33  C   UNK N   1      30.784  18.095   8.751  0.00  0.00     0.054 A 
HETATM   34  C   UNK N   1      28.526  18.290   9.393  0.00  0.00     0.053 A 
HETATM   35  C   UNK N   1      29.856  18.684   9.648  0.00  0.00     0.038 A 
HETATM   36  N   UNK N   1      32.124  18.298   8.765  0.00  0.00    -0.345 N 
HETATM   37  C   UNK N   1      32.909  17.669   7.837  0.00  0.00     0.079 A 
ATOM     38  HN  UNK N   1      32.545  18.915   9.461  1.00  0.00     0.167 HD
HETATM   39  C   UNK N   1      34.379  17.881   7.845  0.00  0.00     0.089 C 
HETATM   40  N   UNK N   1      32.349  16.846   6.899  0.00  0.00    -0.331 N 
ATOM     41  HN  UNK N   1      32.948  16.387   6.213  1.00  0.00     0.168 HD
ENDBRANCH  28  30
ENDBRANCH   1  28
TORSDOF 6
ENDMDL
