MODEL 1
REMARK VINA RESULT:      -6.5      0.000      0.000
REMARK  10 active torsions:
REMARK  status: ('A' for Active; 'I' for Inactive)
REMARK    1  A    between atoms: C_2  and  C_3 
REMARK    2  A    between atoms: C_2  and  O_29 
REMARK    3  A    between atoms: C_3  and  C_4 
REMARK    4  A    between atoms: C_3  and  N_28 
REMARK       I    between atoms: C_4  and  N_6 
REMARK    5  A    between atoms: C_10  and  C_11 
REMARK       I    between atoms: C_11  and  N_13 
REMARK    6  A    between atoms: C_17  and  C_18 
REMARK       I    between atoms: C_18  and  N_20 
REMARK    7  A    between atoms: C_21  and  N_20 
REMARK    8  A    between atoms: C_21  and  C_22 
REMARK    9  A    between atoms: C_21  and  C_25 
REMARK   10  A    between atoms: C_22  and  O_24 
REMARK       I    between atoms: C_25  and  N_27 
ROOT
HETATM    1  C   UNK N   1      32.832  14.653   6.883  0.00  0.00     0.243 C 
HETATM    2  O   UNK N   1      31.896  14.151   7.487  0.00  0.00    -0.271 OA
HETATM    3  N   UNK N   1      32.665  15.863   6.268  0.00  0.00    -0.337 N 
HETATM    4  C   UNK N   1      33.645  16.447   5.397  0.00  0.00     0.127 C 
HETATM    5  C   UNK N   1      32.889  17.551   4.665  0.00  0.00     0.022 C 
HETATM    6  C   UNK N   1      31.412  17.353   5.024  0.00  0.00     0.037 C 
HETATM    7  C   UNK N   1      31.429  16.589   6.339  0.00  0.00     0.179 C 
ENDROOT
BRANCH   1   8
HETATM    8  C   UNK N   1      34.165  13.920   6.834  0.00  0.00     0.179 C 
HETATM    9  C   UNK N   1      34.022  12.629   6.042  0.00  0.00     0.037 C 
HETATM   10  C   UNK N   1      34.763  11.559   6.827  0.00  0.00     0.022 C 
HETATM   11  C   UNK N   1      34.910  12.098   8.235  0.00  0.00     0.127 C 
HETATM   12  N   UNK N   1      34.662  13.508   8.134  0.00  0.00    -0.337 N 
HETATM   13  C   UNK N   1      34.915  14.399   9.154  0.00  0.00     0.245 C 
HETATM   14  O   UNK N   1      34.685  15.587   8.980  0.00  0.00    -0.271 OA
BRANCH  13  15
HETATM   15  C   UNK N   1      35.486  14.001  10.515  0.00  0.00     0.196 C 
BRANCH  15  16
HETATM   16  C   UNK N   1      36.868  14.602  10.792  0.00  0.00     0.145 C 
HETATM   17  C   UNK N   1      37.856  14.161   9.726  0.00  0.00     0.042 C 
BRANCH  16  18
HETATM   18  O   UNK N   1      36.815  15.996  10.795  0.00  0.00    -0.393 OA
HETATM   19  H   UNK N   1      36.663  16.507  11.604  0.00  0.00     0.210 HD
ENDBRANCH  16  18
ENDBRANCH  15  16
BRANCH  15  20
HETATM   20  N   UNK N   1      34.588  14.235  11.637  0.00  0.00    -0.416 N 
HETATM   21  H   UNK N   1      33.838  14.925  11.598  0.00  0.00     0.150 HD
HETATM   22  H   UNK N   1      34.714  13.691  12.489  0.00  0.00     0.150 HD
ENDBRANCH  15  20
ENDBRANCH  13  15
ENDBRANCH   1   8
BRANCH   7  23
HETATM   23  C   UNK N   1      31.495  17.573   7.499  0.00  0.00     0.241 C 
HETATM   24  O   UNK N   1      32.580  17.980   7.889  0.00  0.00    -0.271 OA
HETATM   25  N   UNK N   1      30.377  17.975   8.150  0.00  0.00    -0.344 N 
HETATM   26  H   UNK N   1      30.465  18.629   8.879  0.00  0.00     0.163 HD
BRANCH  25  27
HETATM   27  C   UNK N   1      29.062  17.484   7.818  0.00  0.00     0.204 C 
BRANCH  27  28
HETATM   28  C   UNK N   1      28.285  17.187   9.112  0.00  0.00     0.146 C 
HETATM   29  C   UNK N   1      29.179  16.953  10.320  0.00  0.00     0.042 C 
BRANCH  28  30
HETATM   30  O   UNK N   1      27.368  18.203   9.380  0.00  0.00    -0.393 OA
HETATM   31  H   UNK N   1      26.411  18.285   9.521  0.00  0.00     0.210 HD
ENDBRANCH  28  30
ENDBRANCH  27  28
BRANCH  27  32
HETATM   32  C   UNK N   1      28.386  18.434   6.860  0.00  0.00     0.240 C 
HETATM   33  O   UNK N   1      28.244  19.603   7.178  0.00  0.00    -0.271 OA
HETATM   34  N   UNK N   1      27.948  18.017   5.654  0.00  0.00    -0.368 N 
HETATM   35  H   UNK N   1      28.388  17.261   5.203  0.00  0.00     0.159 HD
HETATM   36  H   UNK N   1      27.187  18.470   5.224  0.00  0.00     0.159 HD
ENDBRANCH  27  32
ENDBRANCH  25  27
ENDBRANCH   7  23
TORSDOF 10
ENDMDL
MODEL 2
REMARK VINA RESULT:      -6.4      8.990     12.210
REMARK  10 active torsions:
REMARK  status: ('A' for Active; 'I' for Inactive)
REMARK    1  A    between atoms: C_2  and  C_3 
REMARK    2  A    between atoms: C_2  and  O_29 
REMARK    3  A    between atoms: C_3  and  C_4 
REMARK    4  A    between atoms: C_3  and  N_28 
REMARK       I    between atoms: C_4  and  N_6 
REMARK    5  A    between atoms: C_10  and  C_11 
REMARK       I    between atoms: C_11  and  N_13 
REMARK    6  A    between atoms: C_17  and  C_18 
REMARK       I    between atoms: C_18  and  N_20 
REMARK    7  A    between atoms: C_21  and  N_20 
REMARK    8  A    between atoms: C_21  and  C_22 
REMARK    9  A    between atoms: C_21  and  C_25 
REMARK   10  A    between atoms: C_22  and  O_24 
REMARK       I    between atoms: C_25  and  N_27 
ROOT
HETATM    1  C   UNK N   1      22.952  15.951   4.741  0.00  0.00     0.243 C 
HETATM    2  O   UNK N   1      23.113  15.049   3.933  0.00  0.00    -0.271 OA
HETATM    3  N   UNK N   1      22.099  16.977   4.444  0.00  0.00    -0.337 N 
HETATM    4  C   UNK N   1      21.976  18.160   5.248  0.00  0.00     0.127 C 
HETATM    5  C   UNK N   1      21.237  19.150   4.352  0.00  0.00     0.022 C 
HETATM    6  C   UNK N   1      21.198  18.505   2.962  0.00  0.00     0.037 C 
HETATM    7  C   UNK N   1      21.349  17.014   3.220  0.00  0.00     0.179 C 
ENDROOT
BRANCH   1   8
HETATM    8  C   UNK N   1      23.704  15.909   6.064  0.00  0.00     0.179 C 
HETATM    9  C   UNK N   1      25.203  15.978   5.815  0.00  0.00     0.037 C 
HETATM   10  C   UNK N   1      25.838  14.945   6.731  0.00  0.00     0.022 C 
HETATM   11  C   UNK N   1      24.726  13.996   7.130  0.00  0.00     0.127 C 
HETATM   12  N   UNK N   1      23.505  14.684   6.817  0.00  0.00    -0.337 N 
HETATM   13  C   UNK N   1      22.264  14.254   7.232  0.00  0.00     0.245 C 
HETATM   14  O   UNK N   1      21.275  14.908   6.932  0.00  0.00    -0.271 OA
BRANCH  13  15
HETATM   15  C   UNK N   1      22.030  12.997   8.070  0.00  0.00     0.196 C 
BRANCH  15  16
HETATM   16  C   UNK N   1      21.296  13.273   9.387  0.00  0.00     0.145 C 
HETATM   17  C   UNK N   1      22.042  12.634  10.546  0.00  0.00     0.042 C 
BRANCH  16  18
HETATM   18  O   UNK N   1      21.200  14.643   9.627  0.00  0.00    -0.393 OA
HETATM   19  H   UNK N   1      20.505  15.023  10.186  0.00  0.00     0.210 HD
ENDBRANCH  16  18
ENDBRANCH  15  16
BRANCH  15  20
HETATM   20  N   UNK N   1      21.399  11.901   7.349  0.00  0.00    -0.416 N 
HETATM   21  H   UNK N   1      21.939  11.217   6.817  0.00  0.00     0.150 HD
HETATM   22  H   UNK N   1      20.384  11.814   7.376  0.00  0.00     0.150 HD
ENDBRANCH  15  20
ENDBRANCH  13  15
ENDBRANCH   1   8
BRANCH   7  23
HETATM   23  C   UNK N   1      19.978  16.396   3.457  0.00  0.00     0.241 C 
HETATM   24  O   UNK N   1      19.445  16.501   4.553  0.00  0.00    -0.271 OA
HETATM   25  N   UNK N   1      19.347  15.683   2.493  0.00  0.00    -0.344 N 
HETATM   26  H   UNK N   1      18.452  15.321   2.684  0.00  0.00     0.163 HD
BRANCH  25  27
HETATM   27  C   UNK N   1      19.932  15.433   1.199  0.00  0.00     0.204 C 
BRANCH  27  28
HETATM   28  C   UNK N   1      19.633  13.985   0.774  0.00  0.00     0.146 C 
HETATM   29  C   UNK N   1      20.602  12.967   1.353  0.00  0.00     0.042 C 
BRANCH  28  30
HETATM   30  O   UNK N   1      18.320  13.639   1.095  0.00  0.00    -0.393 OA
HETATM   31  H   UNK N   1      17.817  13.392   1.887  0.00  0.00     0.210 HD
ENDBRANCH  28  30
ENDBRANCH  27  28
BRANCH  27  32
HETATM   32  C   UNK N   1      19.496  16.499   0.224  0.00  0.00     0.240 C 
HETATM   33  O   UNK N   1      20.325  17.276  -0.220  0.00  0.00    -0.271 OA
HETATM   34  N   UNK N   1      18.212  16.600  -0.175  0.00  0.00    -0.368 N 
HETATM   35  H   UNK N   1      17.636  15.802  -0.193  0.00  0.00     0.159 HD
HETATM   36  H   UNK N   1      17.850  17.472  -0.451  0.00  0.00     0.159 HD
ENDBRANCH  27  32
ENDBRANCH  25  27
ENDBRANCH   7  23
TORSDOF 10
ENDMDL
MODEL 3
REMARK VINA RESULT:      -6.2      8.488     12.366
REMARK  10 active torsions:
REMARK  status: ('A' for Active; 'I' for Inactive)
REMARK    1  A    between atoms: C_2  and  C_3 
REMARK    2  A    between atoms: C_2  and  O_29 
REMARK    3  A    between atoms: C_3  and  C_4 
REMARK    4  A    between atoms: C_3  and  N_28 
REMARK       I    between atoms: C_4  and  N_6 
REMARK    5  A    between atoms: C_10  and  C_11 
REMARK       I    between atoms: C_11  and  N_13 
REMARK    6  A    between atoms: C_17  and  C_18 
REMARK       I    between atoms: C_18  and  N_20 
REMARK    7  A    between atoms: C_21  and  N_20 
REMARK    8  A    between atoms: C_21  and  C_22 
REMARK    9  A    between atoms: C_21  and  C_25 
REMARK   10  A    between atoms: C_22  and  O_24 
REMARK       I    between atoms: C_25  and  N_27 
ROOT
HETATM    1  C   UNK N   1      23.187  16.317   5.655  0.00  0.00     0.243 C 
HETATM    2  O   UNK N   1      22.362  16.633   6.498  0.00  0.00    -0.271 OA
HETATM    3  N   UNK N   1      24.099  15.339   5.939  0.00  0.00    -0.337 N 
HETATM    4  C   UNK N   1      25.208  15.020   5.084  0.00  0.00     0.127 C 
HETATM    5  C   UNK N   1      26.132  14.183   5.962  0.00  0.00     0.022 C 
HETATM    6  C   UNK N   1      25.565  14.286   7.382  0.00  0.00     0.037 C 
HETATM    7  C   UNK N   1      24.097  14.637   7.192  0.00  0.00     0.179 C 
ENDROOT
BRANCH   1   8
HETATM    8  C   UNK N   1      23.178  17.018   4.303  0.00  0.00     0.179 C 
HETATM    9  C   UNK N   1      23.419  18.508   4.486  0.00  0.00     0.037 C 
HETATM   10  C   UNK N   1      22.428  19.219   3.579  0.00  0.00     0.022 C 
HETATM   11  C   UNK N   1      21.350  18.204   3.259  0.00  0.00     0.127 C 
HETATM   12  N   UNK N   1      21.911  16.927   3.599  0.00  0.00    -0.337 N 
HETATM   13  C   UNK N   1      21.334  15.726   3.251  0.00  0.00     0.245 C 
HETATM   14  O   UNK N   1      21.887  14.683   3.571  0.00  0.00    -0.271 OA
BRANCH  13  15
HETATM   15  C   UNK N   1      20.029  15.601   2.466  0.00  0.00     0.196 C 
BRANCH  15  16
HETATM   16  C   UNK N   1      20.241  15.449   0.955  0.00  0.00     0.145 C 
HETATM   17  C   UNK N   1      19.853  16.732   0.240  0.00  0.00     0.042 C 
BRANCH  16  18
HETATM   18  O   UNK N   1      21.576  15.168   0.665  0.00  0.00    -0.393 OA
HETATM   19  H   UNK N   1      22.169  15.826   0.272  0.00  0.00     0.210 HD
ENDBRANCH  16  18
ENDBRANCH  15  16
BRANCH  15  20
HETATM   20  N   UNK N   1      19.122  14.576   2.963  0.00  0.00    -0.416 N 
HETATM   21  H   UNK N   1      18.981  13.691   2.475  0.00  0.00     0.150 HD
HETATM   22  H   UNK N   1      18.612  14.749   3.828  0.00  0.00     0.150 HD
ENDBRANCH  15  20
ENDBRANCH  13  15
ENDBRANCH   1   8
BRANCH   7  23
HETATM   23  C   UNK N   1      23.282  13.359   7.045  0.00  0.00     0.241 C 
HETATM   24  O   UNK N   1      23.113  12.870   5.938  0.00  0.00    -0.271 OA
HETATM   25  N   UNK N   1      22.692  12.770   8.113  0.00  0.00    -0.344 N 
HETATM   26  H   UNK N   1      22.194  11.933   7.975  0.00  0.00     0.163 HD
BRANCH  25  27
HETATM   27  C   UNK N   1      22.764  13.319   9.445  0.00  0.00     0.204 C 
BRANCH  27  28
HETATM   28  C   UNK N   1      21.362  13.768   9.890  0.00  0.00     0.146 C 
HETATM   29  C   UNK N   1      20.871  15.023   9.185  0.00  0.00     0.042 C 
BRANCH  28  30
HETATM   30  O   UNK N   1      20.440  12.733   9.731  0.00  0.00    -0.393 OA
HETATM   31  H   UNK N   1      19.791  12.262  10.276  0.00  0.00     0.210 HD
ENDBRANCH  28  30
ENDBRANCH  27  28
BRANCH  27  32
HETATM   32  C   UNK N   1      23.456  12.344  10.366  0.00  0.00     0.240 C 
HETATM   33  O   UNK N   1      24.671  12.379  10.467  0.00  0.00    -0.271 OA
HETATM   34  N   UNK N   1      22.756  11.445  11.087  0.00  0.00    -0.368 N 
HETATM   35  H   UNK N   1      21.831  11.643  11.358  0.00  0.00     0.159 HD
HETATM   36  H   UNK N   1      23.171  10.590  11.343  0.00  0.00     0.159 HD
ENDBRANCH  27  32
ENDBRANCH  25  27
ENDBRANCH   7  23
TORSDOF 10
ENDMDL
MODEL 4
REMARK VINA RESULT:      -5.9     13.559     17.048
REMARK  10 active torsions:
REMARK  status: ('A' for Active; 'I' for Inactive)
REMARK    1  A    between atoms: C_2  and  C_3 
REMARK    2  A    between atoms: C_2  and  O_29 
REMARK    3  A    between atoms: C_3  and  C_4 
REMARK    4  A    between atoms: C_3  and  N_28 
REMARK       I    between atoms: C_4  and  N_6 
REMARK    5  A    between atoms: C_10  and  C_11 
REMARK       I    between atoms: C_11  and  N_13 
REMARK    6  A    between atoms: C_17  and  C_18 
REMARK       I    between atoms: C_18  and  N_20 
REMARK    7  A    between atoms: C_21  and  N_20 
REMARK    8  A    between atoms: C_21  and  C_22 
REMARK    9  A    between atoms: C_21  and  C_25 
REMARK   10  A    between atoms: C_22  and  O_24 
REMARK       I    between atoms: C_25  and  N_27 
ROOT
HETATM    1  C   UNK N   1      28.673  26.121  -5.345  0.00  0.00     0.243 C 
HETATM    2  O   UNK N   1      28.859  25.604  -6.436  0.00  0.00    -0.271 OA
HETATM    3  N   UNK N   1      27.401  26.446  -4.961  0.00  0.00    -0.337 N 
HETATM    4  C   UNK N   1      27.102  27.207  -3.782  0.00  0.00     0.127 C 
HETATM    5  C   UNK N   1      25.653  27.643  -3.971  0.00  0.00     0.022 C 
HETATM    6  C   UNK N   1      25.293  27.276  -5.415  0.00  0.00     0.037 C 
HETATM    7  C   UNK N   1      26.261  26.164  -5.788  0.00  0.00     0.179 C 
ENDROOT
BRANCH   1   8
HETATM    8  C   UNK N   1      29.864  26.389  -4.434  0.00  0.00     0.179 C 
HETATM    9  C   UNK N   1      30.583  27.655  -4.874  0.00  0.00     0.037 C 
HETATM   10  C   UNK N   1      32.070  27.344  -4.823  0.00  0.00     0.022 C 
HETATM   11  C   UNK N   1      32.183  25.833  -4.824  0.00  0.00     0.127 C 
HETATM   12  N   UNK N   1      30.878  25.351  -4.469  0.00  0.00    -0.337 N 
HETATM   13  C   UNK N   1      30.617  24.038  -4.144  0.00  0.00     0.245 C 
HETATM   14  O   UNK N   1      29.477  23.714  -3.841  0.00  0.00    -0.271 OA
BRANCH  13  15
HETATM   15  C   UNK N   1      31.674  22.935  -4.121  0.00  0.00     0.196 C 
BRANCH  15  16
HETATM   16  C   UNK N   1      31.517  21.967  -2.944  0.00  0.00     0.145 C 
HETATM   17  C   UNK N   1      32.845  21.295  -2.636  0.00  0.00     0.042 C 
BRANCH  16  18
HETATM   18  O   UNK N   1      31.088  22.638  -1.799  0.00  0.00    -0.393 OA
HETATM   19  H   UNK N   1      30.599  23.474  -1.843  0.00  0.00     0.210 HD
ENDBRANCH  16  18
ENDBRANCH  15  16
BRANCH  15  20
HETATM   20  N   UNK N   1      31.811  22.205  -5.373  0.00  0.00    -0.416 N 
HETATM   21  H   UNK N   1      32.167  22.644  -6.223  0.00  0.00     0.150 HD
HETATM   22  H   UNK N   1      31.542  21.222  -5.402  0.00  0.00     0.150 HD
ENDBRANCH  15  20
ENDBRANCH  13  15
ENDBRANCH   1   8
BRANCH   7  23
HETATM   23  C   UNK N   1      25.674  24.819  -5.383  0.00  0.00     0.241 C 
HETATM   24  O   UNK N   1      25.193  24.676  -4.268  0.00  0.00    -0.271 OA
HETATM   25  N   UNK N   1      25.715  23.750  -6.215  0.00  0.00    -0.344 N 
HETATM   26  H   UNK N   1      25.303  22.906  -5.920  0.00  0.00     0.163 HD
BRANCH  25  27
HETATM   27  C   UNK N   1      26.337  23.797  -7.515  0.00  0.00     0.204 C 
BRANCH  27  28
HETATM   28  C   UNK N   1      27.393  22.683  -7.618  0.00  0.00     0.146 C 
HETATM   29  C   UNK N   1      28.170  22.698  -8.925  0.00  0.00     0.042 C 
BRANCH  28  30
HETATM   30  O   UNK N   1      28.270  22.734  -6.534  0.00  0.00    -0.393 OA
HETATM   31  H   UNK N   1      28.389  22.278  -5.686  0.00  0.00     0.210 HD
ENDBRANCH  28  30
ENDBRANCH  27  28
BRANCH  27  32
HETATM   32  C   UNK N   1      25.280  23.790  -8.591  0.00  0.00     0.240 C 
HETATM   33  O   UNK N   1      24.402  22.944  -8.560  0.00  0.00    -0.271 OA
HETATM   34  N   UNK N   1      25.281  24.708  -9.579  0.00  0.00    -0.368 N 
HETATM   35  H   UNK N   1      25.669  25.599  -9.425  0.00  0.00     0.159 HD
HETATM   36  H   UNK N   1      24.892  24.487 -10.456  0.00  0.00     0.159 HD
ENDBRANCH  27  32
ENDBRANCH  25  27
ENDBRANCH   7  23
TORSDOF 10
ENDMDL
MODEL 5
REMARK VINA RESULT:      -5.9      2.492      7.607
REMARK  10 active torsions:
REMARK  status: ('A' for Active; 'I' for Inactive)
REMARK    1  A    between atoms: C_2  and  C_3 
REMARK    2  A    between atoms: C_2  and  O_29 
REMARK    3  A    between atoms: C_3  and  C_4 
REMARK    4  A    between atoms: C_3  and  N_28 
REMARK       I    between atoms: C_4  and  N_6 
REMARK    5  A    between atoms: C_10  and  C_11 
REMARK       I    between atoms: C_11  and  N_13 
REMARK    6  A    between atoms: C_17  and  C_18 
REMARK       I    between atoms: C_18  and  N_20 
REMARK    7  A    between atoms: C_21  and  N_20 
REMARK    8  A    between atoms: C_21  and  C_22 
REMARK    9  A    between atoms: C_21  and  C_25 
REMARK   10  A    between atoms: C_22  and  O_24 
REMARK       I    between atoms: C_25  and  N_27 
ROOT
HETATM    1  C   UNK N   1      31.432  16.894   8.682  0.00  0.00     0.243 C 
HETATM    2  O   UNK N   1      31.054  15.933   9.335  0.00  0.00    -0.271 OA
HETATM    3  N   UNK N   1      32.772  17.136   8.554  0.00  0.00    -0.337 N 
HETATM    4  C   UNK N   1      33.306  18.327   7.956  0.00  0.00     0.127 C 
HETATM    5  C   UNK N   1      34.771  18.338   8.378  0.00  0.00     0.022 C 
HETATM    6  C   UNK N   1      34.911  17.225   9.423  0.00  0.00     0.037 C 
HETATM    7  C   UNK N   1      33.761  16.272   9.135  0.00  0.00     0.179 C 
ENDROOT
BRANCH   1   8
HETATM    8  C   UNK N   1      30.401  17.797   8.019  0.00  0.00     0.179 C 
HETATM    9  C   UNK N   1      29.566  18.501   9.079  0.00  0.00     0.037 C 
HETATM   10  C   UNK N   1      28.123  18.426   8.608  0.00  0.00     0.022 C 
HETATM   11  C   UNK N   1      28.074  17.317   7.577  0.00  0.00     0.127 C 
HETATM   12  N   UNK N   1      29.439  17.089   7.194  0.00  0.00    -0.337 N 
HETATM   13  C   UNK N   1      29.806  16.313   6.116  0.00  0.00     0.245 C 
HETATM   14  O   UNK N   1      30.993  16.182   5.852  0.00  0.00    -0.271 OA
BRANCH  13  15
HETATM   15  C   UNK N   1      28.814  15.599   5.199  0.00  0.00     0.196 C 
BRANCH  15  16
HETATM   16  C   UNK N   1      28.602  16.314   3.860  0.00  0.00     0.145 C 
HETATM   17  C   UNK N   1      27.361  17.188   3.922  0.00  0.00     0.042 C 
BRANCH  16  18
HETATM   18  O   UNK N   1      29.695  17.122   3.547  0.00  0.00    -0.393 OA
HETATM   19  H   UNK N   1      29.809  18.007   3.925  0.00  0.00     0.210 HD
ENDBRANCH  16  18
ENDBRANCH  15  16
BRANCH  15  20
HETATM   20  N   UNK N   1      29.096  14.187   4.990  0.00  0.00    -0.416 N 
HETATM   21  H   UNK N   1      28.439  13.565   4.517  0.00  0.00     0.150 HD
HETATM   22  H   UNK N   1      29.979  13.805   5.327  0.00  0.00     0.150 HD
ENDBRANCH  15  20
ENDBRANCH  13  15
ENDBRANCH   1   8
BRANCH   7  23
HETATM   23  C   UNK N   1      34.195  15.245   8.099  0.00  0.00     0.241 C 
HETATM   24  O   UNK N   1      33.910  15.411   6.922  0.00  0.00    -0.271 OA
HETATM   25  N   UNK N   1      34.854  14.116   8.456  0.00  0.00    -0.344 N 
HETATM   26  H   UNK N   1      35.135  13.491   7.750  0.00  0.00     0.163 HD
BRANCH  25  27
HETATM   27  C   UNK N   1      35.160  13.792   9.827  0.00  0.00     0.204 C 
BRANCH  27  28
HETATM   28  C   UNK N   1      34.573  12.412  10.170  0.00  0.00     0.146 C 
HETATM   29  C   UNK N   1      35.316  11.255   9.521  0.00  0.00     0.042 C 
BRANCH  28  30
HETATM   30  O   UNK N   1      34.513  12.233  11.552  0.00  0.00    -0.393 OA
HETATM   31  H   UNK N   1      35.134  12.183  12.296  0.00  0.00     0.210 HD
ENDBRANCH  28  30
ENDBRANCH  27  28
BRANCH  27  32
HETATM   32  C   UNK N   1      36.641  13.947  10.074  0.00  0.00     0.240 C 
HETATM   33  O   UNK N   1      37.383  14.166   9.131  0.00  0.00    -0.271 OA
HETATM   34  N   UNK N   1      37.156  13.859  11.317  0.00  0.00    -0.368 N 
HETATM   35  H   UNK N   1      36.607  14.101  12.097  0.00  0.00     0.159 HD
HETATM   36  H   UNK N   1      38.083  13.553  11.444  0.00  0.00     0.159 HD
ENDBRANCH  27  32
ENDBRANCH  25  27
ENDBRANCH   7  23
TORSDOF 10
ENDMDL
MODEL 6
REMARK VINA RESULT:      -5.8      2.121      7.225
REMARK  10 active torsions:
REMARK  status: ('A' for Active; 'I' for Inactive)
REMARK    1  A    between atoms: C_2  and  C_3 
REMARK    2  A    between atoms: C_2  and  O_29 
REMARK    3  A    between atoms: C_3  and  C_4 
REMARK    4  A    between atoms: C_3  and  N_28 
REMARK       I    between atoms: C_4  and  N_6 
REMARK    5  A    between atoms: C_10  and  C_11 
REMARK       I    between atoms: C_11  and  N_13 
REMARK    6  A    between atoms: C_17  and  C_18 
REMARK       I    between atoms: C_18  and  N_20 
REMARK    7  A    between atoms: C_21  and  N_20 
REMARK    8  A    between atoms: C_21  and  C_22 
REMARK    9  A    between atoms: C_21  and  C_25 
REMARK   10  A    between atoms: C_22  and  O_24 
REMARK       I    between atoms: C_25  and  N_27 
ROOT
HETATM    1  C   UNK N   1      33.564  15.132   6.218  0.00  0.00     0.243 C 
HETATM    2  O   UNK N   1      34.176  16.080   6.685  0.00  0.00    -0.271 OA
HETATM    3  N   UNK N   1      33.667  13.905   6.813  0.00  0.00    -0.337 N 
HETATM    4  C   UNK N   1      33.127  12.703   6.243  0.00  0.00     0.127 C 
HETATM    5  C   UNK N   1      33.802  11.579   7.022  0.00  0.00     0.022 C 
HETATM    6  C   UNK N   1      34.898  12.251   7.857  0.00  0.00     0.037 C 
HETATM    7  C   UNK N   1      34.448  13.698   8.000  0.00  0.00     0.179 C 
ENDROOT
BRANCH   1   8
HETATM    8  C   UNK N   1      32.694  15.340   4.985  0.00  0.00     0.179 C 
HETATM    9  C   UNK N   1      33.557  15.749   3.801  0.00  0.00     0.037 C 
HETATM   10  C   UNK N   1      32.822  16.883   3.105  0.00  0.00     0.022 C 
HETATM   11  C   UNK N   1      31.829  17.421   4.115  0.00  0.00     0.127 C 
HETATM   12  N   UNK N   1      31.719  16.406   5.124  0.00  0.00    -0.337 N 
HETATM   13  C   UNK N   1      30.751  16.412   6.105  0.00  0.00     0.245 C 
HETATM   14  O   UNK N   1      30.722  15.500   6.919  0.00  0.00    -0.271 OA
BRANCH  13  15
HETATM   15  C   UNK N   1      29.680  17.493   6.243  0.00  0.00     0.196 C 
BRANCH  15  16
HETATM   16  C   UNK N   1      28.353  17.123   5.573  0.00  0.00     0.145 C 
HETATM   17  C   UNK N   1      28.153  17.949   4.313  0.00  0.00     0.042 C 
BRANCH  16  18
HETATM   18  O   UNK N   1      28.330  15.773   5.223  0.00  0.00    -0.393 OA
HETATM   19  H   UNK N   1      29.139  15.247   5.135  0.00  0.00     0.210 HD
ENDBRANCH  16  18
ENDBRANCH  15  16
BRANCH  15  20
HETATM   20  N   UNK N   1      29.458  17.950   7.608  0.00  0.00    -0.416 N 
HETATM   21  H   UNK N   1      29.400  18.940   7.847  0.00  0.00     0.150 HD
HETATM   22  H   UNK N   1      29.356  17.257   8.348  0.00  0.00     0.150 HD
ENDBRANCH  15  20
ENDBRANCH  13  15
ENDBRANCH   1   8
BRANCH   7  23
HETATM   23  C   UNK N   1      33.546  13.833   9.219  0.00  0.00     0.241 C 
HETATM   24  O   UNK N   1      32.331  13.818   9.081  0.00  0.00    -0.271 OA
HETATM   25  N   UNK N   1      34.057  14.022  10.459  0.00  0.00    -0.344 N 
HETATM   26  H   UNK N   1      33.437  14.082  11.221  0.00  0.00     0.163 HD
BRANCH  25  27
HETATM   27  C   UNK N   1      35.472  14.138  10.710  0.00  0.00     0.204 C 
BRANCH  27  28
HETATM   28  C   UNK N   1      35.956  15.533  10.277  0.00  0.00     0.146 C 
HETATM   29  C   UNK N   1      35.109  16.670  10.825  0.00  0.00     0.042 C 
BRANCH  28  30
HETATM   30  O   UNK N   1      37.295  15.718  10.622  0.00  0.00    -0.393 OA
HETATM   31  H   UNK N   1      37.819  15.813  11.433  0.00  0.00     0.210 HD
ENDBRANCH  28  30
ENDBRANCH  27  28
BRANCH  27  32
HETATM   32  C   UNK N   1      35.773  13.763  12.140  0.00  0.00     0.240 C 
HETATM   33  O   UNK N   1      34.851  13.605  12.923  0.00  0.00    -0.271 OA
HETATM   34  N   UNK N   1      37.041  13.587  12.566  0.00  0.00    -0.368 N 
HETATM   35  H   UNK N   1      37.737  13.294  11.935  0.00  0.00     0.159 HD
HETATM   36  H   UNK N   1      37.270  13.751  13.509  0.00  0.00     0.159 HD
ENDBRANCH  27  32
ENDBRANCH  25  27
ENDBRANCH   7  23
TORSDOF 10
ENDMDL
MODEL 7
REMARK VINA RESULT:      -5.6      2.363      6.927
REMARK  10 active torsions:
REMARK  status: ('A' for Active; 'I' for Inactive)
REMARK    1  A    between atoms: C_2  and  C_3 
REMARK    2  A    between atoms: C_2  and  O_29 
REMARK    3  A    between atoms: C_3  and  C_4 
REMARK    4  A    between atoms: C_3  and  N_28 
REMARK       I    between atoms: C_4  and  N_6 
REMARK    5  A    between atoms: C_10  and  C_11 
REMARK       I    between atoms: C_11  and  N_13 
REMARK    6  A    between atoms: C_17  and  C_18 
REMARK       I    between atoms: C_18  and  N_20 
REMARK    7  A    between atoms: C_21  and  N_20 
REMARK    8  A    between atoms: C_21  and  C_22 
REMARK    9  A    between atoms: C_21  and  C_25 
REMARK   10  A    between atoms: C_22  and  O_24 
REMARK       I    between atoms: C_25  and  N_27 
ROOT
HETATM    1  C   UNK N   1      34.752  13.391   7.730  0.00  0.00     0.243 C 
HETATM    2  O   UNK N   1      35.239  14.322   8.354  0.00  0.00    -0.271 OA
HETATM    3  N   UNK N   1      34.925  12.113   8.183  0.00  0.00    -0.337 N 
HETATM    4  C   UNK N   1      34.542  10.951   7.433  0.00  0.00     0.127 C 
HETATM    5  C   UNK N   1      35.261   9.799   8.127  0.00  0.00     0.022 C 
HETATM    6  C   UNK N   1      36.227  10.451   9.123  0.00  0.00     0.037 C 
HETATM    7  C   UNK N   1      35.636  11.825   9.397  0.00  0.00     0.179 C 
ENDROOT
BRANCH   1   8
HETATM    8  C   UNK N   1      33.957  13.678   6.464  0.00  0.00     0.179 C 
HETATM    9  C   UNK N   1      34.903  13.961   5.307  0.00  0.00     0.037 C 
HETATM   10  C   UNK N   1      34.332  15.160   4.568  0.00  0.00     0.022 C 
HETATM   11  C   UNK N   1      33.375  15.831   5.533  0.00  0.00     0.127 C 
HETATM   12  N   UNK N   1      33.111  14.855   6.552  0.00  0.00    -0.337 N 
HETATM   13  C   UNK N   1      32.117  14.993   7.496  0.00  0.00     0.245 C 
HETATM   14  O   UNK N   1      31.951  14.106   8.322  0.00  0.00    -0.271 OA
BRANCH  13  15
HETATM   15  C   UNK N   1      31.178  16.195   7.580  0.00  0.00     0.196 C 
BRANCH  15  16
HETATM   16  C   UNK N   1      31.828  17.431   8.211  0.00  0.00     0.145 C 
HETATM   17  C   UNK N   1      30.771  18.301   8.871  0.00  0.00     0.042 C 
BRANCH  16  18
HETATM   18  O   UNK N   1      32.764  17.064   9.178  0.00  0.00    -0.393 OA
HETATM   19  H   UNK N   1      33.549  16.538   8.965  0.00  0.00     0.210 HD
ENDBRANCH  16  18
ENDBRANCH  15  16
BRANCH  15  20
HETATM   20  N   UNK N   1      30.527  16.541   6.324  0.00  0.00    -0.416 N 
HETATM   21  H   UNK N   1      31.042  16.932   5.534  0.00  0.00     0.150 HD
HETATM   22  H   UNK N   1      29.524  16.386   6.231  0.00  0.00     0.150 HD
ENDBRANCH  15  20
ENDBRANCH  13  15
ENDBRANCH   1   8
BRANCH   7  23
HETATM   23  C   UNK N   1      34.641  11.732  10.546  0.00  0.00     0.241 C 
HETATM   24  O   UNK N   1      33.796  10.849  10.547  0.00  0.00    -0.271 OA
HETATM   25  N   UNK N   1      34.635  12.640  11.551  0.00  0.00    -0.344 N 
HETATM   26  H   UNK N   1      33.988  12.528  12.284  0.00  0.00     0.163 HD
BRANCH  25  27
HETATM   27  C   UNK N   1      35.537  13.765  11.592  0.00  0.00     0.204 C 
BRANCH  27  28
HETATM   28  C   UNK N   1      34.725  15.070  11.664  0.00  0.00     0.146 C 
HETATM   29  C   UNK N   1      35.482  16.288  11.157  0.00  0.00     0.042 C 
BRANCH  28  30
HETATM   30  O   UNK N   1      33.516  14.935  10.982  0.00  0.00    -0.393 OA
HETATM   31  H   UNK N   1      33.191  15.034  10.073  0.00  0.00     0.210 HD
ENDBRANCH  28  30
ENDBRANCH  27  28
BRANCH  27  32
HETATM   32  C   UNK N   1      36.551  13.570  12.692  0.00  0.00     0.240 C 
HETATM   33  O   UNK N   1      36.404  14.158  13.750  0.00  0.00    -0.271 OA
HETATM   34  N   UNK N   1      37.609  12.750  12.531  0.00  0.00    -0.368 N 
HETATM   35  H   UNK N   1      37.549  11.980  11.921  0.00  0.00     0.159 HD
HETATM   36  H   UNK N   1      38.443  12.920  13.025  0.00  0.00     0.159 HD
ENDBRANCH  27  32
ENDBRANCH  25  27
ENDBRANCH   7  23
TORSDOF 10
ENDMDL
MODEL 8
REMARK VINA RESULT:      -5.5      2.808      7.506
REMARK  10 active torsions:
REMARK  status: ('A' for Active; 'I' for Inactive)
REMARK    1  A    between atoms: C_2  and  C_3 
REMARK    2  A    between atoms: C_2  and  O_29 
REMARK    3  A    between atoms: C_3  and  C_4 
REMARK    4  A    between atoms: C_3  and  N_28 
REMARK       I    between atoms: C_4  and  N_6 
REMARK    5  A    between atoms: C_10  and  C_11 
REMARK       I    between atoms: C_11  and  N_13 
REMARK    6  A    between atoms: C_17  and  C_18 
REMARK       I    between atoms: C_18  and  N_20 
REMARK    7  A    between atoms: C_21  and  N_20 
REMARK    8  A    between atoms: C_21  and  C_22 
REMARK    9  A    between atoms: C_21  and  C_25 
REMARK   10  A    between atoms: C_22  and  O_24 
REMARK       I    between atoms: C_25  and  N_27 
ROOT
HETATM    1  C   UNK N   1      32.717  15.489   8.931  0.00  0.00     0.243 C 
HETATM    2  O   UNK N   1      32.039  14.492   9.128  0.00  0.00    -0.271 OA
HETATM    3  N   UNK N   1      33.898  15.643   9.603  0.00  0.00    -0.337 N 
HETATM    4  C   UNK N   1      34.675  16.850   9.569  0.00  0.00     0.127 C 
HETATM    5  C   UNK N   1      35.651  16.704  10.731  0.00  0.00     0.022 C 
HETATM    6  C   UNK N   1      35.183  15.475  11.517  0.00  0.00     0.037 C 
HETATM    7  C   UNK N   1      34.391  14.649  10.514  0.00  0.00     0.179 C 
ENDROOT
BRANCH   1   8
HETATM    8  C   UNK N   1      32.234  16.535   7.936  0.00  0.00     0.179 C 
HETATM    9  C   UNK N   1      31.057  17.304   8.518  0.00  0.00     0.037 C 
HETATM   10  C   UNK N   1      30.031  17.427   7.403  0.00  0.00     0.022 C 
HETATM   11  C   UNK N   1      30.390  16.365   6.384  0.00  0.00     0.127 C 
HETATM   12  N   UNK N   1      31.738  15.980   6.690  0.00  0.00    -0.337 N 
HETATM   13  C   UNK N   1      32.511  15.198   5.860  0.00  0.00     0.245 C 
HETATM   14  O   UNK N   1      33.657  14.926   6.192  0.00  0.00    -0.271 OA
BRANCH  13  15
HETATM   15  C   UNK N   1      32.034  14.643   4.518  0.00  0.00     0.196 C 
BRANCH  15  16
HETATM   16  C   UNK N   1      32.792  15.221   3.318  0.00  0.00     0.145 C 
HETATM   17  C   UNK N   1      32.650  16.733   3.287  0.00  0.00     0.042 C 
BRANCH  16  18
HETATM   18  O   UNK N   1      34.149  14.906   3.386  0.00  0.00    -0.393 OA
HETATM   19  H   UNK N   1      34.710  15.192   4.123  0.00  0.00     0.210 HD
ENDBRANCH  16  18
ENDBRANCH  15  16
BRANCH  15  20
HETATM   20  N   UNK N   1      31.991  13.189   4.448  0.00  0.00    -0.416 N 
HETATM   21  H   UNK N   1      31.165  12.685   4.123  0.00  0.00     0.150 HD
HETATM   22  H   UNK N   1      32.812  12.658   4.734  0.00  0.00     0.150 HD
ENDBRANCH  15  20
ENDBRANCH  13  15
ENDBRANCH   1   8
BRANCH   7  23
HETATM   23  C   UNK N   1      35.333  13.714   9.767  0.00  0.00     0.241 C 
HETATM   24  O   UNK N   1      35.633  13.953   8.606  0.00  0.00    -0.271 OA
HETATM   25  N   UNK N   1      35.814  12.586  10.344  0.00  0.00    -0.344 N 
HETATM   26  H   UNK N   1      36.438  12.024   9.831  0.00  0.00     0.163 HD
BRANCH  25  27
HETATM   27  C   UNK N   1      35.451  12.176  11.678  0.00  0.00     0.204 C 
BRANCH  27  28
HETATM   28  C   UNK N   1      34.589  10.904  11.605  0.00  0.00     0.146 C 
HETATM   29  C   UNK N   1      34.053  10.453  12.955  0.00  0.00     0.042 C 
BRANCH  28  30
HETATM   30  O   UNK N   1      33.540  11.071  10.700  0.00  0.00    -0.393 OA
HETATM   31  H   UNK N   1      33.185  10.613   9.923  0.00  0.00     0.210 HD
ENDBRANCH  28  30
ENDBRANCH  27  28
BRANCH  27  32
HETATM   32  C   UNK N   1      36.686  12.075  12.539  0.00  0.00     0.240 C 
HETATM   33  O   UNK N   1      37.427  11.116  12.408  0.00  0.00    -0.271 OA
HETATM   34  N   UNK N   1      36.991  13.030  13.440  0.00  0.00    -0.368 N 
HETATM   35  H   UNK N   1      36.696  13.958  13.295  0.00  0.00     0.159 HD
HETATM   36  H   UNK N   1      37.509  12.800  14.244  0.00  0.00     0.159 HD
ENDBRANCH  27  32
ENDBRANCH  25  27
ENDBRANCH   7  23
TORSDOF 10
ENDMDL
MODEL 9
REMARK VINA RESULT:      -5.5      2.927      4.434
REMARK  10 active torsions:
REMARK  status: ('A' for Active; 'I' for Inactive)
REMARK    1  A    between atoms: C_2  and  C_3 
REMARK    2  A    between atoms: C_2  and  O_29 
REMARK    3  A    between atoms: C_3  and  C_4 
REMARK    4  A    between atoms: C_3  and  N_28 
REMARK       I    between atoms: C_4  and  N_6 
REMARK    5  A    between atoms: C_10  and  C_11 
REMARK       I    between atoms: C_11  and  N_13 
REMARK    6  A    between atoms: C_17  and  C_18 
REMARK       I    between atoms: C_18  and  N_20 
REMARK    7  A    between atoms: C_21  and  N_20 
REMARK    8  A    between atoms: C_21  and  C_22 
REMARK    9  A    between atoms: C_21  and  C_25 
REMARK   10  A    between atoms: C_22  and  O_24 
REMARK       I    between atoms: C_25  and  N_27 
ROOT
HETATM    1  C   UNK N   1      35.765  14.521   8.792  0.00  0.00     0.243 C 
HETATM    2  O   UNK N   1      35.729  13.607   7.983  0.00  0.00    -0.271 OA
HETATM    3  N   UNK N   1      34.985  15.626   8.596  0.00  0.00    -0.337 N 
HETATM    4  C   UNK N   1      35.086  16.817   9.392  0.00  0.00     0.127 C 
HETATM    5  C   UNK N   1      34.337  17.874   8.588  0.00  0.00     0.022 C 
HETATM    6  C   UNK N   1      34.051  17.235   7.224  0.00  0.00     0.037 C 
HETATM    7  C   UNK N   1      34.087  15.736   7.480  0.00  0.00     0.179 C 
ENDROOT
BRANCH   1   8
HETATM    8  C   UNK N   1      36.678  14.406  10.006  0.00  0.00     0.179 C 
HETATM    9  C   UNK N   1      38.127  14.291   9.560  0.00  0.00     0.037 C 
HETATM   10  C   UNK N   1      38.755  13.201  10.414  0.00  0.00     0.022 C 
HETATM   11  C   UNK N   1      37.602  12.398  10.982  0.00  0.00     0.127 C 
HETATM   12  N   UNK N   1      36.440  13.223  10.814  0.00  0.00    -0.337 N 
HETATM   13  C   UNK N   1      35.224  12.950  11.400  0.00  0.00     0.245 C 
HETATM   14  O   UNK N   1      34.287  13.714  11.214  0.00  0.00    -0.271 OA
BRANCH  13  15
HETATM   15  C   UNK N   1      34.958  11.742  12.297  0.00  0.00     0.196 C 
BRANCH  15  16
HETATM   16  C   UNK N   1      34.793  12.108  13.776  0.00  0.00     0.145 C 
HETATM   17  C   UNK N   1      35.876  11.440  14.606  0.00  0.00     0.042 C 
BRANCH  16  18
HETATM   18  O   UNK N   1      34.882  13.487  13.962  0.00  0.00    -0.393 OA
HETATM   19  H   UNK N   1      35.349  13.878  14.716  0.00  0.00     0.210 HD
ENDBRANCH  16  18
ENDBRANCH  15  16
BRANCH  15  20
HETATM   20  N   UNK N   1      33.865  10.890  11.852  0.00  0.00    -0.416 N 
HETATM   21  H   UNK N   1      33.828  10.500  10.910  0.00  0.00     0.150 HD
HETATM   22  H   UNK N   1      33.111  10.676  12.504  0.00  0.00     0.150 HD
ENDBRANCH  15  20
ENDBRANCH  13  15
ENDBRANCH   1   8
BRANCH   7  23
HETATM   23  C   UNK N   1      32.706  15.257   7.905  0.00  0.00     0.241 C 
HETATM   24  O   UNK N   1      32.439  15.146   9.093  0.00  0.00    -0.271 OA
HETATM   25  N   UNK N   1      31.770  14.900   6.992  0.00  0.00    -0.344 N 
HETATM   26  H   UNK N   1      30.883  14.618   7.312  0.00  0.00     0.163 HD
BRANCH  25  27
HETATM   27  C   UNK N   1      32.019  14.916   5.572  0.00  0.00     0.204 C 
BRANCH  27  28
HETATM   28  C   UNK N   1      31.806  13.504   4.999  0.00  0.00     0.146 C 
HETATM   29  C   UNK N   1      32.825  12.487   5.487  0.00  0.00     0.042 C 
BRANCH  28  30
HETATM   30  O   UNK N   1      30.511  13.056   5.265  0.00  0.00    -0.393 OA
HETATM   31  H   UNK N   1      30.035  12.211   5.282  0.00  0.00     0.210 HD
ENDBRANCH  28  30
ENDBRANCH  27  28
BRANCH  27  32
HETATM   32  C   UNK N   1      31.210  16.010   4.920  0.00  0.00     0.240 C 
HETATM   33  O   UNK N   1      29.992  15.957   4.962  0.00  0.00    -0.271 OA
HETATM   34  N   UNK N   1      31.807  17.050   4.304  0.00  0.00    -0.368 N 
HETATM   35  H   UNK N   1      32.699  17.349   4.593  0.00  0.00     0.159 HD
HETATM   36  H   UNK N   1      31.351  17.511   3.564  0.00  0.00     0.159 HD
ENDBRANCH  27  32
ENDBRANCH  25  27
ENDBRANCH   7  23
TORSDOF 10
ENDMDL
