MODEL 1
REMARK VINA RESULT:      -7.6      0.000      0.000
REMARK  9 active torsions:
REMARK  status: ('A' for Active; 'I' for Inactive)
REMARK    1  A    between atoms: C_2  and  C_3 
REMARK    2  A    between atoms: C_3  and  C_4 
REMARK    3  A    between atoms: C_4  and  C_5 
REMARK    4  A    between atoms: C_4  and  N_11 
REMARK    5  A    between atoms: N_11  and  C_12 
REMARK    6  A    between atoms: C_13  and  C_18 
REMARK    7  A    between atoms: C_18  and  C_19 
REMARK    8  A    between atoms: C_23  and  C_26 
REMARK    9  A    between atoms: C_24  and  O_25 
REMARK       I    between atoms: C_26  and  N_28 
ROOT
HETATM    1  C   UNK N   1      28.475  18.684   5.940  0.00  0.00     0.094 A 
HETATM    2  C   UNK N   1      28.993  17.862   6.868  0.00  0.00     0.031 A 
HETATM    3  C   UNK N   1      28.371  18.669   7.945  0.00  0.00     0.233 A 
HETATM    4  O   UNK N   1      28.339  18.674   9.162  0.00  0.00    -0.283 OA
HETATM    5  C   UNK N   1      27.807  19.519   6.943  0.00  0.00     0.249 A 
HETATM    6  O   UNK N   1      27.039  20.467   6.951  0.00  0.00    -0.282 OA
ENDROOT
BRANCH   2   7
HETATM    7  C   UNK N   1      29.831  16.604   6.786  0.00  0.00     0.086 C 
BRANCH   7   8
HETATM    8  C   UNK N   1      31.245  17.077   6.693  0.00  0.00    -0.019 A 
HETATM    9  C   UNK N   1      31.862  17.139   5.446  0.00  0.00     0.010 A 
HETATM   10  C   UNK N   1      33.224  17.393   5.365  0.00  0.00     0.002 A 
HETATM   11  C   UNK N   1      33.982  17.479   6.531  0.00  0.00     0.020 A 
HETATM   12  C   UNK N   1      33.404  17.397   7.816  0.00  0.00     0.065 A 
HETATM   13  C   UNK N   1      31.984  17.276   7.874  0.00  0.00     0.088 A 
BRANCH  12  14
HETATM   14  C   UNK N   1      34.397  17.372   8.975  0.00  0.00     0.255 C 
HETATM   15  O   UNK N   1      35.144  18.347   9.051  0.00  0.00    -0.267 OA
HETATM   16  N   UNK N   1      34.613  16.350   9.878  0.00  0.00    -0.357 N 
HETATM   17  C   UNK N   1      35.677  16.472  10.841  0.00  0.00     0.152 C 
HETATM   18  C   UNK N   1      33.918  15.096   9.896  0.00  0.00     0.152 C 
ENDBRANCH  12  14
BRANCH  13  19
HETATM   19  O   UNK N   1      31.308  17.323   9.024  0.00  0.00    -0.359 OA
HETATM   20  H   UNK N   1      31.394  17.069   9.921  0.00  0.00     0.217 HD
ENDBRANCH  13  19
ENDBRANCH   7   8
ENDBRANCH   2   7
BRANCH   1  21
HETATM   21  N   UNK N   1      28.582  18.687   4.527  0.00  0.00    -0.375 N 
HETATM   22  H   UNK N   1      29.303  19.223   4.124  0.00  0.00     0.160 HD
BRANCH  21  23
HETATM   23  C   UNK N   1      27.703  17.954   3.631  0.00  0.00     0.139 C 
BRANCH  23  24
HETATM   24  C   UNK N   1      27.770  16.419   3.798  0.00  0.00     0.031 C 
BRANCH  24  25
HETATM   25  C   UNK N   1      28.733  15.748   2.816  0.00  0.00    -0.002 C 
HETATM   26  C   UNK N   1      29.615  14.754   3.543  0.00  0.00     0.005 C 
ENDBRANCH  24  25
ENDBRANCH  23  24
BRANCH  23  27
HETATM   27  C   UNK N   1      26.310  18.462   3.840  0.00  0.00     0.076 A 
HETATM   28  C   UNK N   1      25.859  19.720   3.483  0.00  0.00     0.037 A 
HETATM   29  C   UNK N   1      24.545  19.780   3.915  0.00  0.00     0.035 A 
HETATM   30  C   UNK N   1      24.294  18.556   4.504  0.00  0.00     0.049 A 
HETATM   31  O   UNK N   1      25.355  17.797   4.443  0.00  0.00    -0.318 OA
HETATM   32  C   UNK N   1      23.017  18.148   5.143  0.00  0.00     0.076 C 
ENDBRANCH  23  27
ENDBRANCH  21  23
ENDBRANCH   1  21
TORSDOF 9
ENDMDL
MODEL 2
REMARK VINA RESULT:      -7.3      1.012      2.952
REMARK  9 active torsions:
REMARK  status: ('A' for Active; 'I' for Inactive)
REMARK    1  A    between atoms: C_2  and  C_3 
REMARK    2  A    between atoms: C_3  and  C_4 
REMARK    3  A    between atoms: C_4  and  C_5 
REMARK    4  A    between atoms: C_4  and  N_11 
REMARK    5  A    between atoms: N_11  and  C_12 
REMARK    6  A    between atoms: C_13  and  C_18 
REMARK    7  A    between atoms: C_18  and  C_19 
REMARK    8  A    between atoms: C_23  and  C_26 
REMARK    9  A    between atoms: C_24  and  O_25 
REMARK       I    between atoms: C_26  and  N_28 
ROOT
HETATM    1  C   UNK N   1      28.218  18.548   6.159  0.00  0.00     0.094 A 
HETATM    2  C   UNK N   1      28.997  17.869   7.018  0.00  0.00     0.031 A 
HETATM    3  C   UNK N   1      28.647  18.818   8.102  0.00  0.00     0.233 A 
HETATM    4  O   UNK N   1      28.937  18.997   9.270  0.00  0.00    -0.283 OA
HETATM    5  C   UNK N   1      27.804  19.515   7.180  0.00  0.00     0.249 A 
HETATM    6  O   UNK N   1      27.026  20.451   7.263  0.00  0.00    -0.282 OA
ENDROOT
BRANCH   2   7
HETATM    7  C   UNK N   1      29.835  16.615   6.887  0.00  0.00     0.086 C 
BRANCH   7   8
HETATM    8  C   UNK N   1      31.248  17.093   6.794  0.00  0.00    -0.019 A 
HETATM    9  C   UNK N   1      31.842  17.222   5.542  0.00  0.00     0.010 A 
HETATM   10  C   UNK N   1      33.203  17.481   5.450  0.00  0.00     0.002 A 
HETATM   11  C   UNK N   1      33.982  17.504   6.605  0.00  0.00     0.020 A 
HETATM   12  C   UNK N   1      33.426  17.355   7.894  0.00  0.00     0.065 A 
HETATM   13  C   UNK N   1      32.008  17.230   7.971  0.00  0.00     0.088 A 
BRANCH  12  14
HETATM   14  C   UNK N   1      34.440  17.268   9.031  0.00  0.00     0.255 C 
HETATM   15  O   UNK N   1      35.173  18.249   9.161  0.00  0.00    -0.267 OA
HETATM   16  N   UNK N   1      34.688  16.192   9.861  0.00  0.00    -0.357 N 
HETATM   17  C   UNK N   1      35.767  16.267  10.812  0.00  0.00     0.152 C 
HETATM   18  C   UNK N   1      34.012  14.928   9.806  0.00  0.00     0.152 C 
ENDBRANCH  12  14
BRANCH  13  19
HETATM   19  O   UNK N   1      31.352  17.215   9.133  0.00  0.00    -0.359 OA
HETATM   20  H   UNK N   1      31.391  17.598   9.988  0.00  0.00     0.217 HD
ENDBRANCH  13  19
ENDBRANCH   7   8
ENDBRANCH   2   7
BRANCH   1  21
HETATM   21  N   UNK N   1      27.948  18.350   4.782  0.00  0.00    -0.375 N 
HETATM   22  H   UNK N   1      28.454  18.892   4.134  0.00  0.00     0.160 HD
BRANCH  21  23
HETATM   23  C   UNK N   1      26.978  17.402   4.259  0.00  0.00     0.139 C 
BRANCH  23  24
HETATM   24  C   UNK N   1      25.895  18.041   3.361  0.00  0.00     0.031 C 
BRANCH  24  25
HETATM   25  C   UNK N   1      25.424  19.407   3.864  0.00  0.00    -0.002 C 
HETATM   26  C   UNK N   1      25.849  20.496   2.901  0.00  0.00     0.005 C 
ENDBRANCH  24  25
ENDBRANCH  23  24
BRANCH  23  27
HETATM   27  C   UNK N   1      27.729  16.334   3.527  0.00  0.00     0.076 A 
HETATM   28  C   UNK N   1      29.031  16.444   3.073  0.00  0.00     0.037 A 
HETATM   29  C   UNK N   1      29.293  15.260   2.405  0.00  0.00     0.035 A 
HETATM   30  C   UNK N   1      28.132  14.518   2.499  0.00  0.00     0.049 A 
HETATM   31  O   UNK N   1      27.226  15.178   3.169  0.00  0.00    -0.318 OA
HETATM   32  C   UNK N   1      27.914  13.172   1.911  0.00  0.00     0.076 C 
ENDBRANCH  23  27
ENDBRANCH  21  23
ENDBRANCH   1  21
TORSDOF 9
ENDMDL
MODEL 3
REMARK VINA RESULT:      -7.1      2.560      9.343
REMARK  9 active torsions:
REMARK  status: ('A' for Active; 'I' for Inactive)
REMARK    1  A    between atoms: C_2  and  C_3 
REMARK    2  A    between atoms: C_3  and  C_4 
REMARK    3  A    between atoms: C_4  and  C_5 
REMARK    4  A    between atoms: C_4  and  N_11 
REMARK    5  A    between atoms: N_11  and  C_12 
REMARK    6  A    between atoms: C_13  and  C_18 
REMARK    7  A    between atoms: C_18  and  C_19 
REMARK    8  A    between atoms: C_23  and  C_26 
REMARK    9  A    between atoms: C_24  and  O_25 
REMARK       I    between atoms: C_26  and  N_28 
ROOT
HETATM    1  C   UNK N   1      33.778  16.065   9.656  0.00  0.00     0.094 A 
HETATM    2  C   UNK N   1      33.173  16.458   8.521  0.00  0.00     0.031 A 
HETATM    3  C   UNK N   1      34.123  17.589   8.394  0.00  0.00     0.233 A 
HETATM    4  O   UNK N   1      34.308  18.530   7.645  0.00  0.00    -0.283 OA
HETATM    5  C   UNK N   1      34.769  17.142   9.590  0.00  0.00     0.249 A 
HETATM    6  O   UNK N   1      35.763  17.483  10.210  0.00  0.00    -0.282 OA
ENDROOT
BRANCH   2   7
HETATM    7  C   UNK N   1      32.018  15.901   7.716  0.00  0.00     0.086 C 
BRANCH   7   8
HETATM    8  C   UNK N   1      30.952  16.946   7.782  0.00  0.00    -0.019 A 
HETATM    9  C   UNK N   1      30.793  17.683   8.953  0.00  0.00     0.010 A 
HETATM   10  C   UNK N   1      29.693  18.519   9.095  0.00  0.00     0.002 A 
HETATM   11  C   UNK N   1      28.704  18.533   8.113  0.00  0.00     0.020 A 
HETATM   12  C   UNK N   1      28.811  17.784   6.922  0.00  0.00     0.065 A 
HETATM   13  C   UNK N   1      30.016  17.042   6.736  0.00  0.00     0.088 A 
BRANCH  12  14
HETATM   14  C   UNK N   1      27.577  17.811   6.025  0.00  0.00     0.255 C 
HETATM   15  O   UNK N   1      26.833  16.836   6.122  0.00  0.00    -0.267 OA
HETATM   16  N   UNK N   1      27.253  18.748   5.063  0.00  0.00    -0.357 N 
HETATM   17  C   UNK N   1      26.090  18.541   4.239  0.00  0.00     0.152 C 
HETATM   18  C   UNK N   1      28.038  19.901   4.729  0.00  0.00     0.152 C 
ENDBRANCH  12  14
BRANCH  13  19
HETATM   19  O   UNK N   1      30.294  16.402   5.599  0.00  0.00    -0.359 OA
HETATM   20  H   UNK N   1      29.877  16.124   4.807  0.00  0.00     0.217 HD
ENDBRANCH  13  19
ENDBRANCH   7   8
ENDBRANCH   2   7
BRANCH   1  21
HETATM   21  N   UNK N   1      33.499  14.996  10.542  0.00  0.00    -0.375 N 
HETATM   22  H   UNK N   1      32.672  15.046  11.075  0.00  0.00     0.160 HD
BRANCH  21  23
HETATM   23  C   UNK N   1      34.348  13.829  10.722  0.00  0.00     0.139 C 
BRANCH  23  24
HETATM   24  C   UNK N   1      35.406  13.643   9.612  0.00  0.00     0.031 C 
BRANCH  24  25
HETATM   25  C   UNK N   1      34.903  12.801   8.437  0.00  0.00    -0.002 C 
HETATM   26  C   UNK N   1      35.100  13.547   7.134  0.00  0.00     0.005 C 
ENDBRANCH  24  25
ENDBRANCH  23  24
BRANCH  23  27
HETATM   27  C   UNK N   1      34.990  13.934  12.071  0.00  0.00     0.076 A 
HETATM   28  C   UNK N   1      36.068  14.744  12.380  0.00  0.00     0.037 A 
HETATM   29  C   UNK N   1      36.365  14.477  13.705  0.00  0.00     0.035 A 
HETATM   30  C   UNK N   1      35.450  13.524  14.105  0.00  0.00     0.049 A 
HETATM   31  O   UNK N   1      34.648  13.224  13.118  0.00  0.00    -0.318 OA
HETATM   32  C   UNK N   1      35.381  12.898  15.449  0.00  0.00     0.076 C 
ENDBRANCH  23  27
ENDBRANCH  21  23
ENDBRANCH   1  21
TORSDOF 9
ENDMDL
MODEL 4
REMARK VINA RESULT:      -6.9      6.120     10.604
REMARK  9 active torsions:
REMARK  status: ('A' for Active; 'I' for Inactive)
REMARK    1  A    between atoms: C_2  and  C_3 
REMARK    2  A    between atoms: C_3  and  C_4 
REMARK    3  A    between atoms: C_4  and  C_5 
REMARK    4  A    between atoms: C_4  and  N_11 
REMARK    5  A    between atoms: N_11  and  C_12 
REMARK    6  A    between atoms: C_13  and  C_18 
REMARK    7  A    between atoms: C_18  and  C_19 
REMARK    8  A    between atoms: C_23  and  C_26 
REMARK    9  A    between atoms: C_24  and  O_25 
REMARK       I    between atoms: C_26  and  N_28 
ROOT
HETATM    1  C   UNK N   1      22.027  19.475   3.453  0.00  0.00     0.094 A 
HETATM    2  C   UNK N   1      20.871  19.504   2.768  0.00  0.00     0.031 A 
HETATM    3  C   UNK N   1      21.437  20.507   1.834  0.00  0.00     0.233 A 
HETATM    4  O   UNK N   1      21.064  21.154   0.873  0.00  0.00    -0.283 OA
HETATM    5  C   UNK N   1      22.668  20.445   2.560  0.00  0.00     0.249 A 
HETATM    6  O   UNK N   1      23.776  20.936   2.420  0.00  0.00    -0.282 OA
ENDROOT
BRANCH   2   7
HETATM    7  C   UNK N   1      19.564  18.755   2.911  0.00  0.00     0.086 C 
BRANCH   7   8
HETATM    8  C   UNK N   1      19.875  17.343   2.534  0.00  0.00    -0.019 A 
HETATM    9  C   UNK N   1      20.075  17.024   1.194  0.00  0.00     0.010 A 
HETATM   10  C   UNK N   1      20.176  15.693   0.811  0.00  0.00     0.002 A 
HETATM   11  C   UNK N   1      19.973  14.686   1.752  0.00  0.00     0.020 A 
HETATM   12  C   UNK N   1      19.743  14.962   3.117  0.00  0.00     0.065 A 
HETATM   13  C   UNK N   1      19.783  16.333   3.509  0.00  0.00     0.088 A 
BRANCH  12  14
HETATM   14  C   UNK N   1      19.404  13.748   3.977  0.00  0.00     0.255 C 
HETATM   15  O   UNK N   1      18.406  13.866   4.686  0.00  0.00    -0.267 OA
HETATM   16  N   UNK N   1      20.133  12.583   4.117  0.00  0.00    -0.357 N 
HETATM   17  C   UNK N   1      19.701  11.589   5.065  0.00  0.00     0.152 C 
HETATM   18  C   UNK N   1      21.373  12.294   3.456  0.00  0.00     0.152 C 
ENDBRANCH  12  14
BRANCH  13  19
HETATM   19  O   UNK N   1      19.713  16.714   4.787  0.00  0.00    -0.359 OA
HETATM   20  H   UNK N   1      19.872  16.382   5.648  0.00  0.00     0.217 HD
ENDBRANCH  13  19
ENDBRANCH   7   8
ENDBRANCH   2   7
BRANCH   1  21
HETATM   21  N   UNK N   1      22.412  18.753   4.610  0.00  0.00    -0.375 N 
HETATM   22  H   UNK N   1      21.897  18.904   5.436  0.00  0.00     0.160 HD
BRANCH  21  23
HETATM   23  C   UNK N   1      23.512  17.805   4.663  0.00  0.00     0.139 C 
BRANCH  23  24
HETATM   24  C   UNK N   1      23.419  16.672   3.617  0.00  0.00     0.031 C 
BRANCH  24  25
HETATM   25  C   UNK N   1      23.200  15.292   4.242  0.00  0.00    -0.002 C 
HETATM   26  C   UNK N   1      23.196  15.395   5.753  0.00  0.00     0.005 C 
ENDBRANCH  24  25
ENDBRANCH  23  24
BRANCH  23  27
HETATM   27  C   UNK N   1      24.788  18.576   4.516  0.00  0.00     0.076 A 
HETATM   28  C   UNK N   1      25.764  18.326   3.569  0.00  0.00     0.037 A 
HETATM   29  C   UNK N   1      26.782  19.226   3.839  0.00  0.00     0.035 A 
HETATM   30  C   UNK N   1      26.352  19.953   4.931  0.00  0.00     0.049 A 
HETATM   31  O   UNK N   1      25.169  19.548   5.308  0.00  0.00    -0.318 OA
HETATM   32  C   UNK N   1      27.115  21.030   5.610  0.00  0.00     0.076 C 
ENDBRANCH  23  27
ENDBRANCH  21  23
ENDBRANCH   1  21
TORSDOF 9
ENDMDL
MODEL 5
REMARK VINA RESULT:      -6.7     11.485     14.989
REMARK  9 active torsions:
REMARK  status: ('A' for Active; 'I' for Inactive)
REMARK    1  A    between atoms: C_2  and  C_3 
REMARK    2  A    between atoms: C_3  and  C_4 
REMARK    3  A    between atoms: C_4  and  C_5 
REMARK    4  A    between atoms: C_4  and  N_11 
REMARK    5  A    between atoms: N_11  and  C_12 
REMARK    6  A    between atoms: C_13  and  C_18 
REMARK    7  A    between atoms: C_18  and  C_19 
REMARK    8  A    between atoms: C_23  and  C_26 
REMARK    9  A    between atoms: C_24  and  O_25 
REMARK       I    between atoms: C_26  and  N_28 
ROOT
HETATM    1  C   UNK N   1      27.488  22.753  -7.006  0.00  0.00     0.094 A 
HETATM    2  C   UNK N   1      26.292  23.178  -6.564  0.00  0.00     0.031 A 
HETATM    3  C   UNK N   1      25.698  22.929  -7.899  0.00  0.00     0.233 A 
HETATM    4  O   UNK N   1      24.619  23.068  -8.444  0.00  0.00    -0.283 OA
HETATM    5  C   UNK N   1      26.972  22.456  -8.345  0.00  0.00     0.249 A 
HETATM    6  O   UNK N   1      27.391  21.953  -9.375  0.00  0.00    -0.282 OA
ENDROOT
BRANCH   2   7
HETATM    7  C   UNK N   1      25.798  23.662  -5.217  0.00  0.00     0.086 C 
BRANCH   7   8
HETATM    8  C   UNK N   1      25.846  25.154  -5.293  0.00  0.00    -0.019 A 
HETATM    9  C   UNK N   1      25.565  25.783  -6.502  0.00  0.00     0.010 A 
HETATM   10  C   UNK N   1      25.789  27.147  -6.635  0.00  0.00     0.002 A 
HETATM   11  C   UNK N   1      26.391  27.854  -5.596  0.00  0.00     0.020 A 
HETATM   12  C   UNK N   1      26.715  27.252  -4.361  0.00  0.00     0.065 A 
HETATM   13  C   UNK N   1      26.347  25.884  -4.199  0.00  0.00     0.088 A 
BRANCH  12  14
HETATM   14  C   UNK N   1      27.492  28.138  -3.392  0.00  0.00     0.255 C 
HETATM   15  O   UNK N   1      26.804  28.823  -2.636  0.00  0.00    -0.267 OA
HETATM   16  N   UNK N   1      28.859  28.325  -3.331  0.00  0.00    -0.357 N 
HETATM   17  C   UNK N   1      29.399  29.291  -2.409  0.00  0.00     0.152 C 
HETATM   18  C   UNK N   1      29.823  27.697  -4.188  0.00  0.00     0.152 C 
ENDBRANCH  12  14
BRANCH  13  19
HETATM   19  O   UNK N   1      26.479  25.240  -3.037  0.00  0.00    -0.359 OA
HETATM   20  H   UNK N   1      26.906  25.329  -2.208  0.00  0.00     0.217 HD
ENDBRANCH  13  19
ENDBRANCH   7   8
ENDBRANCH   2   7
BRANCH   1  21
HETATM   21  N   UNK N   1      28.746  22.660  -6.360  0.00  0.00    -0.375 N 
HETATM   22  H   UNK N   1      29.234  23.497  -6.185  0.00  0.00     0.160 HD
BRANCH  21  23
HETATM   23  C   UNK N   1      29.367  21.415  -5.938  0.00  0.00     0.139 C 
BRANCH  23  24
HETATM   24  C   UNK N   1      30.192  20.717  -7.043  0.00  0.00     0.031 C 
BRANCH  24  25
HETATM   25  C   UNK N   1      29.533  19.440  -7.571  0.00  0.00    -0.002 C 
HETATM   26  C   UNK N   1      29.759  19.311  -9.063  0.00  0.00     0.005 C 
ENDBRANCH  24  25
ENDBRANCH  23  24
BRANCH  23  27
HETATM   27  C   UNK N   1      30.209  21.708  -4.735  0.00  0.00     0.076 A 
HETATM   28  C   UNK N   1      29.972  22.722  -3.826  0.00  0.00     0.037 A 
HETATM   29  C   UNK N   1      31.023  22.666  -2.925  0.00  0.00     0.035 A 
HETATM   30  C   UNK N   1      31.821  21.624  -3.354  0.00  0.00     0.049 A 
HETATM   31  O   UNK N   1      31.314  21.075  -4.425  0.00  0.00    -0.318 OA
HETATM   32  C   UNK N   1      33.090  21.188  -2.719  0.00  0.00     0.076 C 
ENDBRANCH  23  27
ENDBRANCH  21  23
ENDBRANCH   1  21
TORSDOF 9
ENDMDL
MODEL 6
REMARK VINA RESULT:      -6.7      9.665     13.881
REMARK  9 active torsions:
REMARK  status: ('A' for Active; 'I' for Inactive)
REMARK    1  A    between atoms: C_2  and  C_3 
REMARK    2  A    between atoms: C_3  and  C_4 
REMARK    3  A    between atoms: C_4  and  C_5 
REMARK    4  A    between atoms: C_4  and  N_11 
REMARK    5  A    between atoms: N_11  and  C_12 
REMARK    6  A    between atoms: C_13  and  C_18 
REMARK    7  A    between atoms: C_18  and  C_19 
REMARK    8  A    between atoms: C_23  and  C_26 
REMARK    9  A    between atoms: C_24  and  O_25 
REMARK       I    between atoms: C_26  and  N_28 
ROOT
HETATM    1  C   UNK N   1      36.683  14.268  15.456  0.00  0.00     0.094 A 
HETATM    2  C   UNK N   1      35.916  13.932  16.507  0.00  0.00     0.031 A 
HETATM    3  C   UNK N   1      36.465  15.070  17.284  0.00  0.00     0.233 A 
HETATM    4  O   UNK N   1      36.353  15.533  18.404  0.00  0.00    -0.283 OA
HETATM    5  C   UNK N   1      37.255  15.427  16.146  0.00  0.00     0.249 A 
HETATM    6  O   UNK N   1      38.006  16.351  15.875  0.00  0.00    -0.282 OA
ENDROOT
BRANCH   2   7
HETATM    7  C   UNK N   1      34.887  12.846  16.734  0.00  0.00     0.086 C 
BRANCH   7   8
HETATM    8  C   UNK N   1      35.623  11.744  17.424  0.00  0.00    -0.019 A 
HETATM    9  C   UNK N   1      36.164  10.708  16.666  0.00  0.00     0.010 A 
HETATM   10  C   UNK N   1      36.683   9.589  17.303  0.00  0.00     0.002 A 
HETATM   11  C   UNK N   1      36.561   9.461  18.686  0.00  0.00     0.020 A 
HETATM   12  C   UNK N   1      35.998  10.474  19.491  0.00  0.00     0.065 A 
HETATM   13  C   UNK N   1      35.601  11.674  18.829  0.00  0.00     0.088 A 
BRANCH  12  14
HETATM   14  C   UNK N   1      35.819  10.109  20.962  0.00  0.00     0.255 C 
HETATM   15  O   UNK N   1      36.845  10.140  21.642  0.00  0.00    -0.267 OA
HETATM   16  N   UNK N   1      34.671   9.665  21.588  0.00  0.00    -0.357 N 
HETATM   17  C   UNK N   1      34.729   9.267  22.970  0.00  0.00     0.152 C 
HETATM   18  C   UNK N   1      33.402   9.467  20.950  0.00  0.00     0.152 C 
ENDBRANCH  12  14
BRANCH  13  19
HETATM   19  O   UNK N   1      35.179  12.752  19.493  0.00  0.00    -0.359 OA
HETATM   20  H   UNK N   1      35.230  13.141  20.344  0.00  0.00     0.217 HD
ENDBRANCH  13  19
ENDBRANCH   7   8
ENDBRANCH   2   7
BRANCH   1  21
HETATM   21  N   UNK N   1      36.836  13.670  14.181  0.00  0.00    -0.375 N 
HETATM   22  H   UNK N   1      37.746  13.422  13.897  0.00  0.00     0.160 HD
BRANCH  21  23
HETATM   23  C   UNK N   1      35.744  13.397  13.260  0.00  0.00     0.139 C 
BRANCH  23  24
HETATM   24  C   UNK N   1      35.957  13.972  11.842  0.00  0.00     0.031 C 
BRANCH  24  25
HETATM   25  C   UNK N   1      34.974  15.092  11.492  0.00  0.00    -0.002 C 
HETATM   26  C   UNK N   1      35.709  16.261  10.869  0.00  0.00     0.005 C 
ENDBRANCH  24  25
ENDBRANCH  23  24
BRANCH  23  27
HETATM   27  C   UNK N   1      35.539  11.915  13.220  0.00  0.00     0.076 A 
HETATM   28  C   UNK N   1      34.332  11.272  13.427  0.00  0.00     0.037 A 
HETATM   29  C   UNK N   1      34.617   9.918  13.362  0.00  0.00     0.035 A 
HETATM   30  C   UNK N   1      35.974   9.837  13.122  0.00  0.00     0.049 A 
HETATM   31  O   UNK N   1      36.492  11.033  13.041  0.00  0.00    -0.318 OA
HETATM   32  C   UNK N   1      36.758   8.583  12.995  0.00  0.00     0.076 C 
ENDBRANCH  23  27
ENDBRANCH  21  23
ENDBRANCH   1  21
TORSDOF 9
ENDMDL
MODEL 7
REMARK VINA RESULT:      -6.7      2.232      4.089
REMARK  9 active torsions:
REMARK  status: ('A' for Active; 'I' for Inactive)
REMARK    1  A    between atoms: C_2  and  C_3 
REMARK    2  A    between atoms: C_3  and  C_4 
REMARK    3  A    between atoms: C_4  and  C_5 
REMARK    4  A    between atoms: C_4  and  N_11 
REMARK    5  A    between atoms: N_11  and  C_12 
REMARK    6  A    between atoms: C_13  and  C_18 
REMARK    7  A    between atoms: C_18  and  C_19 
REMARK    8  A    between atoms: C_23  and  C_26 
REMARK    9  A    between atoms: C_24  and  O_25 
REMARK       I    between atoms: C_26  and  N_28 
ROOT
HETATM    1  C   UNK N   1      30.346  16.252   5.697  0.00  0.00     0.094 A 
HETATM    2  C   UNK N   1      31.444  16.419   4.938  0.00  0.00     0.031 A 
HETATM    3  C   UNK N   1      31.058  15.254   4.106  0.00  0.00     0.233 A 
HETATM    4  O   UNK N   1      31.510  14.632   3.163  0.00  0.00    -0.283 OA
HETATM    5  C   UNK N   1      29.882  15.107   4.909  0.00  0.00     0.249 A 
HETATM    6  O   UNK N   1      28.900  14.384   4.872  0.00  0.00    -0.282 OA
ENDROOT
BRANCH   2   7
HETATM    7  C   UNK N   1      32.565  17.435   4.948  0.00  0.00     0.086 C 
BRANCH   7   8
HETATM    8  C   UNK N   1      33.684  16.781   5.690  0.00  0.00    -0.019 A 
HETATM    9  C   UNK N   1      34.375  15.730   5.093  0.00  0.00     0.010 A 
HETATM   10  C   UNK N   1      35.285  14.993   5.839  0.00  0.00     0.002 A 
HETATM   11  C   UNK N   1      35.422  15.240   7.203  0.00  0.00     0.020 A 
HETATM   12  C   UNK N   1      34.724  16.279   7.857  0.00  0.00     0.065 A 
HETATM   13  C   UNK N   1      33.902  17.111   7.041  0.00  0.00     0.088 A 
BRANCH  12  14
HETATM   14  C   UNK N   1      34.888  16.317   9.373  0.00  0.00     0.255 C 
HETATM   15  O   UNK N   1      35.340  17.367   9.829  0.00  0.00    -0.267 OA
HETATM   16  N   UNK N   1      34.678  15.289  10.271  0.00  0.00    -0.357 N 
HETATM   17  C   UNK N   1      34.992  15.490  11.662  0.00  0.00     0.152 C 
HETATM   18  C   UNK N   1      34.248  13.963   9.930  0.00  0.00     0.152 C 
ENDBRANCH  12  14
BRANCH  13  19
HETATM   19  O   UNK N   1      33.297  18.203   7.513  0.00  0.00    -0.359 OA
HETATM   20  H   UNK N   1      33.502  19.028   7.906  0.00  0.00     0.217 HD
ENDBRANCH  13  19
ENDBRANCH   7   8
ENDBRANCH   2   7
BRANCH   1  21
HETATM   21  N   UNK N   1      29.877  16.959   6.831  0.00  0.00    -0.375 N 
HETATM   22  H   UNK N   1      30.547  17.295   7.470  0.00  0.00     0.160 HD
BRANCH  21  23
HETATM   23  C   UNK N   1      28.477  17.222   7.120  0.00  0.00     0.139 C 
BRANCH  23  24
HETATM   24  C   UNK N   1      28.155  17.338   8.627  0.00  0.00     0.031 C 
BRANCH  24  25
HETATM   25  C   UNK N   1      29.406  17.387   9.507  0.00  0.00    -0.002 C 
HETATM   26  C   UNK N   1      29.735  18.819   9.873  0.00  0.00     0.005 C 
ENDBRANCH  24  25
ENDBRANCH  23  24
BRANCH  23  27
HETATM   27  C   UNK N   1      28.083  18.464   6.383  0.00  0.00     0.076 A 
HETATM   28  C   UNK N   1      28.109  18.618   5.009  0.00  0.00     0.037 A 
HETATM   29  C   UNK N   1      27.731  19.929   4.775  0.00  0.00     0.035 A 
HETATM   30  C   UNK N   1      27.506  20.477   6.021  0.00  0.00     0.049 A 
HETATM   31  O   UNK N   1      27.720  19.587   6.953  0.00  0.00    -0.318 OA
HETATM   32  C   UNK N   1      27.101  21.880   6.291  0.00  0.00     0.076 C 
ENDBRANCH  23  27
ENDBRANCH  21  23
ENDBRANCH   1  21
TORSDOF 9
ENDMDL
MODEL 8
REMARK VINA RESULT:      -6.6      2.038      3.164
REMARK  9 active torsions:
REMARK  status: ('A' for Active; 'I' for Inactive)
REMARK    1  A    between atoms: C_2  and  C_3 
REMARK    2  A    between atoms: C_3  and  C_4 
REMARK    3  A    between atoms: C_4  and  C_5 
REMARK    4  A    between atoms: C_4  and  N_11 
REMARK    5  A    between atoms: N_11  and  C_12 
REMARK    6  A    between atoms: C_13  and  C_18 
REMARK    7  A    between atoms: C_18  and  C_19 
REMARK    8  A    between atoms: C_23  and  C_26 
REMARK    9  A    between atoms: C_24  and  O_25 
REMARK       I    between atoms: C_26  and  N_28 
ROOT
HETATM    1  C   UNK N   1      29.178  15.838   4.692  0.00  0.00     0.094 A 
HETATM    2  C   UNK N   1      29.904  15.942   5.819  0.00  0.00     0.031 A 
HETATM    3  C   UNK N   1      30.452  14.581   5.602  0.00  0.00     0.233 A 
HETATM    4  O   UNK N   1      31.199  13.810   6.175  0.00  0.00    -0.283 OA
HETATM    5  C   UNK N   1      29.691  14.499   4.393  0.00  0.00     0.249 A 
HETATM    6  O   UNK N   1      29.599  13.686   3.488  0.00  0.00    -0.282 OA
ENDROOT
BRANCH   2   7
HETATM    7  C   UNK N   1      30.087  17.047   6.836  0.00  0.00     0.086 C 
BRANCH   7   8
HETATM    8  C   UNK N   1      31.556  17.314   6.869  0.00  0.00    -0.019 A 
HETATM    9  C   UNK N   1      32.273  17.321   5.676  0.00  0.00     0.010 A 
HETATM   10  C   UNK N   1      33.660  17.379   5.708  0.00  0.00     0.002 A 
HETATM   11  C   UNK N   1      34.327  17.323   6.930  0.00  0.00     0.020 A 
HETATM   12  C   UNK N   1      33.642  17.290   8.164  0.00  0.00     0.065 A 
HETATM   13  C   UNK N   1      32.219  17.373   8.109  0.00  0.00     0.088 A 
BRANCH  12  14
HETATM   14  C   UNK N   1      34.525  17.090   9.392  0.00  0.00     0.255 C 
HETATM   15  O   UNK N   1      35.323  17.998   9.621  0.00  0.00    -0.267 OA
HETATM   16  N   UNK N   1      34.595  15.979  10.209  0.00  0.00    -0.357 N 
HETATM   17  C   UNK N   1      35.575  15.938  11.263  0.00  0.00     0.152 C 
HETATM   18  C   UNK N   1      33.821  14.781  10.050  0.00  0.00     0.152 C 
ENDBRANCH  12  14
BRANCH  13  19
HETATM   19  O   UNK N   1      31.466  17.484   9.206  0.00  0.00    -0.359 OA
HETATM   20  H   UNK N   1      30.730  17.078   9.620  0.00  0.00     0.217 HD
ENDBRANCH  13  19
ENDBRANCH   7   8
ENDBRANCH   2   7
BRANCH   1  21
HETATM   21  N   UNK N   1      28.266  16.734   4.082  0.00  0.00    -0.375 N 
HETATM   22  H   UNK N   1      28.585  17.259   3.311  0.00  0.00     0.160 HD
BRANCH  21  23
HETATM   23  C   UNK N   1      26.892  16.936   4.514  0.00  0.00     0.139 C 
BRANCH  23  24
HETATM   24  C   UNK N   1      26.537  16.221   5.836  0.00  0.00     0.031 C 
BRANCH  24  25
HETATM   25  C   UNK N   1      25.562  15.056   5.648  0.00  0.00    -0.002 C 
HETATM   26  C   UNK N   1      24.866  14.737   6.955  0.00  0.00     0.005 C 
ENDBRANCH  24  25
ENDBRANCH  23  24
BRANCH  23  27
HETATM   27  C   UNK N   1      26.655  18.411   4.614  0.00  0.00     0.076 A 
HETATM   28  C   UNK N   1      26.050  19.188   3.643  0.00  0.00     0.037 A 
HETATM   29  C   UNK N   1      26.099  20.486   4.122  0.00  0.00     0.035 A 
HETATM   30  C   UNK N   1      26.732  20.404   5.347  0.00  0.00     0.049 A 
HETATM   31  O   UNK N   1      27.047  19.165   5.611  0.00  0.00    -0.318 OA
HETATM   32  C   UNK N   1      27.041  21.548   6.240  0.00  0.00     0.076 C 
ENDBRANCH  23  27
ENDBRANCH  21  23
ENDBRANCH   1  21
TORSDOF 9
ENDMDL
MODEL 9
REMARK VINA RESULT:      -6.6      5.211      9.370
REMARK  9 active torsions:
REMARK  status: ('A' for Active; 'I' for Inactive)
REMARK    1  A    between atoms: C_2  and  C_3 
REMARK    2  A    between atoms: C_3  and  C_4 
REMARK    3  A    between atoms: C_4  and  C_5 
REMARK    4  A    between atoms: C_4  and  N_11 
REMARK    5  A    between atoms: N_11  and  C_12 
REMARK    6  A    between atoms: C_13  and  C_18 
REMARK    7  A    between atoms: C_18  and  C_19 
REMARK    8  A    between atoms: C_23  and  C_26 
REMARK    9  A    between atoms: C_24  and  O_25 
REMARK       I    between atoms: C_26  and  N_28 
ROOT
HETATM    1  C   UNK N   1      34.299  15.487  10.125  0.00  0.00     0.094 A 
HETATM    2  C   UNK N   1      33.689  16.369   9.313  0.00  0.00     0.031 A 
HETATM    3  C   UNK N   1      34.836  17.299   9.445  0.00  0.00     0.233 A 
HETATM    4  O   UNK N   1      35.142  18.412   9.057  0.00  0.00    -0.283 OA
HETATM    5  C   UNK N   1      35.481  16.339  10.287  0.00  0.00     0.249 A 
HETATM    6  O   UNK N   1      36.575  16.260  10.821  0.00  0.00    -0.282 OA
ENDROOT
BRANCH   2   7
HETATM    7  C   UNK N   1      32.378  16.346   8.558  0.00  0.00     0.086 C 
BRANCH   7   8
HETATM    8  C   UNK N   1      32.753  16.200   7.119  0.00  0.00    -0.019 A 
HETATM    9  C   UNK N   1      33.169  17.322   6.408  0.00  0.00     0.010 A 
HETATM   10  C   UNK N   1      33.338  17.239   5.032  0.00  0.00     0.002 A 
HETATM   11  C   UNK N   1      32.990  16.069   4.361  0.00  0.00     0.020 A 
HETATM   12  C   UNK N   1      32.541  14.914   5.039  0.00  0.00     0.065 A 
HETATM   13  C   UNK N   1      32.509  14.979   6.463  0.00  0.00     0.088 A 
BRANCH  12  14
HETATM   14  C   UNK N   1      32.073  13.774   4.139  0.00  0.00     0.255 C 
HETATM   15  O   UNK N   1      30.942  13.902   3.671  0.00  0.00    -0.267 OA
HETATM   16  N   UNK N   1      32.729  12.589   3.870  0.00  0.00    -0.357 N 
HETATM   17  C   UNK N   1      32.072  11.584   3.075  0.00  0.00     0.152 C 
HETATM   18  C   UNK N   1      34.007  12.208   4.397  0.00  0.00     0.152 C 
ENDBRANCH  12  14
BRANCH  13  19
HETATM   19  O   UNK N   1      32.231  13.916   7.222  0.00  0.00    -0.359 OA
HETATM   20  H   UNK N   1      32.437  13.557   8.062  0.00  0.00     0.217 HD
ENDBRANCH  13  19
ENDBRANCH   7   8
ENDBRANCH   2   7
BRANCH   1  21
HETATM   21  N   UNK N   1      33.887  14.221  10.609  0.00  0.00    -0.375 N 
HETATM   22  H   UNK N   1      32.941  14.112  10.858  0.00  0.00     0.160 HD
BRANCH  21  23
HETATM   23  C   UNK N   1      34.764  13.072  10.764  0.00  0.00     0.139 C 
BRANCH  23  24
HETATM   24  C   UNK N   1      35.891  12.992   9.709  0.00  0.00     0.031 C 
BRANCH  24  25
HETATM   25  C   UNK N   1      35.372  12.736   8.292  0.00  0.00    -0.002 C 
HETATM   26  C   UNK N   1      35.894  13.794   7.343  0.00  0.00     0.005 C 
ENDBRANCH  24  25
ENDBRANCH  23  24
BRANCH  23  27
HETATM   27  C   UNK N   1      35.322  13.106  12.153  0.00  0.00     0.076 A 
HETATM   28  C   UNK N   1      36.668  13.090  12.471  0.00  0.00     0.037 A 
HETATM   29  C   UNK N   1      36.723  13.068  13.854  0.00  0.00     0.035 A 
HETATM   30  C   UNK N   1      35.408  13.070  14.276  0.00  0.00     0.049 A 
HETATM   31  O   UNK N   1      34.603  13.094  13.248  0.00  0.00    -0.318 OA
HETATM   32  C   UNK N   1      34.951  13.027  15.688  0.00  0.00     0.076 C 
ENDBRANCH  23  27
ENDBRANCH  21  23
ENDBRANCH   1  21
TORSDOF 9
ENDMDL
