MODEL 1
REMARK VINA RESULT:      -7.4      0.000      0.000
REMARK  6 active torsions:
REMARK  status: ('A' for Active; 'I' for Inactive)
REMARK    1  A    between atoms: C_6  and  C_8 
REMARK    2  A    between atoms: C_9  and  C_8 
REMARK    3  A    between atoms: C_11  and  C_16 
REMARK    4  A    between atoms: C_19  and  O_28 
REMARK    5  A    between atoms: C_20  and  O_22 
REMARK    6  A    between atoms: O_22  and  C_23 
ROOT
HETATM    1  C   UNK N   1      30.778  16.047   3.445  0.00  0.00     0.083 C 
HETATM    2  C   UNK N   1      31.883  17.069   3.228  0.00  0.00     0.025 C 
HETATM    3  C   UNK N   1      33.237  16.550   3.709  0.00  0.00     0.037 C 
HETATM    4  C   UNK N   1      33.599  15.223   3.020  0.00  0.00     0.132 C 
HETATM    5  N   UNK N   1      32.487  14.298   2.901  0.00  0.00    -0.360 N 
HETATM    6  C   UNK N   1      31.180  14.634   3.082  0.00  0.00     0.222 C 
HETATM    7  O   UNK N   1      30.324  13.773   2.984  0.00  0.00    -0.273 OA
HETATM    8  H   UNK N   1      32.691  13.362   2.673  0.00  0.00     0.162 HD
ENDROOT
BRANCH   3   9
HETATM    9  C   UNK N   1      33.495  16.602   5.203  0.00  0.00    -0.050 A 
HETATM   10  C   UNK N   1      34.448  15.761   5.787  0.00  0.00     0.010 A 
HETATM   11  C   UNK N   1      34.604  15.722   7.177  0.00  0.00     0.040 A 
HETATM   12  C   UNK N   1      33.791  16.493   8.021  0.00  0.00     0.101 A 
HETATM   13  C   UNK N   1      32.812  17.343   7.438  0.00  0.00     0.103 A 
HETATM   14  C   UNK N   1      32.685  17.378   6.036  0.00  0.00     0.047 A 
BRANCH  12  15
HETATM   15  O   UNK N   1      33.979  16.366   9.363  0.00  0.00    -0.353 OA
HETATM   16  C   UNK N   1      35.080  16.804  10.061  0.00  0.00     0.210 C 
ENDBRANCH  12  15
BRANCH  13  17
HETATM   17  O   UNK N   1      31.985  18.100   8.212  0.00  0.00    -0.343 OA
BRANCH  17  18
HETATM   18  C   UNK N   1      30.745  17.655   8.638  0.00  0.00     0.129 C 
HETATM   19  C   UNK N   1      29.982  18.714   9.383  0.00  0.00     0.032 C 
HETATM   20  C   UNK N   1      28.547  18.214   9.332  0.00  0.00     0.002 C 
HETATM   21  C   UNK N   1      28.456  17.300   8.116  0.00  0.00     0.002 C 
HETATM   22  C   UNK N   1      29.832  17.304   7.486  0.00  0.00     0.032 C 
ENDBRANCH  17  18
ENDBRANCH  13  17
ENDBRANCH   3   9
BRANCH   1  23
HETATM   23  C   UNK N   1      29.420  16.485   2.867  0.00  0.00     0.052 C 
BRANCH  23  24
HETATM   24  C   UNK N   1      28.423  17.124   3.799  0.00  0.00    -0.057 A 
HETATM   25  C   UNK N   1      27.273  16.406   4.153  0.00  0.00     0.007 A 
HETATM   26  C   UNK N   1      26.275  17.005   4.930  0.00  0.00     0.001 A 
HETATM   27  C   UNK N   1      26.421  18.329   5.353  0.00  0.00     0.007 A 
HETATM   28  C   UNK N   1      27.563  19.053   5.001  0.00  0.00    -0.061 A 
HETATM   29  C   UNK N   1      27.716  20.462   5.450  0.00  0.00     0.048 C 
HETATM   30  C   UNK N   1      28.556  18.456   4.216  0.00  0.00     0.013 A 
ENDBRANCH  23  24
ENDBRANCH   1  23
TORSDOF 6
ENDMDL
MODEL 2
REMARK VINA RESULT:      -7.2     12.069     14.221
REMARK  6 active torsions:
REMARK  status: ('A' for Active; 'I' for Inactive)
REMARK    1  A    between atoms: C_6  and  C_8 
REMARK    2  A    between atoms: C_9  and  C_8 
REMARK    3  A    between atoms: C_11  and  C_16 
REMARK    4  A    between atoms: C_19  and  O_28 
REMARK    5  A    between atoms: C_20  and  O_22 
REMARK    6  A    between atoms: O_22  and  C_23 
ROOT
HETATM    1  C   UNK N   1      26.494  23.528  -7.518  0.00  0.00     0.083 C 
HETATM    2  C   UNK N   1      27.772  23.438  -8.339  0.00  0.00     0.025 C 
HETATM    3  C   UNK N   1      28.462  22.087  -8.165  0.00  0.00     0.037 C 
HETATM    4  C   UNK N   1      27.517  20.930  -8.529  0.00  0.00     0.132 C 
HETATM    5  N   UNK N   1      26.160  21.101  -8.040  0.00  0.00    -0.360 N 
HETATM    6  C   UNK N   1      25.649  22.273  -7.573  0.00  0.00     0.222 C 
HETATM    7  O   UNK N   1      24.504  22.303  -7.160  0.00  0.00    -0.273 OA
HETATM    8  H   UNK N   1      25.568  20.314  -8.046  0.00  0.00     0.162 HD
ENDROOT
BRANCH   3   9
HETATM    9  C   UNK N   1      29.273  21.894  -6.897  0.00  0.00    -0.050 A 
HETATM   10  C   UNK N   1      30.169  20.825  -6.786  0.00  0.00     0.010 A 
HETATM   11  C   UNK N   1      30.828  20.575  -5.578  0.00  0.00     0.040 A 
HETATM   12  C   UNK N   1      30.587  21.362  -4.442  0.00  0.00     0.101 A 
HETATM   13  C   UNK N   1      29.671  22.444  -4.542  0.00  0.00     0.103 A 
HETATM   14  C   UNK N   1      29.032  22.686  -5.773  0.00  0.00     0.047 A 
BRANCH  12  15
HETATM   15  O   UNK N   1      31.238  21.026  -3.295  0.00  0.00    -0.353 OA
HETATM   16  C   UNK N   1      32.529  21.380  -2.976  0.00  0.00     0.210 C 
ENDBRANCH  12  15
BRANCH  13  17
HETATM   17  O   UNK N   1      29.388  23.229  -3.466  0.00  0.00    -0.343 OA
BRANCH  17  18
HETATM   18  C   UNK N   1      29.825  24.538  -3.360  0.00  0.00     0.129 C 
HETATM   19  C   UNK N   1      31.179  24.743  -3.980  0.00  0.00     0.032 C 
HETATM   20  C   UNK N   1      31.248  26.248  -4.183  0.00  0.00     0.002 C 
HETATM   21  C   UNK N   1      29.806  26.736  -4.260  0.00  0.00     0.002 C 
HETATM   22  C   UNK N   1      28.940  25.504  -4.114  0.00  0.00     0.032 C 
ENDBRANCH  17  18
ENDBRANCH  13  17
ENDBRANCH   3   9
BRANCH   1  23
HETATM   23  C   UNK N   1      25.707  24.830  -7.756  0.00  0.00     0.052 C 
BRANCH  23  24
HETATM   24  C   UNK N   1      25.999  26.010  -6.865  0.00  0.00    -0.057 A 
HETATM   25  C   UNK N   1      25.187  26.228  -5.745  0.00  0.00     0.007 A 
HETATM   26  C   UNK N   1      25.361  27.371  -4.956  0.00  0.00     0.001 A 
HETATM   27  C   UNK N   1      26.346  28.305  -5.288  0.00  0.00     0.007 A 
HETATM   28  C   UNK N   1      27.157  28.096  -6.405  0.00  0.00    -0.061 A 
HETATM   29  C   UNK N   1      28.204  29.091  -6.759  0.00  0.00     0.048 C 
HETATM   30  C   UNK N   1      26.977  26.958  -7.200  0.00  0.00     0.013 A 
ENDBRANCH  23  24
ENDBRANCH   1  23
TORSDOF 6
ENDMDL
MODEL 3
REMARK VINA RESULT:      -7.2      4.035      8.317
REMARK  6 active torsions:
REMARK  status: ('A' for Active; 'I' for Inactive)
REMARK    1  A    between atoms: C_6  and  C_8 
REMARK    2  A    between atoms: C_9  and  C_8 
REMARK    3  A    between atoms: C_11  and  C_16 
REMARK    4  A    between atoms: C_19  and  O_28 
REMARK    5  A    between atoms: C_20  and  O_22 
REMARK    6  A    between atoms: O_22  and  C_23 
ROOT
HETATM    1  C   UNK N   1      28.281  17.701   5.463  0.00  0.00     0.083 C 
HETATM    2  C   UNK N   1      28.511  18.975   4.664  0.00  0.00     0.025 C 
HETATM    3  C   UNK N   1      27.462  20.039   4.981  0.00  0.00     0.037 C 
HETATM    4  C   UNK N   1      27.430  20.356   6.485  0.00  0.00     0.132 C 
HETATM    5  N   UNK N   1      27.530  19.184   7.337  0.00  0.00    -0.360 N 
HETATM    6  C   UNK N   1      27.921  17.951   6.911  0.00  0.00     0.222 C 
HETATM    7  O   UNK N   1      27.946  17.027   7.704  0.00  0.00    -0.273 OA
HETATM    8  H   UNK N   1      27.300  19.288   8.288  0.00  0.00     0.162 HD
ENDROOT
BRANCH   3   9
HETATM    9  C   UNK N   1      26.106  19.878   4.317  0.00  0.00    -0.050 A 
HETATM   10  C   UNK N   1      25.806  20.577   3.143  0.00  0.00     0.010 A 
HETATM   11  C   UNK N   1      24.519  20.524   2.596  0.00  0.00     0.040 A 
HETATM   12  C   UNK N   1      23.492  19.803   3.223  0.00  0.00     0.101 A 
HETATM   13  C   UNK N   1      23.784  19.097   4.422  0.00  0.00     0.103 A 
HETATM   14  C   UNK N   1      25.091  19.152   4.945  0.00  0.00     0.047 A 
BRANCH  12  15
HETATM   15  O   UNK N   1      22.259  19.837   2.648  0.00  0.00    -0.353 OA
HETATM   16  C   UNK N   1      21.329  20.838   2.808  0.00  0.00     0.210 C 
ENDBRANCH  12  15
BRANCH  13  17
HETATM   17  O   UNK N   1      22.821  18.395   5.080  0.00  0.00    -0.343 OA
BRANCH  17  18
HETATM   18  C   UNK N   1      22.978  17.069   5.441  0.00  0.00     0.129 C 
HETATM   19  C   UNK N   1      21.925  16.610   6.411  0.00  0.00     0.032 C 
HETATM   20  C   UNK N   1      21.982  15.095   6.301  0.00  0.00     0.002 C 
HETATM   21  C   UNK N   1      22.563  14.788   4.926  0.00  0.00     0.002 C 
HETATM   22  C   UNK N   1      22.815  16.128   4.270  0.00  0.00     0.032 C 
ENDBRANCH  17  18
ENDBRANCH  13  17
ENDBRANCH   3   9
BRANCH   1  23
HETATM   23  C   UNK N   1      29.384  16.646   5.260  0.00  0.00     0.052 C 
BRANCH  23  24
HETATM   24  C   UNK N   1      30.815  17.062   5.483  0.00  0.00    -0.057 A 
HETATM   25  C   UNK N   1      31.657  17.208   4.373  0.00  0.00     0.007 A 
HETATM   26  C   UNK N   1      33.017  17.488   4.548  0.00  0.00     0.001 A 
HETATM   27  C   UNK N   1      33.543  17.619   5.836  0.00  0.00     0.007 A 
HETATM   28  C   UNK N   1      32.710  17.472   6.948  0.00  0.00    -0.061 A 
HETATM   29  C   UNK N   1      33.271  17.609   8.318  0.00  0.00     0.048 C 
HETATM   30  C   UNK N   1      31.352  17.182   6.773  0.00  0.00     0.013 A 
ENDBRANCH  23  24
ENDBRANCH   1  23
TORSDOF 6
ENDMDL
MODEL 4
REMARK VINA RESULT:      -7.1      6.165      9.964
REMARK  6 active torsions:
REMARK  status: ('A' for Active; 'I' for Inactive)
REMARK    1  A    between atoms: C_6  and  C_8 
REMARK    2  A    between atoms: C_9  and  C_8 
REMARK    3  A    between atoms: C_11  and  C_16 
REMARK    4  A    between atoms: C_19  and  O_28 
REMARK    5  A    between atoms: C_20  and  O_22 
REMARK    6  A    between atoms: O_22  and  C_23 
ROOT
HETATM    1  C   UNK N   1      20.808  16.430   2.090  0.00  0.00     0.083 C 
HETATM    2  C   UNK N   1      20.600  16.908   3.518  0.00  0.00     0.025 C 
HETATM    3  C   UNK N   1      20.877  18.404   3.660  0.00  0.00     0.037 C 
HETATM    4  C   UNK N   1      20.005  19.224   2.694  0.00  0.00     0.132 C 
HETATM    5  N   UNK N   1      19.892  18.646   1.366  0.00  0.00    -0.360 N 
HETATM    6  C   UNK N   1      20.243  17.370   1.047  0.00  0.00     0.222 C 
HETATM    7  O   UNK N   1      20.134  16.993  -0.105  0.00  0.00    -0.273 OA
HETATM    8  H   UNK N   1      19.538  19.217   0.647  0.00  0.00     0.162 HD
ENDROOT
BRANCH   3   9
HETATM    9  C   UNK N   1      22.333  18.823   3.741  0.00  0.00    -0.050 A 
HETATM   10  C   UNK N   1      22.770  19.991   3.108  0.00  0.00     0.010 A 
HETATM   11  C   UNK N   1      24.131  20.316   3.080  0.00  0.00     0.040 A 
HETATM   12  C   UNK N   1      25.092  19.470   3.652  0.00  0.00     0.101 A 
HETATM   13  C   UNK N   1      24.660  18.275   4.289  0.00  0.00     0.103 A 
HETATM   14  C   UNK N   1      23.284  17.977   4.319  0.00  0.00     0.047 A 
BRANCH  12  15
HETATM   15  O   UNK N   1      26.398  19.839   3.545  0.00  0.00    -0.353 OA
HETATM   16  C   UNK N   1      27.163  20.373   4.556  0.00  0.00     0.210 C 
ENDBRANCH  12  15
BRANCH  13  17
HETATM   17  O   UNK N   1      25.552  17.410   4.845  0.00  0.00    -0.343 OA
BRANCH  17  18
HETATM   18  C   UNK N   1      26.125  16.369   4.136  0.00  0.00     0.129 C 
HETATM   19  C   UNK N   1      25.544  16.227   2.757  0.00  0.00     0.032 C 
HETATM   20  C   UNK N   1      26.587  15.402   2.020  0.00  0.00     0.002 C 
HETATM   21  C   UNK N   1      27.906  15.629   2.750  0.00  0.00     0.002 C 
HETATM   22  C   UNK N   1      27.598  16.588   3.879  0.00  0.00     0.032 C 
ENDBRANCH  17  18
ENDBRANCH  13  17
ENDBRANCH   3   9
BRANCH   1  23
HETATM   23  C   UNK N   1      20.426  14.953   1.879  0.00  0.00     0.052 C 
BRANCH  23  24
HETATM   24  C   UNK N   1      21.477  14.017   1.340  0.00  0.00    -0.057 A 
HETATM   25  C   UNK N   1      22.721  14.541   0.964  0.00  0.00     0.007 A 
HETATM   26  C   UNK N   1      23.682  13.721   0.362  0.00  0.00     0.001 A 
HETATM   27  C   UNK N   1      23.402  12.373   0.128  0.00  0.00     0.007 A 
HETATM   28  C   UNK N   1      22.163  11.843   0.497  0.00  0.00    -0.061 A 
HETATM   29  C   UNK N   1      21.864  10.408   0.246  0.00  0.00     0.048 C 
HETATM   30  C   UNK N   1      21.198  12.665   1.091  0.00  0.00     0.013 A 
ENDBRANCH  23  24
ENDBRANCH   1  23
TORSDOF 6
ENDMDL
MODEL 5
REMARK VINA RESULT:      -6.8      2.584      5.374
REMARK  6 active torsions:
REMARK  status: ('A' for Active; 'I' for Inactive)
REMARK    1  A    between atoms: C_6  and  C_8 
REMARK    2  A    between atoms: C_9  and  C_8 
REMARK    3  A    between atoms: C_11  and  C_16 
REMARK    4  A    between atoms: C_19  and  O_28 
REMARK    5  A    between atoms: C_20  and  O_22 
REMARK    6  A    between atoms: O_22  and  C_23 
ROOT
HETATM    1  C   UNK N   1      27.909  18.841   5.816  0.00  0.00     0.083 C 
HETATM    2  C   UNK N   1      28.080  17.351   6.067  0.00  0.00     0.025 C 
HETATM    3  C   UNK N   1      28.806  17.079   7.383  0.00  0.00     0.037 C 
HETATM    4  C   UNK N   1      28.076  17.735   8.567  0.00  0.00     0.132 C 
HETATM    5  N   UNK N   1      27.590  19.075   8.290  0.00  0.00    -0.360 N 
HETATM    6  C   UNK N   1      27.492  19.619   7.046  0.00  0.00     0.222 C 
HETATM    7  O   UNK N   1      27.095  20.764   6.926  0.00  0.00    -0.273 OA
HETATM    8  H   UNK N   1      27.312  19.628   9.055  0.00  0.00     0.162 HD
ENDROOT
BRANCH   3   9
HETATM    9  C   UNK N   1      30.315  17.241   7.374  0.00  0.00    -0.050 A 
HETATM   10  C   UNK N   1      30.977  17.767   8.489  0.00  0.00     0.010 A 
HETATM   11  C   UNK N   1      32.351  18.030   8.440  0.00  0.00     0.040 A 
HETATM   12  C   UNK N   1      33.092  17.806   7.270  0.00  0.00     0.101 A 
HETATM   13  C   UNK N   1      32.427  17.281   6.128  0.00  0.00     0.103 A 
HETATM   14  C   UNK N   1      31.047  17.010   6.207  0.00  0.00     0.047 A 
BRANCH  12  15
HETATM   15  O   UNK N   1      34.414  18.126   7.293  0.00  0.00    -0.353 OA
HETATM   16  C   UNK N   1      35.097  18.626   8.378  0.00  0.00     0.210 C 
ENDBRANCH  12  15
BRANCH  13  17
HETATM   17  O   UNK N   1      33.095  17.061   4.963  0.00  0.00    -0.343 OA
BRANCH  17  18
HETATM   18  C   UNK N   1      33.218  15.804   4.397  0.00  0.00     0.129 C 
HETATM   19  C   UNK N   1      33.593  15.863   2.943  0.00  0.00     0.032 C 
HETATM   20  C   UNK N   1      34.128  14.468   2.661  0.00  0.00     0.002 C 
HETATM   21  C   UNK N   1      34.597  13.911   4.000  0.00  0.00     0.002 C 
HETATM   22  C   UNK N   1      34.336  14.999   5.019  0.00  0.00     0.032 C 
ENDBRANCH  17  18
ENDBRANCH  13  17
ENDBRANCH   3   9
BRANCH   1  23
HETATM   23  C   UNK N   1      27.078  19.157   4.559  0.00  0.00     0.052 C 
BRANCH  23  24
HETATM   24  C   UNK N   1      25.953  18.222   4.197  0.00  0.00    -0.057 A 
HETATM   25  C   UNK N   1      24.722  18.360   4.851  0.00  0.00     0.007 A 
HETATM   26  C   UNK N   1      23.689  17.445   4.619  0.00  0.00     0.001 A 
HETATM   27  C   UNK N   1      23.884  16.383   3.732  0.00  0.00     0.007 A 
HETATM   28  C   UNK N   1      25.110  16.236   3.078  0.00  0.00    -0.061 A 
HETATM   29  C   UNK N   1      25.318  15.104   2.136  0.00  0.00     0.048 C 
HETATM   30  C   UNK N   1      26.146  17.146   3.318  0.00  0.00     0.013 A 
ENDBRANCH  23  24
ENDBRANCH   1  23
TORSDOF 6
ENDMDL
MODEL 6
REMARK VINA RESULT:      -6.8     10.521     13.767
REMARK  6 active torsions:
REMARK  status: ('A' for Active; 'I' for Inactive)
REMARK    1  A    between atoms: C_6  and  C_8 
REMARK    2  A    between atoms: C_9  and  C_8 
REMARK    3  A    between atoms: C_11  and  C_16 
REMARK    4  A    between atoms: C_19  and  O_28 
REMARK    5  A    between atoms: C_20  and  O_22 
REMARK    6  A    between atoms: O_22  and  C_23 
ROOT
HETATM    1  C   UNK N   1      36.239  13.844  15.655  0.00  0.00     0.083 C 
HETATM    2  C   UNK N   1      34.863  13.401  16.126  0.00  0.00     0.025 C 
HETATM    3  C   UNK N   1      34.823  13.191  17.638  0.00  0.00     0.037 C 
HETATM    4  C   UNK N   1      35.255  14.462  18.387  0.00  0.00     0.132 C 
HETATM    5  N   UNK N   1      36.398  15.136  17.795  0.00  0.00    -0.360 N 
HETATM    6  C   UNK N   1      36.878  14.887  16.546  0.00  0.00     0.222 C 
HETATM    7  O   UNK N   1      37.861  15.490  16.154  0.00  0.00    -0.273 OA
HETATM    8  H   UNK N   1      36.857  15.819  18.334  0.00  0.00     0.162 HD
ENDROOT
BRANCH   3   9
HETATM    9  C   UNK N   1      35.410  11.892  18.162  0.00  0.00    -0.050 A 
HETATM   10  C   UNK N   1      35.658  11.728  19.528  0.00  0.00     0.010 A 
HETATM   11  C   UNK N   1      36.308  10.582  19.999  0.00  0.00     0.040 A 
HETATM   12  C   UNK N   1      36.756   9.588  19.117  0.00  0.00     0.101 A 
HETATM   13  C   UNK N   1      36.518   9.749  17.724  0.00  0.00     0.103 A 
HETATM   14  C   UNK N   1      35.847  10.904  17.276  0.00  0.00     0.047 A 
BRANCH  12  15
HETATM   15  O   UNK N   1      37.416   8.524  19.651  0.00  0.00    -0.353 OA
HETATM   16  C   UNK N   1      38.504   8.598  20.490  0.00  0.00     0.210 C 
ENDBRANCH  12  15
BRANCH  13  17
HETATM   17  O   UNK N   1      36.947   8.823  16.823  0.00  0.00    -0.343 OA
BRANCH  17  18
HETATM   18  C   UNK N   1      36.935   9.048  15.458  0.00  0.00     0.129 C 
HETATM   19  C   UNK N   1      38.243   9.593  14.956  0.00  0.00     0.032 C 
HETATM   20  C   UNK N   1      38.188   9.318  13.462  0.00  0.00     0.002 C 
HETATM   21  C   UNK N   1      37.223   8.152  13.277  0.00  0.00     0.002 C 
HETATM   22  C   UNK N   1      36.755   7.774  14.665  0.00  0.00     0.032 C 
ENDBRANCH  17  18
ENDBRANCH  13  17
ENDBRANCH   3   9
BRANCH   1  23
HETATM   23  C   UNK N   1      36.291  14.180  14.153  0.00  0.00     0.052 C 
BRANCH  23  24
HETATM   24  C   UNK N   1      36.198  13.044  13.166  0.00  0.00    -0.057 A 
HETATM   25  C   UNK N   1      37.063  13.034  12.064  0.00  0.00     0.007 A 
HETATM   26  C   UNK N   1      36.935  12.055  11.073  0.00  0.00     0.001 A 
HETATM   27  C   UNK N   1      35.937  11.082  11.176  0.00  0.00     0.007 A 
HETATM   28  C   UNK N   1      35.069  11.087  12.271  0.00  0.00    -0.061 A 
HETATM   29  C   UNK N   1      34.006  10.054  12.380  0.00  0.00     0.048 C 
HETATM   30  C   UNK N   1      35.191  12.072  13.257  0.00  0.00     0.013 A 
ENDBRANCH  23  24
ENDBRANCH   1  23
TORSDOF 6
ENDMDL
MODEL 7
REMARK VINA RESULT:      -6.7     11.927     14.053
REMARK  6 active torsions:
REMARK  status: ('A' for Active; 'I' for Inactive)
REMARK    1  A    between atoms: C_6  and  C_8 
REMARK    2  A    between atoms: C_9  and  C_8 
REMARK    3  A    between atoms: C_11  and  C_16 
REMARK    4  A    between atoms: C_19  and  O_28 
REMARK    5  A    between atoms: C_20  and  O_22 
REMARK    6  A    between atoms: O_22  and  C_23 
ROOT
HETATM    1  C   UNK N   1      26.331  23.217  -7.241  0.00  0.00     0.083 C 
HETATM    2  C   UNK N   1      27.403  23.422  -8.299  0.00  0.00     0.025 C 
HETATM    3  C   UNK N   1      28.050  22.102  -8.712  0.00  0.00     0.037 C 
HETATM    4  C   UNK N   1      26.997  21.099  -9.212  0.00  0.00     0.132 C 
HETATM    5  N   UNK N   1      25.782  21.075  -8.417  0.00  0.00    -0.360 N 
HETATM    6  C   UNK N   1      25.435  22.026  -7.507  0.00  0.00     0.222 C 
HETATM    7  O   UNK N   1      24.405  21.897  -6.872  0.00  0.00    -0.273 OA
HETATM    8  H   UNK N   1      25.166  20.317  -8.544  0.00  0.00     0.162 HD
ENDROOT
BRANCH   3   9
HETATM    9  C   UNK N   1      29.099  21.534  -7.773  0.00  0.00    -0.050 A 
HETATM   10  C   UNK N   1      29.391  20.167  -7.782  0.00  0.00     0.010 A 
HETATM   11  C   UNK N   1      30.269  19.622  -6.837  0.00  0.00     0.040 A 
HETATM   12  C   UNK N   1      30.850  20.420  -5.841  0.00  0.00     0.101 A 
HETATM   13  C   UNK N   1      30.551  21.810  -5.817  0.00  0.00     0.103 A 
HETATM   14  C   UNK N   1      29.678  22.338  -6.787  0.00  0.00     0.047 A 
BRANCH  12  15
HETATM   15  O   UNK N   1      31.659  19.806  -4.936  0.00  0.00    -0.353 OA
HETATM   16  C   UNK N   1      33.033  19.756  -4.996  0.00  0.00     0.210 C 
ENDBRANCH  12  15
BRANCH  13  17
HETATM   17  O   UNK N   1      31.075  22.627  -4.861  0.00  0.00    -0.343 OA
BRANCH  17  18
HETATM   18  C   UNK N   1      30.889  23.999  -4.867  0.00  0.00     0.129 C 
HETATM   19  C   UNK N   1      30.207  24.490  -3.620  0.00  0.00     0.032 C 
HETATM   20  C   UNK N   1      30.526  25.976  -3.608  0.00  0.00     0.002 C 
HETATM   21  C   UNK N   1      31.801  26.147  -4.426  0.00  0.00     0.002 C 
HETATM   22  C   UNK N   1      32.195  24.758  -4.878  0.00  0.00     0.032 C 
ENDBRANCH  17  18
ENDBRANCH  13  17
ENDBRANCH   3   9
BRANCH   1  23
HETATM   23  C   UNK N   1      25.572  24.509  -6.882  0.00  0.00     0.052 C 
BRANCH  23  24
HETATM   24  C   UNK N   1      25.956  25.231  -5.617  0.00  0.00    -0.057 A 
HETATM   25  C   UNK N   1      26.402  24.483  -4.520  0.00  0.00     0.007 A 
HETATM   26  C   UNK N   1      26.666  25.107  -3.296  0.00  0.00     0.001 A 
HETATM   27  C   UNK N   1      26.480  26.486  -3.162  0.00  0.00     0.007 A 
HETATM   28  C   UNK N   1      26.033  27.239  -4.250  0.00  0.00    -0.061 A 
HETATM   29  C   UNK N   1      25.833  28.705  -4.106  0.00  0.00     0.048 C 
HETATM   30  C   UNK N   1      25.759  26.612  -5.471  0.00  0.00     0.013 A 
ENDBRANCH  23  24
ENDBRANCH   1  23
TORSDOF 6
ENDMDL
MODEL 8
REMARK VINA RESULT:      -6.7     12.652     14.875
REMARK  6 active torsions:
REMARK  status: ('A' for Active; 'I' for Inactive)
REMARK    1  A    between atoms: C_6  and  C_8 
REMARK    2  A    between atoms: C_9  and  C_8 
REMARK    3  A    between atoms: C_11  and  C_16 
REMARK    4  A    between atoms: C_19  and  O_28 
REMARK    5  A    between atoms: C_20  and  O_22 
REMARK    6  A    between atoms: O_22  and  C_23 
ROOT
HETATM    1  C   UNK N   1      26.664  25.231  -6.681  0.00  0.00     0.083 C 
HETATM    2  C   UNK N   1      27.455  24.684  -7.859  0.00  0.00     0.025 C 
HETATM    3  C   UNK N   1      27.904  23.244  -7.619  0.00  0.00     0.037 C 
HETATM    4  C   UNK N   1      26.703  22.331  -7.317  0.00  0.00     0.132 C 
HETATM    5  N   UNK N   1      25.721  22.925  -6.428  0.00  0.00    -0.360 N 
HETATM    6  C   UNK N   1      25.663  24.248  -6.114  0.00  0.00     0.222 C 
HETATM    7  O   UNK N   1      24.813  24.639  -5.335  0.00  0.00    -0.273 OA
HETATM    8  H   UNK N   1      25.049  22.329  -6.024  0.00  0.00     0.162 HD
ENDROOT
BRANCH   3   9
HETATM    9  C   UNK N   1      29.115  23.047  -6.727  0.00  0.00    -0.050 A 
HETATM   10  C   UNK N   1      29.353  21.810  -6.119  0.00  0.00     0.010 A 
HETATM   11  C   UNK N   1      30.400  21.660  -5.202  0.00  0.00     0.040 A 
HETATM   12  C   UNK N   1      31.214  22.745  -4.844  0.00  0.00     0.101 A 
HETATM   13  C   UNK N   1      30.974  24.009  -5.449  0.00  0.00     0.103 A 
HETATM   14  C   UNK N   1      29.925  24.132  -6.380  0.00  0.00     0.047 A 
BRANCH  12  15
HETATM   15  O   UNK N   1      32.183  22.524  -3.915  0.00  0.00    -0.353 OA
HETATM   16  C   UNK N   1      32.175  21.519  -2.975  0.00  0.00     0.210 C 
ENDBRANCH  12  15
BRANCH  13  17
HETATM   17  O   UNK N   1      31.723  25.099  -5.124  0.00  0.00    -0.343 OA
BRANCH  17  18
HETATM   18  C   UNK N   1      31.171  26.352  -4.924  0.00  0.00     0.129 C 
HETATM   19  C   UNK N   1      30.339  26.419  -3.673  0.00  0.00     0.032 C 
HETATM   20  C   UNK N   1      30.241  27.911  -3.397  0.00  0.00     0.002 C 
HETATM   21  C   UNK N   1      31.448  28.552  -4.072  0.00  0.00     0.002 C 
HETATM   22  C   UNK N   1      32.221  27.417  -4.710  0.00  0.00     0.032 C 
ENDBRANCH  17  18
ENDBRANCH  13  17
ENDBRANCH   3   9
BRANCH   1  23
HETATM   23  C   UNK N   1      26.093  26.639  -6.931  0.00  0.00     0.052 C 
BRANCH  23  24
HETATM   24  C   UNK N   1      26.585  27.770  -6.064  0.00  0.00    -0.057 A 
HETATM   25  C   UNK N   1      25.922  28.035  -4.859  0.00  0.00     0.007 A 
HETATM   26  C   UNK N   1      26.282  29.141  -4.081  0.00  0.00     0.001 A 
HETATM   27  C   UNK N   1      27.305  29.992  -4.507  0.00  0.00     0.007 A 
HETATM   28  C   UNK N   1      27.969  29.736  -5.710  0.00  0.00    -0.061 A 
HETATM   29  C   UNK N   1      29.056  30.642  -6.165  0.00  0.00     0.048 C 
HETATM   30  C   UNK N   1      27.602  28.635  -6.493  0.00  0.00     0.013 A 
ENDBRANCH  23  24
ENDBRANCH   1  23
TORSDOF 6
ENDMDL
MODEL 9
REMARK VINA RESULT:      -6.6      2.031      4.146
REMARK  6 active torsions:
REMARK  status: ('A' for Active; 'I' for Inactive)
REMARK    1  A    between atoms: C_6  and  C_8 
REMARK    2  A    between atoms: C_9  and  C_8 
REMARK    3  A    between atoms: C_11  and  C_16 
REMARK    4  A    between atoms: C_19  and  O_28 
REMARK    5  A    between atoms: C_20  and  O_22 
REMARK    6  A    between atoms: O_22  and  C_23 
ROOT
HETATM    1  C   UNK N   1      30.744  16.697   4.466  0.00  0.00     0.083 C 
HETATM    2  C   UNK N   1      31.881  17.675   4.214  0.00  0.00     0.025 C 
HETATM    3  C   UNK N   1      33.246  17.019   4.410  0.00  0.00     0.037 C 
HETATM    4  C   UNK N   1      33.403  15.782   3.510  0.00  0.00     0.132 C 
HETATM    5  N   UNK N   1      32.217  14.946   3.446  0.00  0.00    -0.360 N 
HETATM    6  C   UNK N   1      30.979  15.327   3.867  0.00  0.00     0.222 C 
HETATM    7  O   UNK N   1      30.055  14.538   3.794  0.00  0.00    -0.273 OA
HETATM    8  H   UNK N   1      32.314  14.040   3.073  0.00  0.00     0.162 HD
ENDROOT
BRANCH   3   9
HETATM    9  C   UNK N   1      33.721  16.850   5.842  0.00  0.00    -0.050 A 
HETATM   10  C   UNK N   1      33.510  17.864   6.782  0.00  0.00     0.010 A 
HETATM   11  C   UNK N   1      34.050  17.762   8.069  0.00  0.00     0.040 A 
HETATM   12  C   UNK N   1      34.843  16.666   8.439  0.00  0.00     0.101 A 
HETATM   13  C   UNK N   1      35.072  15.635   7.488  0.00  0.00     0.103 A 
HETATM   14  C   UNK N   1      34.504  15.751   6.205  0.00  0.00     0.047 A 
BRANCH  12  15
HETATM   15  O   UNK N   1      35.365  16.664   9.696  0.00  0.00    -0.353 OA
HETATM   16  C   UNK N   1      34.816  16.033  10.789  0.00  0.00     0.210 C 
ENDBRANCH  12  15
BRANCH  13  17
HETATM   17  O   UNK N   1      35.847  14.557   7.790  0.00  0.00    -0.343 OA
BRANCH  17  18
HETATM   18  C   UNK N   1      35.317  13.347   8.202  0.00  0.00     0.129 C 
HETATM   19  C   UNK N   1      35.450  12.276   7.155  0.00  0.00     0.032 C 
HETATM   20  C   UNK N   1      35.267  10.989   7.944  0.00  0.00     0.002 C 
HETATM   21  C   UNK N   1      35.645  11.313   9.385  0.00  0.00     0.002 C 
HETATM   22  C   UNK N   1      36.049  12.772   9.392  0.00  0.00     0.032 C 
ENDBRANCH  17  18
ENDBRANCH  13  17
ENDBRANCH   3   9
BRANCH   1  23
HETATM   23  C   UNK N   1      29.354  17.287   4.164  0.00  0.00     0.052 C 
BRANCH  23  24
HETATM   24  C   UNK N   1      28.716  18.171   5.204  0.00  0.00    -0.057 A 
HETATM   25  C   UNK N   1      28.109  19.366   4.796  0.00  0.00     0.007 A 
HETATM   26  C   UNK N   1      27.600  20.262   5.742  0.00  0.00     0.001 A 
HETATM   27  C   UNK N   1      27.700  19.969   7.105  0.00  0.00     0.007 A 
HETATM   28  C   UNK N   1      28.306  18.781   7.521  0.00  0.00    -0.061 A 
HETATM   29  C   UNK N   1      28.415  18.471   8.971  0.00  0.00     0.048 C 
HETATM   30  C   UNK N   1      28.824  17.890   6.574  0.00  0.00     0.013 A 
ENDBRANCH  23  24
ENDBRANCH   1  23
TORSDOF 6
ENDMDL
