MODEL 1
REMARK VINA RESULT:      -7.6      0.000      0.000
REMARK  4 active torsions:
REMARK  status: ('A' for Active; 'I' for Inactive)
REMARK    1  A    between atoms: C_15  and  C_9 
REMARK    2  A    between atoms: C_16  and  C_11 
REMARK    3  A    between atoms: O_22  and  C_15 
REMARK    4  A    between atoms: N_18  and  C_16 
ROOT
HETATM    1  C   UNK N   1      29.514  18.615   9.650  0.00  0.00     0.035 C 
HETATM    2  C   UNK N   1      32.097  17.167   4.502  0.00  0.00     0.061 A 
HETATM    3  C   UNK N   1      32.099  17.726   8.624  0.00  0.00     0.114 A 
HETATM    4  C   UNK N   1      28.405  17.200   7.987  0.00  0.00     0.201 C 
HETATM    5  C   UNK N   1      29.699  17.372   8.791  0.00  0.00     0.110 C 
HETATM    6  C   UNK N   1      32.112  17.370   5.883  0.00  0.00     0.048 A 
HETATM    7  C   UNK N   1      33.315  17.814   7.940  0.00  0.00     0.104 A 
HETATM    8  C   UNK N   1      30.918  16.852   3.840  0.00  0.00     0.129 A 
HETATM    9  C   UNK N   1      29.709  16.720   4.552  0.00  0.00     0.044 A 
HETATM   10  C   UNK N   1      30.908  17.284   6.618  0.00  0.00     0.083 A 
HETATM   11  C   UNK N   1      33.318  17.635   6.546  0.00  0.00     0.202 A 
HETATM   12  C   UNK N   1      29.709  16.958   5.956  0.00  0.00     0.108 A 
HETATM   13  F   UNK N   1      30.963  16.661   2.499  0.00  0.00    -0.205 F 
HETATM   14  N   UNK N   1      30.922  17.477   7.976  0.00  0.00    -0.346 N 
HETATM   15  O   UNK N   1      34.360  17.697   5.915  0.00  0.00    -0.286 OA
HETATM   16  O   UNK N   1      28.561  16.860   6.659  0.00  0.00    -0.346 OA
ENDROOT
BRANCH   9  17
HETATM   17  C   UNK N   1      28.454  16.315   3.783  0.00  0.00     0.057 A 
HETATM   18  C   UNK N   1      28.536  15.401   2.578  0.00  0.00     0.038 A 
HETATM   19  C   UNK N   1      28.000  14.878   3.902  0.00  0.00     0.038 A 
BRANCH  17  20
HETATM   20  N   UNK N   1      27.372  17.280   3.659  0.00  0.00    -0.418 N 
HETATM   21  H   UNK N   1      27.436  18.294   3.756  0.00  0.00     0.151 HD
HETATM   22  H   UNK N   1      26.448  16.902   3.453  0.00  0.00     0.151 HD
ENDBRANCH  17  20
ENDBRANCH   9  17
BRANCH   7  23
HETATM   23  C   UNK N   1      34.561  18.080   8.709  0.00  0.00     0.181 C 
HETATM   24  O   UNK N   1      34.912  17.309   9.590  0.00  0.00    -0.646 OA
BRANCH  23  25
HETATM   25  O   UNK N   1      35.320  19.161   8.444  0.00  0.00    -0.772 OA
HETATM   26  H   UNK N   1      35.171  19.962   8.906  0.00  0.00     0.167 HD
ENDBRANCH  23  25
ENDBRANCH   7  23
TORSDOF 4
ENDMDL
MODEL 2
REMARK VINA RESULT:      -7.1     11.237     13.306
REMARK  4 active torsions:
REMARK  status: ('A' for Active; 'I' for Inactive)
REMARK    1  A    between atoms: C_15  and  C_9 
REMARK    2  A    between atoms: C_16  and  C_11 
REMARK    3  A    between atoms: O_22  and  C_15 
REMARK    4  A    between atoms: N_18  and  C_16 
ROOT
HETATM    1  C   UNK N   1      29.956  19.788  -7.258  0.00  0.00     0.035 C 
HETATM    2  C   UNK N   1      28.707  23.961  -3.220  0.00  0.00     0.061 A 
HETATM    3  C   UNK N   1      31.272  21.308  -5.141  0.00  0.00     0.114 A 
HETATM    4  C   UNK N   1      28.614  21.765  -7.797  0.00  0.00     0.201 C 
HETATM    5  C   UNK N   1      29.938  21.308  -7.174  0.00  0.00     0.110 C 
HETATM    6  C   UNK N   1      29.570  23.061  -3.847  0.00  0.00     0.048 A 
HETATM    7  C   UNK N   1      31.579  21.703  -3.835  0.00  0.00     0.104 A 
HETATM    8  C   UNK N   1      27.603  24.473  -3.888  0.00  0.00     0.129 A 
HETATM    9  C   UNK N   1      27.335  24.101  -5.221  0.00  0.00     0.044 A 
HETATM   10  C   UNK N   1      29.305  22.638  -5.169  0.00  0.00     0.083 A 
HETATM   11  C   UNK N   1      30.710  22.592  -3.179  0.00  0.00     0.202 A 
HETATM   12  C   UNK N   1      28.192  23.158  -5.857  0.00  0.00     0.108 A 
HETATM   13  F   UNK N   1      26.801  25.347  -3.232  0.00  0.00    -0.205 F 
HETATM   14  N   UNK N   1      30.155  21.758  -5.789  0.00  0.00    -0.346 N 
HETATM   15  O   UNK N   1      30.947  22.965  -2.042  0.00  0.00    -0.286 OA
HETATM   16  O   UNK N   1      27.946  22.768  -7.125  0.00  0.00    -0.346 OA
ENDROOT
BRANCH   9  17
HETATM   17  C   UNK N   1      26.141  24.740  -5.927  0.00  0.00     0.057 A 
HETATM   18  C   UNK N   1      25.402  25.910  -5.310  0.00  0.00     0.038 A 
HETATM   19  C   UNK N   1      26.331  26.128  -6.494  0.00  0.00     0.038 A 
BRANCH  17  20
HETATM   20  N   UNK N   1      25.256  23.887  -6.704  0.00  0.00    -0.418 N 
HETATM   21  H   UNK N   1      25.194  23.826  -7.721  0.00  0.00     0.151 HD
HETATM   22  H   UNK N   1      24.628  23.283  -6.176  0.00  0.00     0.151 HD
ENDBRANCH  17  20
ENDBRANCH   9  17
BRANCH   7  23
HETATM   23  C   UNK N   1      32.815  21.182  -3.193  0.00  0.00     0.181 C 
HETATM   24  O   UNK N   1      33.759  20.827  -3.882  0.00  0.00    -0.646 OA
BRANCH  23  25
HETATM   25  O   UNK N   1      32.917  21.100  -1.852  0.00  0.00    -0.772 OA
HETATM   26  H   UNK N   1      32.202  21.374  -1.311  0.00  0.00     0.167 HD
ENDBRANCH  23  25
ENDBRANCH   7  23
TORSDOF 4
ENDMDL
MODEL 3
REMARK VINA RESULT:      -6.8      5.445      8.702
REMARK  4 active torsions:
REMARK  status: ('A' for Active; 'I' for Inactive)
REMARK    1  A    between atoms: C_15  and  C_9 
REMARK    2  A    between atoms: C_16  and  C_11 
REMARK    3  A    between atoms: O_22  and  C_15 
REMARK    4  A    between atoms: N_18  and  C_16 
ROOT
HETATM    1  C   UNK N   1      22.107  15.824   4.100  0.00  0.00     0.035 C 
HETATM    2  C   UNK N   1      26.312  20.007   3.789  0.00  0.00     0.061 A 
HETATM    3  C   UNK N   1      22.364  18.701   3.676  0.00  0.00     0.114 A 
HETATM    4  C   UNK N   1      23.964  15.927   5.693  0.00  0.00     0.201 C 
HETATM    5  C   UNK N   1      22.845  16.754   5.052  0.00  0.00     0.110 C 
HETATM    6  C   UNK N   1      24.986  19.575   3.732  0.00  0.00     0.048 A 
HETATM    7  C   UNK N   1      22.694  19.882   3.004  0.00  0.00     0.104 A 
HETATM    8  C   UNK N   1      27.259  19.304   4.522  0.00  0.00     0.129 A 
HETATM    9  C   UNK N   1      26.899  18.142   5.233  0.00  0.00     0.044 A 
HETATM   10  C   UNK N   1      24.603  18.391   4.401  0.00  0.00     0.083 A 
HETATM   11  C   UNK N   1      24.028  20.322   3.032  0.00  0.00     0.202 A 
HETATM   12  C   UNK N   1      25.556  17.676   5.152  0.00  0.00     0.108 A 
HETATM   13  F   UNK N   1      28.531  19.772   4.546  0.00  0.00    -0.205 F 
HETATM   14  N   UNK N   1      23.299  17.968   4.350  0.00  0.00    -0.346 N 
HETATM   15  O   UNK N   1      24.354  21.352   2.464  0.00  0.00    -0.286 OA
HETATM   16  O   UNK N   1      25.189  16.553   5.805  0.00  0.00    -0.346 OA
ENDROOT
BRANCH   9  17
HETATM   17  C   UNK N   1      27.968  17.442   6.068  0.00  0.00     0.057 A 
HETATM   18  C   UNK N   1      28.641  16.177   5.577  0.00  0.00     0.038 A 
HETATM   19  C   UNK N   1      29.392  17.499   5.564  0.00  0.00     0.038 A 
BRANCH  17  20
HETATM   20  N   UNK N   1      27.842  17.462   7.517  0.00  0.00    -0.418 N 
HETATM   21  H   UNK N   1      28.511  17.104   8.200  0.00  0.00     0.151 HD
HETATM   22  H   UNK N   1      26.991  17.880   7.892  0.00  0.00     0.151 HD
ENDBRANCH  17  20
ENDBRANCH   9  17
BRANCH   7  23
HETATM   23  C   UNK N   1      21.624  20.636   2.298  0.00  0.00     0.181 C 
HETATM   24  O   UNK N   1      21.493  20.525   1.088  0.00  0.00    -0.646 OA
BRANCH  23  25
HETATM   25  O   UNK N   1      20.782  21.441   2.975  0.00  0.00    -0.772 OA
HETATM   26  H   UNK N   1      21.079  21.889   3.743  0.00  0.00     0.167 HD
ENDBRANCH  23  25
ENDBRANCH   7  23
TORSDOF 4
ENDMDL
MODEL 4
REMARK VINA RESULT:      -6.7      5.949      8.615
REMARK  4 active torsions:
REMARK  status: ('A' for Active; 'I' for Inactive)
REMARK    1  A    between atoms: C_15  and  C_9 
REMARK    2  A    between atoms: C_16  and  C_11 
REMARK    3  A    between atoms: O_22  and  C_15 
REMARK    4  A    between atoms: N_18  and  C_16 
ROOT
HETATM    1  C   UNK N   1      34.438  12.435   7.236  0.00  0.00     0.035 C 
HETATM    2  C   UNK N   1      35.919  15.474  12.119  0.00  0.00     0.061 A 
HETATM    3  C   UNK N   1      34.259  15.140   8.320  0.00  0.00     0.114 A 
HETATM    4  C   UNK N   1      34.070  11.545   9.488  0.00  0.00     0.201 C 
HETATM    5  C   UNK N   1      33.825  12.762   8.590  0.00  0.00     0.110 C 
HETATM    6  C   UNK N   1      35.376  15.375  10.838  0.00  0.00     0.048 A 
HETATM    7  C   UNK N   1      34.711  16.394   8.741  0.00  0.00     0.104 A 
HETATM    8  C   UNK N   1      35.970  14.369  12.958  0.00  0.00     0.129 A 
HETATM    9  C   UNK N   1      35.466  13.122  12.536  0.00  0.00     0.044 A 
HETATM   10  C   UNK N   1      34.899  14.129  10.371  0.00  0.00     0.083 A 
HETATM   11  C   UNK N   1      35.281  16.510  10.020  0.00  0.00     0.202 A 
HETATM   12  C   UNK N   1      34.941  13.005  11.218  0.00  0.00     0.108 A 
HETATM   13  F   UNK N   1      36.504  14.524  14.195  0.00  0.00    -0.205 F 
HETATM   14  N   UNK N   1      34.359  14.032   9.113  0.00  0.00    -0.346 N 
HETATM   15  O   UNK N   1      35.681  17.589  10.426  0.00  0.00    -0.286 OA
HETATM   16  O   UNK N   1      34.471  11.818  10.780  0.00  0.00    -0.346 OA
ENDROOT
BRANCH   9  17
HETATM   17  C   UNK N   1      35.495  11.956  13.521  0.00  0.00     0.057 A 
HETATM   18  C   UNK N   1      35.298  12.181  15.006  0.00  0.00     0.038 A 
HETATM   19  C   UNK N   1      34.188  11.562  14.170  0.00  0.00     0.038 A 
BRANCH  17  20
HETATM   20  N   UNK N   1      36.394  10.844  13.254  0.00  0.00    -0.418 N 
HETATM   21  H   UNK N   1      37.390  10.791  13.469  0.00  0.00     0.151 HD
HETATM   22  H   UNK N   1      35.983  10.026  12.805  0.00  0.00     0.151 HD
ENDBRANCH  17  20
ENDBRANCH   9  17
BRANCH   7  23
HETATM   23  C   UNK N   1      34.563  17.560   7.829  0.00  0.00     0.181 C 
HETATM   24  O   UNK N   1      34.560  17.395   6.619  0.00  0.00    -0.646 OA
BRANCH  23  25
HETATM   25  O   UNK N   1      34.421  18.808   8.319  0.00  0.00    -0.772 OA
HETATM   26  H   UNK N   1      34.409  19.541   7.736  0.00  0.00     0.167 HD
ENDBRANCH  23  25
ENDBRANCH   7  23
TORSDOF 4
ENDMDL
MODEL 5
REMARK VINA RESULT:      -6.5      7.723     11.134
REMARK  4 active torsions:
REMARK  status: ('A' for Active; 'I' for Inactive)
REMARK    1  A    between atoms: C_15  and  C_9 
REMARK    2  A    between atoms: C_16  and  C_11 
REMARK    3  A    between atoms: O_22  and  C_15 
REMARK    4  A    between atoms: N_18  and  C_16 
ROOT
HETATM    1  C   UNK N   1      25.057  16.428   5.345  0.00  0.00     0.035 C 
HETATM    2  C   UNK N   1      20.443  14.661   8.642  0.00  0.00     0.061 A 
HETATM    3  C   UNK N   1      22.166  16.076   5.130  0.00  0.00     0.114 A 
HETATM    4  C   UNK N   1      25.159  14.440   6.772  0.00  0.00     0.201 C 
HETATM    5  C   UNK N   1      24.338  15.127   5.675  0.00  0.00     0.110 C 
HETATM    6  C   UNK N   1      21.010  15.153   7.466  0.00  0.00     0.048 A 
HETATM    7  C   UNK N   1      20.813  16.341   5.362  0.00  0.00     0.104 A 
HETATM    8  C   UNK N   1      21.193  13.902   9.531  0.00  0.00     0.129 A 
HETATM    9  C   UNK N   1      22.543  13.603   9.260  0.00  0.00     0.044 A 
HETATM   10  C   UNK N   1      22.373  14.904   7.185  0.00  0.00     0.083 A 
HETATM   11  C   UNK N   1      20.229  15.873   6.551  0.00  0.00     0.202 A 
HETATM   12  C   UNK N   1      23.138  14.129   8.078  0.00  0.00     0.108 A 
HETATM   13  F   UNK N   1      20.589  13.446  10.657  0.00  0.00    -0.205 F 
HETATM   14  N   UNK N   1      22.930  15.381   6.026  0.00  0.00    -0.346 N 
HETATM   15  O   UNK N   1      19.049  16.078   6.786  0.00  0.00    -0.286 OA
HETATM   16  O   UNK N   1      24.435  13.877   7.803  0.00  0.00    -0.346 OA
ENDROOT
BRANCH   9  17
HETATM   17  C   UNK N   1      23.302  12.716  10.243  0.00  0.00     0.057 A 
HETATM   18  C   UNK N   1      22.587  12.021  11.383  0.00  0.00     0.038 A 
HETATM   19  C   UNK N   1      23.051  11.227  10.172  0.00  0.00     0.038 A 
BRANCH  17  20
HETATM   20  N   UNK N   1      24.665  13.080  10.599  0.00  0.00    -0.418 N 
HETATM   21  H   UNK N   1      25.482  12.470  10.614  0.00  0.00     0.151 HD
HETATM   22  H   UNK N   1      24.821  14.053  10.860  0.00  0.00     0.151 HD
ENDBRANCH  17  20
ENDBRANCH   9  17
BRANCH   7  23
HETATM   23  C   UNK N   1      20.038  17.094   4.339  0.00  0.00     0.181 C 
HETATM   24  O   UNK N   1      20.530  18.073   3.798  0.00  0.00    -0.646 OA
BRANCH  23  25
HETATM   25  O   UNK N   1      18.794  16.709   3.991  0.00  0.00    -0.772 OA
HETATM   26  H   UNK N   1      18.373  17.101   3.252  0.00  0.00     0.167 HD
ENDBRANCH  23  25
ENDBRANCH   7  23
TORSDOF 4
ENDMDL
MODEL 6
REMARK VINA RESULT:      -6.2      3.491      4.446
REMARK  4 active torsions:
REMARK  status: ('A' for Active; 'I' for Inactive)
REMARK    1  A    between atoms: C_15  and  C_9 
REMARK    2  A    between atoms: C_16  and  C_11 
REMARK    3  A    between atoms: O_22  and  C_15 
REMARK    4  A    between atoms: N_18  and  C_16 
ROOT
HETATM    1  C   UNK N   1      33.439  12.053   8.551  0.00  0.00     0.035 C 
HETATM    2  C   UNK N   1      33.839  17.611   6.497  0.00  0.00     0.061 A 
HETATM    3  C   UNK N   1      34.927  14.514   9.052  0.00  0.00     0.114 A 
HETATM    4  C   UNK N   1      33.475  12.558   6.155  0.00  0.00     0.201 C 
HETATM    5  C   UNK N   1      34.211  12.805   7.477  0.00  0.00     0.110 C 
HETATM    6  C   UNK N   1      34.198  16.583   7.370  0.00  0.00     0.048 A 
HETATM    7  C   UNK N   1      35.141  15.830   9.473  0.00  0.00     0.104 A 
HETATM    8  C   UNK N   1      33.324  17.330   5.239  0.00  0.00     0.129 A 
HETATM    9  C   UNK N   1      33.160  15.997   4.811  0.00  0.00     0.044 A 
HETATM   10  C   UNK N   1      34.008  15.236   6.986  0.00  0.00     0.083 A 
HETATM   11  C   UNK N   1      34.766  16.880   8.617  0.00  0.00     0.202 A 
HETATM   12  C   UNK N   1      33.492  14.943   5.709  0.00  0.00     0.108 A 
HETATM   13  F   UNK N   1      32.997  18.368   4.430  0.00  0.00    -0.205 F 
HETATM   14  N   UNK N   1      34.365  14.225   7.840  0.00  0.00    -0.346 N 
HETATM   15  O   UNK N   1      34.943  18.041   8.946  0.00  0.00    -0.286 OA
HETATM   16  O   UNK N   1      33.325  13.657   5.334  0.00  0.00    -0.346 OA
ENDROOT
BRANCH   9  17
HETATM   17  C   UNK N   1      32.644  15.747   3.396  0.00  0.00     0.057 A 
HETATM   18  C   UNK N   1      31.252  15.199   3.157  0.00  0.00     0.038 A 
HETATM   19  C   UNK N   1      31.557  16.663   2.881  0.00  0.00     0.038 A 
BRANCH  17  20
HETATM   20  N   UNK N   1      33.585  15.299   2.382  0.00  0.00    -0.418 N 
HETATM   21  H   UNK N   1      33.692  14.354   2.013  0.00  0.00     0.151 HD
HETATM   22  H   UNK N   1      34.207  16.009   1.995  0.00  0.00     0.151 HD
ENDBRANCH  17  20
ENDBRANCH   9  17
BRANCH   7  23
HETATM   23  C   UNK N   1      35.766  16.073  10.801  0.00  0.00     0.181 C 
HETATM   24  O   UNK N   1      35.064  16.245  11.785  0.00  0.00    -0.646 OA
BRANCH  23  25
HETATM   25  O   UNK N   1      37.106  16.100  10.940  0.00  0.00    -0.772 OA
HETATM   26  H   UNK N   1      37.489  16.441  11.724  0.00  0.00     0.167 HD
ENDBRANCH  23  25
ENDBRANCH   7  23
TORSDOF 4
ENDMDL
MODEL 7
REMARK VINA RESULT:      -6.2      2.689      4.159
REMARK  4 active torsions:
REMARK  status: ('A' for Active; 'I' for Inactive)
REMARK    1  A    between atoms: C_15  and  C_9 
REMARK    2  A    between atoms: C_16  and  C_11 
REMARK    3  A    between atoms: O_22  and  C_15 
REMARK    4  A    between atoms: N_18  and  C_16 
ROOT
HETATM    1  C   UNK N   1      31.060  14.670   3.094  0.00  0.00     0.035 C 
HETATM    2  C   UNK N   1      29.920  17.961   7.904  0.00  0.00     0.061 A 
HETATM    3  C   UNK N   1      32.469  15.931   5.318  0.00  0.00     0.114 A 
HETATM    4  C   UNK N   1      29.516  16.570   3.038  0.00  0.00     0.201 C 
HETATM    5  C   UNK N   1      30.930  16.145   3.446  0.00  0.00     0.110 C 
HETATM    6  C   UNK N   1      30.780  17.268   7.052  0.00  0.00     0.048 A 
HETATM    7  C   UNK N   1      32.880  16.128   6.639  0.00  0.00     0.104 A 
HETATM    8  C   UNK N   1      28.714  18.470   7.440  0.00  0.00     0.129 A 
HETATM    9  C   UNK N   1      28.336  18.304   6.092  0.00  0.00     0.044 A 
HETATM   10  C   UNK N   1      30.411  17.051   5.705  0.00  0.00     0.083 A 
HETATM   11  C   UNK N   1      32.018  16.805   7.519  0.00  0.00     0.202 A 
HETATM   12  C   UNK N   1      29.193  17.569   5.225  0.00  0.00     0.108 A 
HETATM   13  F   UNK N   1      27.920  19.140   8.311  0.00  0.00    -0.205 F 
HETATM   14  N   UNK N   1      31.258  16.374   4.864  0.00  0.00    -0.346 N 
HETATM   15  O   UNK N   1      32.345  17.003   8.678  0.00  0.00    -0.286 OA
HETATM   16  O   UNK N   1      28.845  17.376   3.934  0.00  0.00    -0.346 OA
ENDROOT
BRANCH   9  17
HETATM   17  C   UNK N   1      27.027  18.934   5.623  0.00  0.00     0.057 A 
HETATM   18  C   UNK N   1      26.630  20.330   6.059  0.00  0.00     0.038 A 
HETATM   19  C   UNK N   1      27.121  20.080   4.641  0.00  0.00     0.038 A 
BRANCH  17  20
HETATM   20  N   UNK N   1      25.870  18.074   5.435  0.00  0.00    -0.418 N 
HETATM   21  H   UNK N   1      25.261  17.692   6.159  0.00  0.00     0.151 HD
HETATM   22  H   UNK N   1      25.640  17.826   4.473  0.00  0.00     0.151 HD
ENDBRANCH  17  20
ENDBRANCH   9  17
BRANCH   7  23
HETATM   23  C   UNK N   1      34.215  15.628   7.064  0.00  0.00     0.181 C 
HETATM   24  O   UNK N   1      35.205  15.880   6.393  0.00  0.00    -0.646 OA
BRANCH  23  25
HETATM   25  O   UNK N   1      34.356  14.901   8.190  0.00  0.00    -0.772 OA
HETATM   26  H   UNK N   1      34.096  14.001   8.202  0.00  0.00     0.167 HD
ENDBRANCH  23  25
ENDBRANCH   7  23
TORSDOF 4
ENDMDL
MODEL 8
REMARK VINA RESULT:      -6.2     10.471     13.288
REMARK  4 active torsions:
REMARK  status: ('A' for Active; 'I' for Inactive)
REMARK    1  A    between atoms: C_15  and  C_9 
REMARK    2  A    between atoms: C_16  and  C_11 
REMARK    3  A    between atoms: O_22  and  C_15 
REMARK    4  A    between atoms: N_18  and  C_16 
ROOT
HETATM    1  C   UNK N   1      39.286   8.882  14.108  0.00  0.00     0.035 C 
HETATM    2  C   UNK N   1      35.633  13.215  15.885  0.00  0.00     0.061 A 
HETATM    3  C   UNK N   1      37.602  10.983  12.979  0.00  0.00     0.114 A 
HETATM    4  C   UNK N   1      37.622   8.543  15.873  0.00  0.00     0.201 C 
HETATM    5  C   UNK N   1      37.810   9.048  14.438  0.00  0.00     0.110 C 
HETATM    6  C   UNK N   1      36.304  12.483  14.904  0.00  0.00     0.048 A 
HETATM    7  C   UNK N   1      37.201  12.284  12.661  0.00  0.00     0.104 A 
HETATM    8  C   UNK N   1      35.343  12.651  17.121  0.00  0.00     0.129 A 
HETATM    9  C   UNK N   1      35.712  11.322  17.409  0.00  0.00     0.044 A 
HETATM   10  C   UNK N   1      36.722  11.161  15.177  0.00  0.00     0.083 A 
HETATM   11  C   UNK N   1      36.544  13.045  13.643  0.00  0.00     0.202 A 
HETATM   12  C   UNK N   1      36.426  10.580  16.425  0.00  0.00     0.108 A 
HETATM   13  F   UNK N   1      34.685  13.407  18.035  0.00  0.00    -0.205 F 
HETATM   14  N   UNK N   1      37.376  10.438  14.212  0.00  0.00    -0.346 N 
HETATM   15  O   UNK N   1      36.172  14.182  13.401  0.00  0.00    -0.286 OA
HETATM   16  O   UNK N   1      36.811   9.311  16.682  0.00  0.00    -0.346 OA
ENDROOT
BRANCH   9  17
HETATM   17  C   UNK N   1      35.317  10.735  18.761  0.00  0.00     0.057 A 
HETATM   18  C   UNK N   1      36.325  10.610  19.885  0.00  0.00     0.038 A 
HETATM   19  C   UNK N   1      35.249  11.684  19.937  0.00  0.00     0.038 A 
BRANCH  17  20
HETATM   20  N   UNK N   1      34.332   9.665  18.794  0.00  0.00    -0.418 N 
HETATM   21  H   UNK N   1      34.507   8.669  18.935  0.00  0.00     0.151 HD
HETATM   22  H   UNK N   1      33.360   9.939  18.662  0.00  0.00     0.151 HD
ENDBRANCH  17  20
ENDBRANCH   9  17
BRANCH   7  23
HETATM   23  C   UNK N   1      37.471  12.811  11.296  0.00  0.00     0.181 C 
HETATM   24  O   UNK N   1      36.603  12.760  10.438  0.00  0.00    -0.646 OA
BRANCH  23  25
HETATM   25  O   UNK N   1      38.664  13.356  10.988  0.00  0.00    -0.772 OA
HETATM   26  H   UNK N   1      39.081  13.940  11.591  0.00  0.00     0.167 HD
ENDBRANCH  23  25
ENDBRANCH   7  23
TORSDOF 4
ENDMDL
MODEL 9
REMARK VINA RESULT:      -6.2     10.022     12.386
REMARK  4 active torsions:
REMARK  status: ('A' for Active; 'I' for Inactive)
REMARK    1  A    between atoms: C_15  and  C_9 
REMARK    2  A    between atoms: C_16  and  C_11 
REMARK    3  A    between atoms: O_22  and  C_15 
REMARK    4  A    between atoms: N_18  and  C_16 
ROOT
HETATM    1  C   UNK N   1      35.898   7.891  16.027  0.00  0.00     0.035 C 
HETATM    2  C   UNK N   1      35.646  13.753  15.106  0.00  0.00     0.061 A 
HETATM    3  C   UNK N   1      36.051  10.392  17.524  0.00  0.00     0.114 A 
HETATM    4  C   UNK N   1      37.072   8.970  14.168  0.00  0.00     0.201 C 
HETATM    5  C   UNK N   1      36.858   9.021  15.685  0.00  0.00     0.110 C 
HETATM    6  C   UNK N   1      35.765  12.631  15.927  0.00  0.00     0.048 A 
HETATM    7  C   UNK N   1      35.593  11.579  18.104  0.00  0.00     0.104 A 
HETATM    8  C   UNK N   1      36.008  13.697  13.766  0.00  0.00     0.129 A 
HETATM    9  C   UNK N   1      36.514  12.506  13.208  0.00  0.00     0.044 A 
HETATM   10  C   UNK N   1      36.231  11.411  15.387  0.00  0.00     0.083 A 
HETATM   11  C   UNK N   1      35.446  12.714  17.289  0.00  0.00     0.202 A 
HETATM   12  C   UNK N   1      36.606  11.347  14.031  0.00  0.00     0.108 A 
HETATM   13  F   UNK N   1      35.877  14.819  13.016  0.00  0.00    -0.205 F 
HETATM   14  N   UNK N   1      36.353  10.308  16.194  0.00  0.00    -0.346 N 
HETATM   15  O   UNK N   1      35.056  13.770  17.761  0.00  0.00    -0.286 OA
HETATM   16  O   UNK N   1      37.066  10.187  13.517  0.00  0.00    -0.346 OA
ENDROOT
BRANCH   9  17
HETATM   17  C   UNK N   1      36.951  12.517  11.745  0.00  0.00     0.057 A 
HETATM   18  C   UNK N   1      36.532  11.414  10.795  0.00  0.00     0.038 A 
HETATM   19  C   UNK N   1      35.887  12.789  10.705  0.00  0.00     0.038 A 
BRANCH  17  20
HETATM   20  N   UNK N   1      38.264  13.048  11.416  0.00  0.00    -0.418 N 
HETATM   21  H   UNK N   1      39.150  12.830  11.874  0.00  0.00     0.151 HD
HETATM   22  H   UNK N   1      38.305  13.710  10.643  0.00  0.00     0.151 HD
ENDBRANCH  17  20
ENDBRANCH   9  17
BRANCH   7  23
HETATM   23  C   UNK N   1      35.291  11.603  19.561  0.00  0.00     0.181 C 
HETATM   24  O   UNK N   1      34.717  10.659  20.082  0.00  0.00    -0.646 OA
BRANCH  23  25
HETATM   25  O   UNK N   1      35.650  12.654  20.325  0.00  0.00    -0.772 OA
HETATM   26  H   UNK N   1      36.105  13.378  19.941  0.00  0.00     0.167 HD
ENDBRANCH  23  25
ENDBRANCH   7  23
TORSDOF 4
ENDMDL
