MODEL 1
REMARK VINA RESULT:      -7.3      0.000      0.000
REMARK  5 active torsions:
REMARK  status: ('A' for Active; 'I' for Inactive)
REMARK    1  A    between atoms: N_2  and  C_3 
REMARK    2  A    between atoms: C_3  and  C_4 
REMARK    3  A    between atoms: C_6  and  C_19 
REMARK    4  A    between atoms: N_7  and  S_9 
REMARK    5  A    between atoms: S_9  and  C_12 
ROOT
HETATM    1  C   UNK N   1      30.083  17.755   7.868  0.00  0.00    -0.022 A 
HETATM    2  C   UNK N   1      30.248  17.143   6.648  0.00  0.00     0.041 A 
HETATM    3  C   UNK N   1      31.610  16.951   6.502  0.00  0.00     0.064 A 
HETATM    4  N   UNK N   1      32.254  17.432   7.604  0.00  0.00    -0.245 N 
HETATM    5  C   UNK N   1      31.320  17.923   8.438  0.00  0.00     0.118 A 
ENDROOT
BRANCH   4   6
HETATM    6  S   UNK N   1      33.968  17.406   8.064  0.00  0.00     0.270 S 
HETATM    7  O   UNK N   1      34.737  16.966   6.809  0.00  0.00    -0.200 OA
HETATM    8  O   UNK N   1      34.387  18.871   8.261  0.00  0.00    -0.200 OA
BRANCH   6   9
HETATM    9  C   UNK N   1      34.328  16.365   9.475  0.00  0.00     0.095 A 
HETATM   10  C   UNK N   1      35.359  16.715  10.350  0.00  0.00     0.028 A 
HETATM   11  C   UNK N   1      35.666  15.885  11.427  0.00  0.00     0.019 A 
HETATM   12  C   UNK N   1      34.933  14.711  11.615  0.00  0.00     0.087 A 
HETATM   13  N   UNK N   1      33.930  14.387  10.753  0.00  0.00    -0.374 N 
HETATM   14  C   UNK N   1      33.617  15.182   9.694  0.00  0.00     0.112 A 
ATOM     15  HN  UNK N   1      33.401  13.528  10.905  1.00  0.00     0.164 HD
ENDBRANCH   6   9
ENDBRANCH   4   6
BRANCH   3  16
HETATM   16  C   UNK N   1      32.218  16.282   5.310  0.00  0.00     0.030 A 
HETATM   17  C   UNK N   1      32.532  14.917   5.334  0.00  0.00     0.017 A 
HETATM   18  C   UNK N   1      33.100  14.288   4.224  0.00  0.00     0.001 A 
HETATM   19  C   UNK N   1      33.361  15.019   3.065  0.00  0.00     0.003 A 
HETATM   20  C   UNK N   1      33.058  16.378   3.018  0.00  0.00     0.043 A 
HETATM   21  C   UNK N   1      32.494  17.015   4.127  0.00  0.00     0.128 A 
HETATM   22  F   UNK N   1      32.207  18.338   4.031  0.00  0.00    -0.205 F 
ENDBRANCH   3  16
BRANCH   1  23
HETATM   23  C   UNK N   1      28.781  18.108   8.490  0.00  0.00     0.153 C 
BRANCH  23  24
HETATM   24  N   UNK N   1      27.789  18.279   7.443  0.00  0.00    -0.421 N 
HETATM   25  C   UNK N   1      27.750  19.692   7.118  0.00  0.00     0.140 C 
HETATM   26  H   UNK N   1      27.224  17.543   7.017  0.00  0.00     0.153 HD
ENDBRANCH  23  24
ENDBRANCH   1  23
TORSDOF 5
ENDMDL
MODEL 2
REMARK VINA RESULT:      -7.2     10.064     12.775
REMARK  5 active torsions:
REMARK  status: ('A' for Active; 'I' for Inactive)
REMARK    1  A    between atoms: N_2  and  C_3 
REMARK    2  A    between atoms: C_3  and  C_4 
REMARK    3  A    between atoms: C_6  and  C_19 
REMARK    4  A    between atoms: N_7  and  S_9 
REMARK    5  A    between atoms: S_9  and  C_12 
ROOT
HETATM    1  C   UNK N   1      21.055  13.505   9.725  0.00  0.00    -0.022 A 
HETATM    2  C   UNK N   1      21.965  13.406   8.699  0.00  0.00     0.041 A 
HETATM    3  C   UNK N   1      21.683  14.455   7.841  0.00  0.00     0.064 A 
HETATM    4  N   UNK N   1      20.632  15.171   8.335  0.00  0.00    -0.245 N 
HETATM    5  C   UNK N   1      20.250  14.589   9.485  0.00  0.00     0.118 A 
ENDROOT
BRANCH   4   6
HETATM    6  S   UNK N   1      19.858  16.661   7.761  0.00  0.00     0.270 S 
HETATM    7  O   UNK N   1      20.976  17.503   7.126  0.00  0.00    -0.200 OA
HETATM    8  O   UNK N   1      18.974  16.260   6.569  0.00  0.00    -0.200 OA
BRANCH   6   9
HETATM    9  C   UNK N   1      18.976  17.561   9.033  0.00  0.00     0.095 A 
HETATM   10  C   UNK N   1      17.692  17.157   9.404  0.00  0.00     0.028 A 
HETATM   11  C   UNK N   1      16.989  17.881  10.367  0.00  0.00     0.019 A 
HETATM   12  C   UNK N   1      17.585  19.002  10.948  0.00  0.00     0.087 A 
HETATM   13  N   UNK N   1      18.839  19.379  10.575  0.00  0.00    -0.374 N 
HETATM   14  C   UNK N   1      19.540  18.688   9.635  0.00  0.00     0.112 A 
ATOM     15  HN  UNK N   1      19.263  20.198  11.011  1.00  0.00     0.164 HD
ENDBRANCH   6   9
ENDBRANCH   4   6
BRANCH   3  16
HETATM   16  C   UNK N   1      22.467  14.726   6.597  0.00  0.00     0.030 A 
HETATM   17  C   UNK N   1      23.770  15.238   6.666  0.00  0.00     0.017 A 
HETATM   18  C   UNK N   1      24.507  15.494   5.507  0.00  0.00     0.001 A 
HETATM   19  C   UNK N   1      23.949  15.237   4.255  0.00  0.00     0.003 A 
HETATM   20  C   UNK N   1      22.656  14.728   4.161  0.00  0.00     0.043 A 
HETATM   21  C   UNK N   1      21.911  14.474   5.316  0.00  0.00     0.128 A 
HETATM   22  F   UNK N   1      20.659  13.971   5.175  0.00  0.00    -0.205 F 
ENDBRANCH   3  16
BRANCH   1  23
HETATM   23  C   UNK N   1      21.003  12.628  10.922  0.00  0.00     0.153 C 
BRANCH  23  24
HETATM   24  N   UNK N   1      22.106  11.683  10.863  0.00  0.00    -0.421 N 
HETATM   25  C   UNK N   1      22.970  11.966  11.993  0.00  0.00     0.140 C 
HETATM   26  H   UNK N   1      22.246  10.958  10.159  0.00  0.00     0.153 HD
ENDBRANCH  23  24
ENDBRANCH   1  23
TORSDOF 5
ENDMDL
MODEL 3
REMARK VINA RESULT:      -7.1      1.830      2.483
REMARK  5 active torsions:
REMARK  status: ('A' for Active; 'I' for Inactive)
REMARK    1  A    between atoms: N_2  and  C_3 
REMARK    2  A    between atoms: C_3  and  C_4 
REMARK    3  A    between atoms: C_6  and  C_19 
REMARK    4  A    between atoms: N_7  and  S_9 
REMARK    5  A    between atoms: S_9  and  C_12 
ROOT
HETATM    1  C   UNK N   1      30.145  17.796   8.067  0.00  0.00    -0.022 A 
HETATM    2  C   UNK N   1      30.183  17.247   6.808  0.00  0.00     0.041 A 
HETATM    3  C   UNK N   1      31.515  16.971   6.555  0.00  0.00     0.064 A 
HETATM    4  N   UNK N   1      32.264  17.341   7.633  0.00  0.00    -0.245 N 
HETATM    5  C   UNK N   1      31.426  17.846   8.556  0.00  0.00     0.118 A 
ENDROOT
BRANCH   4   6
HETATM    6  S   UNK N   1      33.998  17.171   7.969  0.00  0.00     0.270 S 
HETATM    7  O   UNK N   1      34.690  18.324   7.223  0.00  0.00    -0.200 OA
HETATM    8  O   UNK N   1      34.191  17.523   9.453  0.00  0.00    -0.200 OA
BRANCH   6   9
HETATM    9  C   UNK N   1      34.675  15.576   7.520  0.00  0.00     0.095 A 
HETATM   10  C   UNK N   1      35.282  15.406   6.274  0.00  0.00     0.028 A 
HETATM   11  C   UNK N   1      35.774  14.154   5.908  0.00  0.00     0.019 A 
HETATM   12  C   UNK N   1      35.654  13.085   6.799  0.00  0.00     0.087 A 
HETATM   13  N   UNK N   1      35.061  13.271   8.011  0.00  0.00    -0.374 N 
HETATM   14  C   UNK N   1      34.570  14.484   8.385  0.00  0.00     0.112 A 
ATOM     15  HN  UNK N   1      34.983  12.482   8.653  1.00  0.00     0.164 HD
ENDBRANCH   6   9
ENDBRANCH   4   6
BRANCH   3  16
HETATM   16  C   UNK N   1      31.992  16.334   5.289  0.00  0.00     0.030 A 
HETATM   17  C   UNK N   1      32.548  17.106   4.261  0.00  0.00     0.017 A 
HETATM   18  C   UNK N   1      32.995  16.516   3.076  0.00  0.00     0.001 A 
HETATM   19  C   UNK N   1      32.894  15.136   2.903  0.00  0.00     0.003 A 
HETATM   20  C   UNK N   1      32.345  14.347   3.911  0.00  0.00     0.043 A 
HETATM   21  C   UNK N   1      31.891  14.931   5.097  0.00  0.00     0.128 A 
HETATM   22  F   UNK N   1      31.372  14.122   6.054  0.00  0.00    -0.205 F 
ENDBRANCH   3  16
BRANCH   1  23
HETATM   23  C   UNK N   1      28.916  18.200   8.798  0.00  0.00     0.153 C 
BRANCH  23  24
HETATM   24  N   UNK N   1      27.813  18.284   7.856  0.00  0.00    -0.421 N 
HETATM   25  C   UNK N   1      27.733  19.664   7.416  0.00  0.00     0.140 C 
HETATM   26  H   UNK N   1      27.208  17.518   7.560  0.00  0.00     0.153 HD
ENDBRANCH  23  24
ENDBRANCH   1  23
TORSDOF 5
ENDMDL
MODEL 4
REMARK VINA RESULT:      -7.0     10.230     12.571
REMARK  5 active torsions:
REMARK  status: ('A' for Active; 'I' for Inactive)
REMARK    1  A    between atoms: N_2  and  C_3 
REMARK    2  A    between atoms: C_3  and  C_4 
REMARK    3  A    between atoms: C_6  and  C_19 
REMARK    4  A    between atoms: N_7  and  S_9 
REMARK    5  A    between atoms: S_9  and  C_12 
ROOT
HETATM    1  C   UNK N   1      21.208  13.108   9.930  0.00  0.00    -0.022 A 
HETATM    2  C   UNK N   1      22.077  13.014   8.868  0.00  0.00     0.041 A 
HETATM    3  C   UNK N   1      21.750  14.055   8.018  0.00  0.00     0.064 A 
HETATM    4  N   UNK N   1      20.712  14.763   8.551  0.00  0.00    -0.245 N 
HETATM    5  C   UNK N   1      20.382  14.183   9.718  0.00  0.00     0.118 A 
ENDROOT
BRANCH   4   6
HETATM    6  S   UNK N   1      19.900  16.242   8.003  0.00  0.00     0.270 S 
HETATM    7  O   UNK N   1      18.453  16.146   8.514  0.00  0.00    -0.200 OA
HETATM    8  O   UNK N   1      20.504  17.397   8.817  0.00  0.00    -0.200 OA
BRANCH   6   9
HETATM    9  C   UNK N   1      19.973  16.502   6.233  0.00  0.00     0.095 A 
HETATM   10  C   UNK N   1      20.930  17.366   5.698  0.00  0.00     0.028 A 
HETATM   11  C   UNK N   1      20.964  17.599   4.324  0.00  0.00     0.019 A 
HETATM   12  C   UNK N   1      20.036  16.958   3.500  0.00  0.00     0.087 A 
HETATM   13  N   UNK N   1      19.112  16.117   4.040  0.00  0.00    -0.374 N 
HETATM   14  C   UNK N   1      19.060  15.879   5.379  0.00  0.00     0.112 A 
ATOM     15  HN  UNK N   1      18.442  15.653   3.425  1.00  0.00     0.164 HD
ENDBRANCH   6   9
ENDBRANCH   4   6
BRANCH   3  16
HETATM   16  C   UNK N   1      22.481  14.330   6.743  0.00  0.00     0.030 A 
HETATM   17  C   UNK N   1      23.618  15.148   6.728  0.00  0.00     0.017 A 
HETATM   18  C   UNK N   1      24.305  15.407   5.540  0.00  0.00     0.001 A 
HETATM   19  C   UNK N   1      23.863  14.847   4.342  0.00  0.00     0.003 A 
HETATM   20  C   UNK N   1      22.734  14.030   4.331  0.00  0.00     0.043 A 
HETATM   21  C   UNK N   1      22.040  13.770   5.516  0.00  0.00     0.128 A 
HETATM   22  F   UNK N   1      20.952  12.961   5.458  0.00  0.00    -0.205 F 
ENDBRANCH   3  16
BRANCH   1  23
HETATM   23  C   UNK N   1      21.213  12.235  11.132  0.00  0.00     0.153 C 
BRANCH  23  24
HETATM   24  N   UNK N   1      22.469  11.506  11.180  0.00  0.00    -0.421 N 
HETATM   25  C   UNK N   1      23.147  11.903  12.399  0.00  0.00     0.140 C 
HETATM   26  H   UNK N   1      22.810  10.840  10.486  0.00  0.00     0.153 HD
ENDBRANCH  23  24
ENDBRANCH   1  23
TORSDOF 5
ENDMDL
MODEL 5
REMARK VINA RESULT:      -6.9      3.099      6.382
REMARK  5 active torsions:
REMARK  status: ('A' for Active; 'I' for Inactive)
REMARK    1  A    between atoms: N_2  and  C_3 
REMARK    2  A    between atoms: C_3  and  C_4 
REMARK    3  A    between atoms: C_6  and  C_19 
REMARK    4  A    between atoms: N_7  and  S_9 
REMARK    5  A    between atoms: S_9  and  C_12 
ROOT
HETATM    1  C   UNK N   1      32.250  17.370   8.033  0.00  0.00    -0.022 A 
HETATM    2  C   UNK N   1      32.084  16.732   6.827  0.00  0.00     0.041 A 
HETATM    3  C   UNK N   1      30.730  16.800   6.546  0.00  0.00     0.064 A 
HETATM    4  N   UNK N   1      30.094  17.463   7.555  0.00  0.00    -0.245 N 
HETATM    5  C   UNK N   1      31.023  17.810   8.462  0.00  0.00     0.118 A 
ENDROOT
BRANCH   4   6
HETATM    6  S   UNK N   1      28.399  17.952   7.748  0.00  0.00     0.270 S 
HETATM    7  O   UNK N   1      27.599  16.651   7.917  0.00  0.00    -0.200 OA
HETATM    8  O   UNK N   1      28.297  18.631   9.123  0.00  0.00    -0.200 OA
BRANCH   6   9
HETATM    9  C   UNK N   1      27.773  18.959   6.408  0.00  0.00     0.095 A 
HETATM   10  C   UNK N   1      27.405  18.358   5.202  0.00  0.00     0.028 A 
HETATM   11  C   UNK N   1      26.953  19.145   4.144  0.00  0.00     0.019 A 
HETATM   12  C   UNK N   1      26.875  20.530   4.308  0.00  0.00     0.087 A 
HETATM   13  N   UNK N   1      27.236  21.098   5.491  0.00  0.00    -0.374 N 
HETATM   14  C   UNK N   1      27.683  20.347   6.535  0.00  0.00     0.112 A 
ATOM     15  HN  UNK N   1      27.170  22.111   5.598  1.00  0.00     0.164 HD
ENDBRANCH   6   9
ENDBRANCH   4   6
BRANCH   3  16
HETATM   16  C   UNK N   1      30.125  16.243   5.298  0.00  0.00     0.030 A 
HETATM   17  C   UNK N   1      29.258  15.144   5.348  0.00  0.00     0.017 A 
HETATM   18  C   UNK N   1      28.690  14.619   4.184  0.00  0.00     0.001 A 
HETATM   19  C   UNK N   1      28.981  15.191   2.946  0.00  0.00     0.003 A 
HETATM   20  C   UNK N   1      29.842  16.284   2.871  0.00  0.00     0.043 A 
HETATM   21  C   UNK N   1      30.417  16.812   4.031  0.00  0.00     0.128 A 
HETATM   22  F   UNK N   1      31.241  17.882   3.909  0.00  0.00    -0.205 F 
ENDBRANCH   3  16
BRANCH   1  23
HETATM   23  C   UNK N   1      33.548  17.602   8.717  0.00  0.00     0.153 C 
BRANCH  23  24
HETATM   24  N   UNK N   1      33.739  16.576   9.728  0.00  0.00    -0.421 N 
HETATM   25  C   UNK N   1      35.115  16.672  10.177  0.00  0.00     0.140 C 
HETATM   26  H   UNK N   1      33.038  15.913  10.059  0.00  0.00     0.153 HD
ENDBRANCH  23  24
ENDBRANCH   1  23
TORSDOF 5
ENDMDL
MODEL 6
REMARK VINA RESULT:      -6.8     15.859     18.339
REMARK  5 active torsions:
REMARK  status: ('A' for Active; 'I' for Inactive)
REMARK    1  A    between atoms: N_2  and  C_3 
REMARK    2  A    between atoms: C_3  and  C_4 
REMARK    3  A    between atoms: C_6  and  C_19 
REMARK    4  A    between atoms: N_7  and  S_9 
REMARK    5  A    between atoms: S_9  and  C_12 
ROOT
HETATM    1  C   UNK N   1      25.444  25.170  -9.778  0.00  0.00    -0.022 A 
HETATM    2  C   UNK N   1      25.730  26.352  -9.137  0.00  0.00     0.041 A 
HETATM    3  C   UNK N   1      25.958  26.019  -7.814  0.00  0.00     0.064 A 
HETATM    4  N   UNK N   1      25.815  24.671  -7.658  0.00  0.00    -0.245 N 
HETATM    5  C   UNK N   1      25.501  24.154  -8.858  0.00  0.00     0.118 A 
ENDROOT
BRANCH   4   6
HETATM    6  S   UNK N   1      26.060  23.624  -6.246  0.00  0.00     0.270 S 
HETATM    7  O   UNK N   1      24.941  23.980  -5.254  0.00  0.00    -0.200 OA
HETATM    8  O   UNK N   1      25.712  22.196  -6.698  0.00  0.00    -0.200 OA
BRANCH   6   9
HETATM    9  C   UNK N   1      27.684  23.762  -5.508  0.00  0.00     0.095 A 
HETATM   10  C   UNK N   1      27.898  24.669  -4.468  0.00  0.00     0.028 A 
HETATM   11  C   UNK N   1      29.172  24.806  -3.918  0.00  0.00     0.019 A 
HETATM   12  C   UNK N   1      30.218  24.028  -4.417  0.00  0.00     0.087 A 
HETATM   13  N   UNK N   1      29.990  23.147  -5.430  0.00  0.00    -0.374 N 
HETATM   14  C   UNK N   1      28.755  23.002  -5.983  0.00  0.00     0.112 A 
ATOM     15  HN  UNK N   1      30.764  22.583  -5.783  1.00  0.00     0.164 HD
ENDBRANCH   6   9
ENDBRANCH   4   6
BRANCH   3  16
HETATM   16  C   UNK N   1      26.331  27.023  -6.771  0.00  0.00     0.030 A 
HETATM   17  C   UNK N   1      27.582  27.653  -6.794  0.00  0.00     0.017 A 
HETATM   18  C   UNK N   1      27.936  28.592  -5.822  0.00  0.00     0.001 A 
HETATM   19  C   UNK N   1      27.036  28.919  -4.808  0.00  0.00     0.003 A 
HETATM   20  C   UNK N   1      25.786  28.307  -4.764  0.00  0.00     0.043 A 
HETATM   21  C   UNK N   1      25.427  27.363  -5.731  0.00  0.00     0.128 A 
HETATM   22  F   UNK N   1      24.196  26.799  -5.651  0.00  0.00    -0.205 F 
ENDBRANCH   3  16
BRANCH   1  23
HETATM   23  C   UNK N   1      25.187  25.015 -11.233  0.00  0.00     0.153 C 
BRANCH  23  24
HETATM   24  N   UNK N   1      24.181  25.981 -11.640  0.00  0.00    -0.421 N 
HETATM   25  C   UNK N   1      24.753  26.763 -12.720  0.00  0.00     0.140 C 
HETATM   26  H   UNK N   1      23.248  26.090 -11.242  0.00  0.00     0.153 HD
ENDBRANCH  23  24
ENDBRANCH   1  23
TORSDOF 5
ENDMDL
MODEL 7
REMARK VINA RESULT:      -6.7      2.347      4.284
REMARK  5 active torsions:
REMARK  status: ('A' for Active; 'I' for Inactive)
REMARK    1  A    between atoms: N_2  and  C_3 
REMARK    2  A    between atoms: C_3  and  C_4 
REMARK    3  A    between atoms: C_6  and  C_19 
REMARK    4  A    between atoms: N_7  and  S_9 
REMARK    5  A    between atoms: S_9  and  C_12 
ROOT
HETATM    1  C   UNK N   1      29.272  17.507   6.620  0.00  0.00    -0.022 A 
HETATM    2  C   UNK N   1      30.003  17.181   7.738  0.00  0.00     0.041 A 
HETATM    3  C   UNK N   1      31.276  16.885   7.284  0.00  0.00     0.064 A 
HETATM    4  N   UNK N   1      31.316  17.029   5.929  0.00  0.00    -0.245 N 
HETATM    5  C   UNK N   1      30.092  17.409   5.524  0.00  0.00     0.118 A 
ENDROOT
BRANCH   4   6
HETATM    6  S   UNK N   1      32.658  16.886   4.775  0.00  0.00     0.270 S 
HETATM    7  O   UNK N   1      32.026  16.980   3.377  0.00  0.00    -0.200 OA
HETATM    8  O   UNK N   1      33.478  18.180   4.899  0.00  0.00    -0.200 OA
BRANCH   6   9
HETATM    9  C   UNK N   1      33.635  15.400   4.974  0.00  0.00     0.095 A 
HETATM   10  C   UNK N   1      34.827  15.446   5.699  0.00  0.00     0.028 A 
HETATM   11  C   UNK N   1      35.609  14.298   5.822  0.00  0.00     0.019 A 
HETATM   12  C   UNK N   1      35.183  13.114   5.216  0.00  0.00     0.087 A 
HETATM   13  N   UNK N   1      34.017  13.087   4.515  0.00  0.00    -0.374 N 
HETATM   14  C   UNK N   1      33.241  14.198   4.380  0.00  0.00     0.112 A 
ATOM     15  HN  UNK N   1      33.716  12.214   4.080  1.00  0.00     0.164 HD
ENDBRANCH   6   9
ENDBRANCH   4   6
BRANCH   3  16
HETATM   16  C   UNK N   1      32.399  16.503   8.195  0.00  0.00     0.030 A 
HETATM   17  C   UNK N   1      32.486  15.209   8.726  0.00  0.00     0.017 A 
HETATM   18  C   UNK N   1      33.533  14.847   9.577  0.00  0.00     0.001 A 
HETATM   19  C   UNK N   1      34.516  15.779   9.909  0.00  0.00     0.003 A 
HETATM   20  C   UNK N   1      34.451  17.071   9.393  0.00  0.00     0.043 A 
HETATM   21  C   UNK N   1      33.404  17.442   8.545  0.00  0.00     0.128 A 
HETATM   22  F   UNK N   1      33.387  18.709   8.060  0.00  0.00    -0.205 F 
ENDBRANCH   3  16
BRANCH   1  23
HETATM   23  C   UNK N   1      27.857  17.958   6.613  0.00  0.00     0.153 C 
BRANCH  23  24
HETATM   24  N   UNK N   1      27.712  19.072   7.534  0.00  0.00    -0.421 N 
HETATM   25  C   UNK N   1      27.443  20.253   6.735  0.00  0.00     0.140 C 
HETATM   26  H   UNK N   1      27.785  19.032   8.550  0.00  0.00     0.153 HD
ENDBRANCH  23  24
ENDBRANCH   1  23
TORSDOF 5
ENDMDL
MODEL 8
REMARK VINA RESULT:      -6.7     14.296     17.034
REMARK  5 active torsions:
REMARK  status: ('A' for Active; 'I' for Inactive)
REMARK    1  A    between atoms: N_2  and  C_3 
REMARK    2  A    between atoms: C_3  and  C_4 
REMARK    3  A    between atoms: C_6  and  C_19 
REMARK    4  A    between atoms: N_7  and  S_9 
REMARK    5  A    between atoms: S_9  and  C_12 
ROOT
HETATM    1  C   UNK N   1      29.176  24.162  -4.334  0.00  0.00    -0.022 A 
HETATM    2  C   UNK N   1      28.765  23.163  -5.185  0.00  0.00     0.041 A 
HETATM    3  C   UNK N   1      27.658  23.663  -5.848  0.00  0.00     0.064 A 
HETATM    4  N   UNK N   1      27.406  24.931  -5.412  0.00  0.00    -0.245 N 
HETATM    5  C   UNK N   1      28.334  25.234  -4.487  0.00  0.00     0.118 A 
ENDROOT
BRANCH   4   6
HETATM    6  S   UNK N   1      26.201  26.128  -5.926  0.00  0.00     0.270 S 
HETATM    7  O   UNK N   1      26.293  26.191  -7.459  0.00  0.00    -0.200 OA
HETATM    8  O   UNK N   1      24.824  25.498  -5.664  0.00  0.00    -0.200 OA
BRANCH   6   9
HETATM    9  C   UNK N   1      26.405  27.738  -5.172  0.00  0.00     0.095 A 
HETATM   10  C   UNK N   1      27.290  28.660  -5.733  0.00  0.00     0.028 A 
HETATM   11  C   UNK N   1      27.479  29.900  -5.124  0.00  0.00     0.019 A 
HETATM   12  C   UNK N   1      26.774  30.202  -3.957  0.00  0.00     0.087 A 
HETATM   13  N   UNK N   1      25.913  29.291  -3.426  0.00  0.00    -0.374 N 
HETATM   14  C   UNK N   1      25.718  28.074  -4.003  0.00  0.00     0.112 A 
ATOM     15  HN  UNK N   1      25.402  29.527  -2.574  1.00  0.00     0.164 HD
ENDBRANCH   6   9
ENDBRANCH   4   6
BRANCH   3  16
HETATM   16  C   UNK N   1      26.916  22.894  -6.894  0.00  0.00     0.030 A 
HETATM   17  C   UNK N   1      25.621  22.416  -6.651  0.00  0.00     0.017 A 
HETATM   18  C   UNK N   1      24.923  21.697  -7.625  0.00  0.00     0.001 A 
HETATM   19  C   UNK N   1      25.513  21.445  -8.863  0.00  0.00     0.003 A 
HETATM   20  C   UNK N   1      26.800  21.910  -9.127  0.00  0.00     0.043 A 
HETATM   21  C   UNK N   1      27.505  22.626  -8.156  0.00  0.00     0.128 A 
HETATM   22  F   UNK N   1      28.752  23.066  -8.462  0.00  0.00    -0.205 F 
ENDBRANCH   3  16
BRANCH   1  23
HETATM   23  C   UNK N   1      30.371  24.111  -3.453  0.00  0.00     0.153 C 
BRANCH  23  24
HETATM   24  N   UNK N   1      30.263  22.955  -2.579  0.00  0.00    -0.421 N 
HETATM   25  C   UNK N   1      31.430  22.128  -2.818  0.00  0.00     0.140 C 
HETATM   26  H   UNK N   1      29.508  22.761  -1.921  0.00  0.00     0.153 HD
ENDBRANCH  23  24
ENDBRANCH   1  23
TORSDOF 5
ENDMDL
MODEL 9
REMARK VINA RESULT:      -6.6     13.173     15.841
REMARK  5 active torsions:
REMARK  status: ('A' for Active; 'I' for Inactive)
REMARK    1  A    between atoms: N_2  and  C_3 
REMARK    2  A    between atoms: C_3  and  C_4 
REMARK    3  A    between atoms: C_6  and  C_19 
REMARK    4  A    between atoms: N_7  and  S_9 
REMARK    5  A    between atoms: S_9  and  C_12 
ROOT
HETATM    1  C   UNK N   1      30.212  27.211  -3.703  0.00  0.00    -0.022 A 
HETATM    2  C   UNK N   1      30.789  25.987  -3.940  0.00  0.00     0.041 A 
HETATM    3  C   UNK N   1      29.743  25.085  -4.019  0.00  0.00     0.064 A 
HETATM    4  N   UNK N   1      28.564  25.746  -3.836  0.00  0.00    -0.245 N 
HETATM    5  C   UNK N   1      28.852  27.045  -3.643  0.00  0.00     0.118 A 
ENDROOT
BRANCH   4   6
HETATM    6  S   UNK N   1      26.882  25.183  -3.909  0.00  0.00     0.270 S 
HETATM    7  O   UNK N   1      26.772  24.041  -2.886  0.00  0.00    -0.200 OA
HETATM    8  O   UNK N   1      26.022  26.304  -3.305  0.00  0.00    -0.200 OA
BRANCH   6   9
HETATM    9  C   UNK N   1      26.352  24.678  -5.542  0.00  0.00     0.095 A 
HETATM   10  C   UNK N   1      26.153  23.324  -5.819  0.00  0.00     0.028 A 
HETATM   11  C   UNK N   1      25.778  22.926  -7.102  0.00  0.00     0.019 A 
HETATM   12  C   UNK N   1      25.605  23.894  -8.094  0.00  0.00     0.087 A 
HETATM   13  N   UNK N   1      25.801  25.210  -7.804  0.00  0.00    -0.374 N 
HETATM   14  C   UNK N   1      26.171  25.618  -6.560  0.00  0.00     0.112 A 
ATOM     15  HN  UNK N   1      25.667  25.907  -8.538  1.00  0.00     0.164 HD
ENDBRANCH   6   9
ENDBRANCH   4   6
BRANCH   3  16
HETATM   16  C   UNK N   1      29.938  23.628  -4.297  0.00  0.00     0.030 A 
HETATM   17  C   UNK N   1      29.814  23.122  -5.597  0.00  0.00     0.017 A 
HETATM   18  C   UNK N   1      29.995  21.762  -5.862  0.00  0.00     0.001 A 
HETATM   19  C   UNK N   1      30.309  20.885  -4.825  0.00  0.00     0.003 A 
HETATM   20  C   UNK N   1      30.438  21.365  -3.523  0.00  0.00     0.043 A 
HETATM   21  C   UNK N   1      30.253  22.724  -3.250  0.00  0.00     0.128 A 
HETATM   22  F   UNK N   1      30.398  23.146  -1.969  0.00  0.00    -0.205 F 
ENDBRANCH   3  16
BRANCH   1  23
HETATM   23  C   UNK N   1      30.938  28.504  -3.600  0.00  0.00     0.153 C 
BRANCH  23  24
HETATM   24  N   UNK N   1      31.471  28.640  -2.256  0.00  0.00    -0.421 N 
HETATM   25  C   UNK N   1      30.647  29.614  -1.566  0.00  0.00     0.140 C 
HETATM   26  H   UNK N   1      32.275  28.144  -1.869  0.00  0.00     0.153 HD
ENDBRANCH  23  24
ENDBRANCH   1  23
TORSDOF 5
ENDMDL
