MODEL 1
REMARK VINA RESULT:      -7.4      0.000      0.000
REMARK  29 active torsions:
REMARK  status: ('A' for Active; 'I' for Inactive)
REMARK    1  A    between atoms: C_2  and  C_3 
REMARK    2  A    between atoms: C_3  and  C_5 
REMARK    3  A    between atoms: C_5  and  C_6 
REMARK    4  A    between atoms: C_5  and  N_27 
REMARK       I    between atoms: C_6  and  N_8 
REMARK    5  A    between atoms: C_9  and  N_8 
REMARK    6  A    between atoms: C_9  and  C_10 
REMARK    7  A    between atoms: C_9  and  C_17 
REMARK    8  A    between atoms: C_10  and  C_11 
REMARK       I    between atoms: C_17  and  N_19 
REMARK    9  A    between atoms: C_23  and  C_24 
REMARK   10  A    between atoms: C_24  and  O_26 
REMARK       I    between atoms: N_27  and  C_28 
REMARK   11  A    between atoms: C_28  and  C_30 
REMARK   12  A    between atoms: C_30  and  C_31 
REMARK   13  A    between atoms: C_30  and  N_39 
REMARK   14  A    between atoms: C_31  and  C_32 
REMARK   15  A    between atoms: C_35  and  O_38 
REMARK       I    between atoms: N_39  and  C_40 
REMARK   16  A    between atoms: C_40  and  C_42 
REMARK   17  A    between atoms: C_42  and  C_43 
REMARK   18  A    between atoms: C_42  and  N_46 
REMARK       I    between atoms: N_46  and  C_47 
REMARK   19  A    between atoms: C_47  and  C_49 
REMARK   20  A    between atoms: C_49  and  C_50 
REMARK   21  A    between atoms: C_49  and  N_58 
REMARK   22  A    between atoms: C_50  and  C_51 
REMARK   23  A    between atoms: C_51  and  C_52 
REMARK   24  A    between atoms: C_52  and  N_53 
REMARK       I    between atoms: N_53  and  C_54 
REMARK       I    between atoms: C_54  and  N_57 
REMARK       I    between atoms: N_58  and  C_59 
REMARK   25  A    between atoms: C_59  and  C_61 
REMARK   26  A    between atoms: C_61  and  C_62 
REMARK   27  A    between atoms: C_61  and  N_66 
REMARK   28  A    between atoms: C_62  and  C_63 
REMARK   29  A    between atoms: C_63  and  O_65 
ROOT
HETATM    1  C   UNK N   1      24.228  13.408   6.295  0.00  0.00     0.180 C 
ENDROOT
BRANCH   1   2
HETATM    2  C   UNK N   1      24.287  14.885   5.928  0.00  0.00     0.241 C 
HETATM    3  N   UNK N   1      25.202  15.456   5.102  0.00  0.00    -0.346 N 
HETATM    4  H   UNK N   1      25.203  16.439   5.049  0.00  0.00     0.163 HD
HETATM    5  O   UNK N   1      23.456  15.616   6.444  0.00  0.00    -0.271 OA
BRANCH   3   6
HETATM    6  C   UNK N   1      26.168  14.762   4.295  0.00  0.00     0.180 C 
BRANCH   6   7
HETATM    7  C   UNK N   1      26.552  15.608   3.065  0.00  0.00     0.013 C 
HETATM    8  C   UNK N   1      27.814  15.067   2.417  0.00  0.00     0.012 C 
BRANCH   7   9
HETATM    9  C   UNK N   1      25.464  15.701   2.004  0.00  0.00     0.002 C 
HETATM   10  C   UNK N   1      24.935  14.321   1.657  0.00  0.00     0.005 C 
ENDBRANCH   7   9
ENDBRANCH   6   7
BRANCH   6  11
HETATM   11  C   UNK N   1      27.433  14.392   5.054  0.00  0.00     0.241 C 
HETATM   12  O   UNK N   1      27.862  13.260   4.906  0.00  0.00    -0.271 OA
HETATM   13  N   UNK N   1      28.144  15.248   5.843  0.00  0.00    -0.346 N 
HETATM   14  H   UNK N   1      29.020  14.924   6.156  0.00  0.00     0.163 HD
BRANCH  13  15
HETATM   15  C   UNK N   1      27.765  16.580   6.276  0.00  0.00     0.182 C 
BRANCH  15  16
HETATM   16  C   UNK N   1      27.611  16.732   7.796  0.00  0.00     0.093 C 
BRANCH  16  17
HETATM   17  C   UNK N   1      28.739  17.448   8.475  0.00  0.00     0.028 A 
HETATM   18  C   UNK N   1      30.060  17.075   8.483  0.00  0.00     0.114 A 
HETATM   19  N   UNK N   1      30.739  17.992   9.198  0.00  0.00    -0.360 N 
HETATM   20  C   UNK N   1      29.825  18.900   9.601  0.00  0.00     0.180 A 
HETATM   21  H   UNK N   1      31.706  17.999   9.389  0.00  0.00     0.166 HD
HETATM   22  N   UNK N   1      28.588  18.588   9.166  0.00  0.00    -0.354 N 
ATOM     23  HN  UNK N   1      27.724  19.106   9.328  1.00  0.00     0.166 HD
ENDBRANCH  16  17
ENDBRANCH  15  16
BRANCH  15  24
HETATM   24  C   UNK N   1      28.270  17.823   5.558  0.00  0.00     0.243 C 
HETATM   25  O   UNK N   1      29.397  17.762   5.096  0.00  0.00    -0.271 OA
HETATM   26  N   UNK N   1      27.562  18.990   5.435  0.00  0.00    -0.336 N 
HETATM   27  C   UNK N   1      28.185  20.159   4.864  0.00  0.00     0.127 C 
HETATM   28  C   UNK N   1      26.240  19.227   5.942  0.00  0.00     0.185 C 
HETATM   29  C   UNK N   1      27.199  21.288   5.105  0.00  0.00     0.022 C 
HETATM   30  C   UNK N   1      26.189  20.738   6.107  0.00  0.00     0.038 C 
BRANCH  28  31
HETATM   31  C   UNK N   1      25.202  18.825   4.926  0.00  0.00     0.163 C 
HETATM   32  O   UNK N   1      25.413  18.972   3.730  0.00  0.00    -0.648 OA
BRANCH  31  33
HETATM   33  O   UNK N   1      24.014  18.352   5.337  0.00  0.00    -0.775 OA
HETATM   34  H   UNK N   1      23.116  18.504   5.119  0.00  0.00     0.167 HD
ENDBRANCH  31  33
ENDBRANCH  28  31
ENDBRANCH  15  24
ENDBRANCH  13  15
ENDBRANCH   6  11
ENDBRANCH   3   6
ENDBRANCH   1   2
BRANCH   1  35
HETATM   35  C   UNK N   1      25.039  13.180   7.581  0.00  0.00     0.073 C 
BRANCH  35  36
HETATM   36  C   UNK N   1      24.265  12.707   8.789  0.00  0.00    -0.056 A 
HETATM   37  C   UNK N   1      22.900  12.385   8.721  0.00  0.00     0.010 A 
HETATM   38  C   UNK N   1      22.206  11.981   9.863  0.00  0.00     0.037 A 
HETATM   39  C   UNK N   1      22.872  11.890  11.085  0.00  0.00     0.065 A 
HETATM   40  C   UNK N   1      24.232  12.203  11.164  0.00  0.00     0.037 A 
HETATM   41  C   UNK N   1      24.925  12.616  10.020  0.00  0.00     0.010 A 
BRANCH  39  42
HETATM   42  O   UNK N   1      22.205  11.504  12.184  0.00  0.00    -0.361 OA
HETATM   43  H   UNK N   1      21.271  11.447  12.238  0.00  0.00     0.217 HD
ENDBRANCH  39  42
ENDBRANCH  35  36
ENDBRANCH   1  35
BRANCH   1  44
HETATM   44  N   UNK N   1      24.602  12.413   5.306  0.00  0.00    -0.346 N 
HETATM   45  C   UNK N   1      23.702  11.744   4.529  0.00  0.00     0.241 C 
HETATM   46  O   UNK N   1      24.082  10.783   3.880  0.00  0.00    -0.271 OA
HETATM   47  H   UNK N   1      25.557  12.210   5.190  0.00  0.00     0.163 HD
BRANCH  45  48
HETATM   48  C   UNK N   1      22.252  12.166   4.408  0.00  0.00     0.180 C 
BRANCH  48  49
HETATM   49  C   UNK N   1      21.383  10.953   4.770  0.00  0.00     0.009 C 
HETATM   50  C   UNK N   1      20.346  11.371   5.797  0.00  0.00     0.012 C 
HETATM   51  C   UNK N   1      20.666  10.336   3.583  0.00  0.00     0.012 C 
ENDBRANCH  48  49
BRANCH  48  52
HETATM   52  N   UNK N   1      21.957  12.634   3.072  0.00  0.00    -0.346 N 
HETATM   53  C   UNK N   1      21.417  13.839   2.759  0.00  0.00     0.241 C 
HETATM   54  O   UNK N   1      21.137  14.064   1.594  0.00  0.00    -0.271 OA
HETATM   55  H   UNK N   1      22.165  12.027   2.326  0.00  0.00     0.163 HD
BRANCH  53  56
HETATM   56  C   UNK N   1      21.125  14.921   3.773  0.00  0.00     0.176 C 
BRANCH  56  57
HETATM   57  C   UNK N   1      21.656  16.282   3.336  0.00  0.00     0.036 C 
BRANCH  57  58
HETATM   58  C   UNK N   1      20.541  17.229   2.902  0.00  0.00     0.023 C 
BRANCH  58  59
HETATM   59  C   UNK N   1      20.651  18.615   3.529  0.00  0.00     0.138 C 
BRANCH  59  60
HETATM   60  N   UNK N   1      21.986  19.142   3.374  0.00  0.00    -0.227 N 
HETATM   61  C   UNK N   1      22.238  20.420   2.809  0.00  0.00     0.665 C 
HETATM   62  N   UNK N   1      23.443  20.837   2.695  0.00  0.00    -0.235 N 
HETATM   63  N   UNK N   1      21.170  21.243   2.381  0.00  0.00    -0.235 N 
HETATM   64  H   UNK N   1      23.769  21.766   2.711  0.00  0.00     0.174 HD
ATOM     65  HN  UNK N   1      24.154  20.117   2.573  1.00  0.00     0.174 HD
HETATM   66  H   UNK N   1      20.524  20.966   1.693  0.00  0.00     0.174 HD
HETATM   67  H   UNK N   1      21.067  22.133   2.792  0.00  0.00     0.174 HD
HETATM   68  H   UNK N   1      22.750  18.595   3.670  0.00  0.00     0.177 HD
ENDBRANCH  59  60
ENDBRANCH  58  59
ENDBRANCH  57  58
ENDBRANCH  56  57
BRANCH  56  69
HETATM   69  N   UNK N   1      19.734  15.037   4.172  0.00  0.00    -0.346 N 
HETATM   70  C   UNK N   1      19.287  15.514   5.366  0.00  0.00     0.241 C 
HETATM   71  O   UNK N   1      18.086  15.666   5.529  0.00  0.00    -0.271 OA
HETATM   72  H   UNK N   1      19.054  14.744   3.523  0.00  0.00     0.163 HD
BRANCH  70  73
HETATM   73  C   UNK N   1      20.228  15.798   6.509  0.00  0.00     0.177 C 
BRANCH  73  74
HETATM   74  C   UNK N   1      19.753  16.876   7.487  0.00  0.00     0.144 C 
BRANCH  74  75
HETATM   75  C   UNK N   1      20.635  18.087   7.554  0.00  0.00     0.141 C 
HETATM   76  O   UNK N   1      20.349  18.999   8.310  0.00  0.00    -0.650 OA
BRANCH  75  77
HETATM   77  O   UNK N   1      21.724  18.185   6.767  0.00  0.00    -0.776 OA
HETATM   78  H   UNK N   1      21.953  17.543   6.125  0.00  0.00     0.167 HD
ENDBRANCH  75  77
ENDBRANCH  74  75
ENDBRANCH  73  74
BRANCH  73  79
HETATM   79  N   UNK N   1      20.542  14.564   7.212  0.00  0.00    -0.418 N 
HETATM   80  H   UNK N   1      21.302  13.965   6.889  0.00  0.00     0.150 HD
HETATM   81  H   UNK N   1      20.000  14.297   8.034  0.00  0.00     0.150 HD
ENDBRANCH  73  79
ENDBRANCH  70  73
ENDBRANCH  56  69
ENDBRANCH  53  56
ENDBRANCH  48  52
ENDBRANCH  45  48
ENDBRANCH   1  44
TORSDOF 29
ENDMDL
MODEL 2
REMARK VINA RESULT:      -7.1      2.828      5.942
REMARK  29 active torsions:
REMARK  status: ('A' for Active; 'I' for Inactive)
REMARK    1  A    between atoms: C_2  and  C_3 
REMARK    2  A    between atoms: C_3  and  C_5 
REMARK    3  A    between atoms: C_5  and  C_6 
REMARK    4  A    between atoms: C_5  and  N_27 
REMARK       I    between atoms: C_6  and  N_8 
REMARK    5  A    between atoms: C_9  and  N_8 
REMARK    6  A    between atoms: C_9  and  C_10 
REMARK    7  A    between atoms: C_9  and  C_17 
REMARK    8  A    between atoms: C_10  and  C_11 
REMARK       I    between atoms: C_17  and  N_19 
REMARK    9  A    between atoms: C_23  and  C_24 
REMARK   10  A    between atoms: C_24  and  O_26 
REMARK       I    between atoms: N_27  and  C_28 
REMARK   11  A    between atoms: C_28  and  C_30 
REMARK   12  A    between atoms: C_30  and  C_31 
REMARK   13  A    between atoms: C_30  and  N_39 
REMARK   14  A    between atoms: C_31  and  C_32 
REMARK   15  A    between atoms: C_35  and  O_38 
REMARK       I    between atoms: N_39  and  C_40 
REMARK   16  A    between atoms: C_40  and  C_42 
REMARK   17  A    between atoms: C_42  and  C_43 
REMARK   18  A    between atoms: C_42  and  N_46 
REMARK       I    between atoms: N_46  and  C_47 
REMARK   19  A    between atoms: C_47  and  C_49 
REMARK   20  A    between atoms: C_49  and  C_50 
REMARK   21  A    between atoms: C_49  and  N_58 
REMARK   22  A    between atoms: C_50  and  C_51 
REMARK   23  A    between atoms: C_51  and  C_52 
REMARK   24  A    between atoms: C_52  and  N_53 
REMARK       I    between atoms: N_53  and  C_54 
REMARK       I    between atoms: C_54  and  N_57 
REMARK       I    between atoms: N_58  and  C_59 
REMARK   25  A    between atoms: C_59  and  C_61 
REMARK   26  A    between atoms: C_61  and  C_62 
REMARK   27  A    between atoms: C_61  and  N_66 
REMARK   28  A    between atoms: C_62  and  C_63 
REMARK   29  A    between atoms: C_63  and  O_65 
ROOT
HETATM    1  C   UNK N   1      24.089  15.680   4.310  0.00  0.00     0.180 C 
ENDROOT
BRANCH   1   2
HETATM    2  C   UNK N   1      24.320  15.063   2.936  0.00  0.00     0.241 C 
HETATM    3  N   UNK N   1      25.515  14.629   2.458  0.00  0.00    -0.346 N 
HETATM    4  H   UNK N   1      25.547  14.368   1.509  0.00  0.00     0.163 HD
HETATM    5  O   UNK N   1      23.351  14.980   2.199  0.00  0.00    -0.271 OA
BRANCH   3   6
HETATM    6  C   UNK N   1      26.737  14.514   3.204  0.00  0.00     0.180 C 
BRANCH   6   7
HETATM    7  C   UNK N   1      26.975  13.051   3.628  0.00  0.00     0.013 C 
HETATM    8  C   UNK N   1      26.898  12.912   5.138  0.00  0.00     0.012 C 
BRANCH   7   9
HETATM    9  C   UNK N   1      26.015  12.051   2.999  0.00  0.00     0.002 C 
HETATM   10  C   UNK N   1      26.688  11.307   1.859  0.00  0.00     0.005 C 
ENDBRANCH   7   9
ENDBRANCH   6   7
BRANCH   6  11
HETATM   11  C   UNK N   1      27.957  15.013   2.446  0.00  0.00     0.241 C 
HETATM   12  O   UNK N   1      28.127  14.584   1.316  0.00  0.00    -0.271 OA
HETATM   13  N   UNK N   1      28.839  15.941   2.917  0.00  0.00    -0.346 N 
HETATM   14  H   UNK N   1      29.496  16.283   2.269  0.00  0.00     0.163 HD
BRANCH  13  15
HETATM   15  C   UNK N   1      28.923  16.486   4.259  0.00  0.00     0.182 C 
BRANCH  15  16
HETATM   16  C   UNK N   1      30.259  16.220   4.968  0.00  0.00     0.093 C 
BRANCH  16  17
HETATM   17  C   UNK N   1      31.418  15.966   4.053  0.00  0.00     0.028 A 
HETATM   18  C   UNK N   1      32.133  16.908   3.355  0.00  0.00     0.114 A 
HETATM   19  N   UNK N   1      33.092  16.264   2.663  0.00  0.00    -0.360 N 
HETATM   20  C   UNK N   1      32.945  14.954   2.958  0.00  0.00     0.180 A 
HETATM   21  H   UNK N   1      33.762  16.665   2.063  0.00  0.00     0.166 HD
HETATM   22  N   UNK N   1      31.924  14.747   3.813  0.00  0.00    -0.354 N 
ATOM     23  HN  UNK N   1      31.604  13.856   4.194  1.00  0.00     0.166 HD
ENDBRANCH  16  17
ENDBRANCH  15  16
BRANCH  15  24
HETATM   24  C   UNK N   1      28.259  17.804   4.625  0.00  0.00     0.243 C 
HETATM   25  O   UNK N   1      27.853  18.483   3.697  0.00  0.00    -0.271 OA
HETATM   26  N   UNK N   1      28.124  18.277   5.905  0.00  0.00    -0.336 N 
HETATM   27  C   UNK N   1      27.610  19.605   6.136  0.00  0.00     0.127 C 
HETATM   28  C   UNK N   1      28.569  17.612   7.096  0.00  0.00     0.185 C 
HETATM   29  C   UNK N   1      27.825  19.857   7.618  0.00  0.00     0.022 C 
HETATM   30  C   UNK N   1      28.763  18.749   8.087  0.00  0.00     0.038 C 
BRANCH  28  31
HETATM   31  C   UNK N   1      27.493  16.699   7.627  0.00  0.00     0.163 C 
HETATM   32  O   UNK N   1      26.884  15.951   6.873  0.00  0.00    -0.648 OA
BRANCH  31  33
HETATM   33  O   UNK N   1      27.162  16.743   8.928  0.00  0.00    -0.775 OA
HETATM   34  H   UNK N   1      27.195  16.151   9.653  0.00  0.00     0.167 HD
ENDBRANCH  31  33
ENDBRANCH  28  31
ENDBRANCH  15  24
ENDBRANCH  13  15
ENDBRANCH   6  11
ENDBRANCH   3   6
ENDBRANCH   1   2
BRANCH   1  35
HETATM   35  C   UNK N   1      24.762  17.062   4.356  0.00  0.00     0.073 C 
BRANCH  35  36
HETATM   36  C   UNK N   1      23.927  18.233   3.896  0.00  0.00    -0.056 A 
HETATM   37  C   UNK N   1      22.527  18.164   3.816  0.00  0.00     0.010 A 
HETATM   38  C   UNK N   1      21.785  19.255   3.357  0.00  0.00     0.037 A 
HETATM   39  C   UNK N   1      22.437  20.427   2.977  0.00  0.00     0.065 A 
HETATM   40  C   UNK N   1      23.831  20.509   3.056  0.00  0.00     0.037 A 
HETATM   41  C   UNK N   1      24.573  19.413   3.510  0.00  0.00     0.010 A 
BRANCH  39  42
HETATM   42  O   UNK N   1      21.725  21.476   2.532  0.00  0.00    -0.361 OA
HETATM   43  H   UNK N   1      22.106  22.260   2.188  0.00  0.00     0.217 HD
ENDBRANCH  39  42
ENDBRANCH  35  36
ENDBRANCH   1  35
BRANCH   1  44
HETATM   44  N   UNK N   1      24.449  14.928   5.497  0.00  0.00    -0.346 N 
HETATM   45  C   UNK N   1      23.582  14.666   6.518  0.00  0.00     0.241 C 
HETATM   46  O   UNK N   1      24.021  14.214   7.564  0.00  0.00    -0.271 OA
HETATM   47  H   UNK N   1      25.370  14.589   5.571  0.00  0.00     0.163 HD
BRANCH  45  48
HETATM   48  C   UNK N   1      22.087  14.879   6.397  0.00  0.00     0.180 C 
BRANCH  48  49
HETATM   49  C   UNK N   1      21.696  15.995   7.376  0.00  0.00     0.009 C 
HETATM   50  C   UNK N   1      20.871  17.037   6.641  0.00  0.00     0.012 C 
HETATM   51  C   UNK N   1      20.903  15.510   8.575  0.00  0.00     0.012 C 
ENDBRANCH  48  49
BRANCH  48  52
HETATM   52  N   UNK N   1      21.364  13.661   6.685  0.00  0.00    -0.346 N 
HETATM   53  C   UNK N   1      20.796  12.844   5.763  0.00  0.00     0.241 C 
HETATM   54  O   UNK N   1      20.136  11.897   6.156  0.00  0.00    -0.271 OA
HETATM   55  H   UNK N   1      21.277  13.402   7.630  0.00  0.00     0.163 HD
BRANCH  53  56
HETATM   56  C   UNK N   1      20.916  13.044   4.271  0.00  0.00     0.176 C 
BRANCH  56  57
HETATM   57  C   UNK N   1      21.972  12.138   3.648  0.00  0.00     0.036 C 
BRANCH  57  58
HETATM   58  C   UNK N   1      21.363  10.917   2.965  0.00  0.00     0.023 C 
BRANCH  58  59
HETATM   59  C   UNK N   1      21.647  10.861   1.468  0.00  0.00     0.138 C 
BRANCH  59  60
HETATM   60  N   UNK N   1      22.209  12.109   1.007  0.00  0.00    -0.227 N 
HETATM   61  C   UNK N   1      23.281  12.162   0.077  0.00  0.00     0.665 C 
HETATM   62  N   UNK N   1      23.740  13.297  -0.297  0.00  0.00    -0.235 N 
HETATM   63  N   UNK N   1      23.839  10.974  -0.449  0.00  0.00    -0.235 N 
HETATM   64  H   UNK N   1      24.158  13.531  -1.157  0.00  0.00     0.174 HD
ATOM     65  HN  UNK N   1      23.662  14.055   0.381  1.00  0.00     0.174 HD
HETATM   66  H   UNK N   1      24.245  10.279   0.116  0.00  0.00     0.174 HD
HETATM   67  H   UNK N   1      23.821  10.837  -1.425  0.00  0.00     0.174 HD
HETATM   68  H   UNK N   1      21.834  12.953   1.349  0.00  0.00     0.177 HD
ENDBRANCH  59  60
ENDBRANCH  58  59
ENDBRANCH  57  58
ENDBRANCH  56  57
BRANCH  56  69
HETATM   69  N   UNK N   1      19.672  12.937   3.528  0.00  0.00    -0.346 N 
HETATM   70  C   UNK N   1      19.279  13.754   2.513  0.00  0.00     0.241 C 
HETATM   71  O   UNK N   1      18.261  13.483   1.897  0.00  0.00    -0.271 OA
HETATM   72  H   UNK N   1      19.058  12.210   3.782  0.00  0.00     0.163 HD
BRANCH  70  73
HETATM   73  C   UNK N   1      20.031  15.016   2.174  0.00  0.00     0.177 C 
BRANCH  73  74
HETATM   74  C   UNK N   1      20.240  15.264   0.678  0.00  0.00     0.144 C 
BRANCH  74  75
HETATM   75  C   UNK N   1      19.609  16.524   0.164  0.00  0.00     0.141 C 
HETATM   76  O   UNK N   1      20.311  17.488  -0.091  0.00  0.00    -0.650 OA
BRANCH  75  77
HETATM   77  O   UNK N   1      18.274  16.607   0.007  0.00  0.00    -0.776 OA
HETATM   78  H   UNK N   1      17.755  17.290   0.383  0.00  0.00     0.167 HD
ENDBRANCH  75  77
ENDBRANCH  74  75
ENDBRANCH  73  74
BRANCH  73  79
HETATM   79  N   UNK N   1      19.392  16.160   2.805  0.00  0.00    -0.418 N 
HETATM   80  H   UNK N   1      19.683  16.467   3.733  0.00  0.00     0.150 HD
HETATM   81  H   UNK N   1      18.650  16.659   2.315  0.00  0.00     0.150 HD
ENDBRANCH  73  79
ENDBRANCH  70  73
ENDBRANCH  56  69
ENDBRANCH  53  56
ENDBRANCH  48  52
ENDBRANCH  45  48
ENDBRANCH   1  44
TORSDOF 29
ENDMDL
MODEL 3
REMARK VINA RESULT:      -7.0      1.718      3.350
REMARK  29 active torsions:
REMARK  status: ('A' for Active; 'I' for Inactive)
REMARK    1  A    between atoms: C_2  and  C_3 
REMARK    2  A    between atoms: C_3  and  C_5 
REMARK    3  A    between atoms: C_5  and  C_6 
REMARK    4  A    between atoms: C_5  and  N_27 
REMARK       I    between atoms: C_6  and  N_8 
REMARK    5  A    between atoms: C_9  and  N_8 
REMARK    6  A    between atoms: C_9  and  C_10 
REMARK    7  A    between atoms: C_9  and  C_17 
REMARK    8  A    between atoms: C_10  and  C_11 
REMARK       I    between atoms: C_17  and  N_19 
REMARK    9  A    between atoms: C_23  and  C_24 
REMARK   10  A    between atoms: C_24  and  O_26 
REMARK       I    between atoms: N_27  and  C_28 
REMARK   11  A    between atoms: C_28  and  C_30 
REMARK   12  A    between atoms: C_30  and  C_31 
REMARK   13  A    between atoms: C_30  and  N_39 
REMARK   14  A    between atoms: C_31  and  C_32 
REMARK   15  A    between atoms: C_35  and  O_38 
REMARK       I    between atoms: N_39  and  C_40 
REMARK   16  A    between atoms: C_40  and  C_42 
REMARK   17  A    between atoms: C_42  and  C_43 
REMARK   18  A    between atoms: C_42  and  N_46 
REMARK       I    between atoms: N_46  and  C_47 
REMARK   19  A    between atoms: C_47  and  C_49 
REMARK   20  A    between atoms: C_49  and  C_50 
REMARK   21  A    between atoms: C_49  and  N_58 
REMARK   22  A    between atoms: C_50  and  C_51 
REMARK   23  A    between atoms: C_51  and  C_52 
REMARK   24  A    between atoms: C_52  and  N_53 
REMARK       I    between atoms: N_53  and  C_54 
REMARK       I    between atoms: C_54  and  N_57 
REMARK       I    between atoms: N_58  and  C_59 
REMARK   25  A    between atoms: C_59  and  C_61 
REMARK   26  A    between atoms: C_61  and  C_62 
REMARK   27  A    between atoms: C_61  and  N_66 
REMARK   28  A    between atoms: C_62  and  C_63 
REMARK   29  A    between atoms: C_63  and  O_65 
ROOT
HETATM    1  C   UNK N   1      24.077  13.631   6.400  0.00  0.00     0.180 C 
ENDROOT
BRANCH   1   2
HETATM    2  C   UNK N   1      24.272  15.053   5.887  0.00  0.00     0.241 C 
HETATM    3  N   UNK N   1      25.251  15.456   5.037  0.00  0.00    -0.346 N 
HETATM    4  H   UNK N   1      25.338  16.425   4.885  0.00  0.00     0.163 HD
HETATM    5  O   UNK N   1      23.495  15.899   6.299  0.00  0.00    -0.271 OA
BRANCH   3   6
HETATM    6  C   UNK N   1      26.173  14.604   4.337  0.00  0.00     0.180 C 
BRANCH   6   7
HETATM    7  C   UNK N   1      26.518  15.199   2.958  0.00  0.00     0.013 C 
HETATM    8  C   UNK N   1      25.904  16.579   2.802  0.00  0.00     0.012 C 
BRANCH   7   9
HETATM    9  C   UNK N   1      28.011  15.299   2.673  0.00  0.00     0.002 C 
HETATM   10  C   UNK N   1      28.415  14.315   1.588  0.00  0.00     0.005 C 
ENDBRANCH   7   9
ENDBRANCH   6   7
BRANCH   6  11
HETATM   11  C   UNK N   1      27.462  14.351   5.103  0.00  0.00     0.241 C 
HETATM   12  O   UNK N   1      27.949  13.235   5.025  0.00  0.00    -0.271 OA
HETATM   13  N   UNK N   1      28.136  15.295   5.823  0.00  0.00    -0.346 N 
HETATM   14  H   UNK N   1      29.030  15.038   6.145  0.00  0.00     0.163 HD
BRANCH  13  15
HETATM   15  C   UNK N   1      27.691  16.632   6.170  0.00  0.00     0.182 C 
BRANCH  15  16
HETATM   16  C   UNK N   1      27.387  16.831   7.661  0.00  0.00     0.093 C 
BRANCH  16  17
HETATM   17  C   UNK N   1      28.502  17.436   8.457  0.00  0.00     0.028 A 
HETATM   18  C   UNK N   1      29.819  17.048   8.452  0.00  0.00     0.114 A 
HETATM   19  N   UNK N   1      30.487  17.855   9.297  0.00  0.00    -0.360 N 
HETATM   20  C   UNK N   1      29.571  18.715   9.791  0.00  0.00     0.180 A 
HETATM   21  H   UNK N   1      31.448  17.824   9.513  0.00  0.00     0.166 HD
HETATM   22  N   UNK N   1      28.344  18.479   9.287  0.00  0.00    -0.354 N 
ATOM     23  HN  UNK N   1      27.481  18.983   9.492  1.00  0.00     0.166 HD
ENDBRANCH  16  17
ENDBRANCH  15  16
BRANCH  15  24
HETATM   24  C   UNK N   1      28.242  17.860   5.462  0.00  0.00     0.243 C 
HETATM   25  O   UNK N   1      29.313  17.726   4.895  0.00  0.00    -0.271 OA
HETATM   26  N   UNK N   1      27.634  19.089   5.454  0.00  0.00    -0.336 N 
HETATM   27  C   UNK N   1      28.307  20.227   4.878  0.00  0.00     0.127 C 
HETATM   28  C   UNK N   1      26.389  19.414   6.091  0.00  0.00     0.185 C 
HETATM   29  C   UNK N   1      27.453  21.424   5.256  0.00  0.00     0.022 C 
HETATM   30  C   UNK N   1      26.490  20.913   6.324  0.00  0.00     0.038 C 
BRANCH  28  31
HETATM   31  C   UNK N   1      25.233  19.155   5.159  0.00  0.00     0.163 C 
HETATM   32  O   UNK N   1      25.208  19.659   4.044  0.00  0.00    -0.648 OA
BRANCH  31  33
HETATM   33  O   UNK N   1      24.196  18.408   5.573  0.00  0.00    -0.775 OA
HETATM   34  H   UNK N   1      23.266  18.425   5.460  0.00  0.00     0.167 HD
ENDBRANCH  31  33
ENDBRANCH  28  31
ENDBRANCH  15  24
ENDBRANCH  13  15
ENDBRANCH   6  11
ENDBRANCH   3   6
ENDBRANCH   1   2
BRANCH   1  35
HETATM   35  C   UNK N   1      24.923  13.438   7.669  0.00  0.00     0.073 C 
BRANCH  35  36
HETATM   36  C   UNK N   1      24.184  12.989   8.908  0.00  0.00    -0.056 A 
HETATM   37  C   UNK N   1      22.795  13.138   9.043  0.00  0.00     0.010 A 
HETATM   38  C   UNK N   1      22.147  12.739  10.213  0.00  0.00     0.037 A 
HETATM   39  C   UNK N   1      22.882  12.183  11.260  0.00  0.00     0.065 A 
HETATM   40  C   UNK N   1      24.265  12.026  11.135  0.00  0.00     0.037 A 
HETATM   41  C   UNK N   1      24.915  12.432   9.964  0.00  0.00     0.010 A 
BRANCH  39  42
HETATM   42  O   UNK N   1      22.260  11.803  12.388  0.00  0.00    -0.361 OA
HETATM   43  H   UNK N   1      22.132  12.361  13.129  0.00  0.00     0.217 HD
ENDBRANCH  39  42
ENDBRANCH  35  36
ENDBRANCH   1  35
BRANCH   1  44
HETATM   44  N   UNK N   1      24.294  12.514   5.500  0.00  0.00    -0.346 N 
HETATM   45  C   UNK N   1      23.307  11.943   4.750  0.00  0.00     0.241 C 
HETATM   46  O   UNK N   1      23.531  10.884   4.187  0.00  0.00    -0.271 OA
HETATM   47  H   UNK N   1      25.204  12.146   5.427  0.00  0.00     0.163 HD
BRANCH  45  48
HETATM   48  C   UNK N   1      21.950  12.589   4.557  0.00  0.00     0.180 C 
BRANCH  48  49
HETATM   49  C   UNK N   1      21.072  12.191   5.750  0.00  0.00     0.009 C 
HETATM   50  C   UNK N   1      20.404  13.433   6.315  0.00  0.00     0.012 C 
HETATM   51  C   UNK N   1      19.995  11.176   5.410  0.00  0.00     0.012 C 
ENDBRANCH  48  49
BRANCH  48  52
HETATM   52  N   UNK N   1      21.350  12.171   3.310  0.00  0.00    -0.346 N 
HETATM   53  C   UNK N   1      21.237  12.934   2.193  0.00  0.00     0.241 C 
HETATM   54  O   UNK N   1      20.623  12.482   1.242  0.00  0.00    -0.271 OA
HETATM   55  H   UNK N   1      20.992  11.255   3.267  0.00  0.00     0.163 HD
BRANCH  53  56
HETATM   56  C   UNK N   1      21.814  14.324   2.060  0.00  0.00     0.176 C 
BRANCH  56  57
HETATM   57  C   UNK N   1      23.315  14.305   1.797  0.00  0.00     0.036 C 
BRANCH  57  58
HETATM   58  C   UNK N   1      23.658  13.757   0.415  0.00  0.00     0.023 C 
BRANCH  58  59
HETATM   59  C   UNK N   1      24.380  12.415   0.463  0.00  0.00     0.138 C 
BRANCH  59  60
HETATM   60  N   UNK N   1      24.941  12.182   1.773  0.00  0.00    -0.227 N 
HETATM   61  C   UNK N   1      26.118  11.411   1.970  0.00  0.00     0.665 C 
HETATM   62  N   UNK N   1      26.570  11.237   3.155  0.00  0.00    -0.235 N 
HETATM   63  N   UNK N   1      26.802  10.845   0.869  0.00  0.00    -0.235 N 
HETATM   64  H   UNK N   1      27.503  11.098   3.435  0.00  0.00     0.174 HD
ATOM     65  HN  UNK N   1      25.877  11.243   3.902  1.00  0.00     0.174 HD
HETATM   66  H   UNK N   1      26.381  10.209   0.249  0.00  0.00     0.174 HD
HETATM   67  H   UNK N   1      27.742  11.099   0.717  0.00  0.00     0.174 HD
HETATM   68  H   UNK N   1      24.491  12.571   2.558  0.00  0.00     0.177 HD
ENDBRANCH  59  60
ENDBRANCH  58  59
ENDBRANCH  57  58
ENDBRANCH  56  57
BRANCH  56  69
HETATM   69  N   UNK N   1      21.152  15.179   1.090  0.00  0.00    -0.346 N 
HETATM   70  C   UNK N   1      20.646  16.418   1.338  0.00  0.00     0.241 C 
HETATM   71  O   UNK N   1      20.217  17.078   0.404  0.00  0.00    -0.271 OA
HETATM   72  H   UNK N   1      21.061  14.832   0.173  0.00  0.00     0.163 HD
BRANCH  70  73
HETATM   73  C   UNK N   1      20.542  16.967   2.738  0.00  0.00     0.177 C 
BRANCH  73  74
HETATM   74  C   UNK N   1      21.619  17.988   3.116  0.00  0.00     0.144 C 
BRANCH  74  75
HETATM   75  C   UNK N   1      21.191  18.990   4.145  0.00  0.00     0.141 C 
HETATM   76  O   UNK N   1      21.225  18.692   5.327  0.00  0.00    -0.650 OA
BRANCH  75  77
HETATM   77  O   UNK N   1      20.745  20.206   3.774  0.00  0.00    -0.776 OA
HETATM   78  H   UNK N   1      21.282  20.839   3.341  0.00  0.00     0.167 HD
ENDBRANCH  75  77
ENDBRANCH  74  75
ENDBRANCH  73  74
BRANCH  73  79
HETATM   79  N   UNK N   1      19.212  17.512   2.961  0.00  0.00    -0.418 N 
HETATM   80  H   UNK N   1      18.574  17.653   2.177  0.00  0.00     0.150 HD
HETATM   81  H   UNK N   1      18.915  17.754   3.906  0.00  0.00     0.150 HD
ENDBRANCH  73  79
ENDBRANCH  70  73
ENDBRANCH  56  69
ENDBRANCH  53  56
ENDBRANCH  48  52
ENDBRANCH  45  48
ENDBRANCH   1  44
TORSDOF 29
ENDMDL
MODEL 4
REMARK VINA RESULT:      -7.0      2.319      4.447
REMARK  29 active torsions:
REMARK  status: ('A' for Active; 'I' for Inactive)
REMARK    1  A    between atoms: C_2  and  C_3 
REMARK    2  A    between atoms: C_3  and  C_5 
REMARK    3  A    between atoms: C_5  and  C_6 
REMARK    4  A    between atoms: C_5  and  N_27 
REMARK       I    between atoms: C_6  and  N_8 
REMARK    5  A    between atoms: C_9  and  N_8 
REMARK    6  A    between atoms: C_9  and  C_10 
REMARK    7  A    between atoms: C_9  and  C_17 
REMARK    8  A    between atoms: C_10  and  C_11 
REMARK       I    between atoms: C_17  and  N_19 
REMARK    9  A    between atoms: C_23  and  C_24 
REMARK   10  A    between atoms: C_24  and  O_26 
REMARK       I    between atoms: N_27  and  C_28 
REMARK   11  A    between atoms: C_28  and  C_30 
REMARK   12  A    between atoms: C_30  and  C_31 
REMARK   13  A    between atoms: C_30  and  N_39 
REMARK   14  A    between atoms: C_31  and  C_32 
REMARK   15  A    between atoms: C_35  and  O_38 
REMARK       I    between atoms: N_39  and  C_40 
REMARK   16  A    between atoms: C_40  and  C_42 
REMARK   17  A    between atoms: C_42  and  C_43 
REMARK   18  A    between atoms: C_42  and  N_46 
REMARK       I    between atoms: N_46  and  C_47 
REMARK   19  A    between atoms: C_47  and  C_49 
REMARK   20  A    between atoms: C_49  and  C_50 
REMARK   21  A    between atoms: C_49  and  N_58 
REMARK   22  A    between atoms: C_50  and  C_51 
REMARK   23  A    between atoms: C_51  and  C_52 
REMARK   24  A    between atoms: C_52  and  N_53 
REMARK       I    between atoms: N_53  and  C_54 
REMARK       I    between atoms: C_54  and  N_57 
REMARK       I    between atoms: N_58  and  C_59 
REMARK   25  A    between atoms: C_59  and  C_61 
REMARK   26  A    between atoms: C_61  and  C_62 
REMARK   27  A    between atoms: C_61  and  N_66 
REMARK   28  A    between atoms: C_62  and  C_63 
REMARK   29  A    between atoms: C_63  and  O_65 
ROOT
HETATM    1  C   UNK N   1      25.037  15.496   4.371  0.00  0.00     0.180 C 
ENDROOT
BRANCH   1   2
HETATM    2  C   UNK N   1      24.753  16.637   5.340  0.00  0.00     0.241 C 
HETATM    3  N   UNK N   1      25.686  17.463   5.881  0.00  0.00    -0.346 N 
HETATM    4  H   UNK N   1      25.381  18.076   6.588  0.00  0.00     0.163 HD
HETATM    5  O   UNK N   1      23.590  16.801   5.674  0.00  0.00    -0.271 OA
BRANCH   3   6
HETATM    6  C   UNK N   1      27.075  17.527   5.520  0.00  0.00     0.180 C 
BRANCH   6   7
HETATM    7  C   UNK N   1      27.485  18.979   5.203  0.00  0.00     0.013 C 
HETATM    8  C   UNK N   1      26.718  19.500   4.000  0.00  0.00     0.012 C 
BRANCH   7   9
HETATM    9  C   UNK N   1      27.294  19.951   6.359  0.00  0.00     0.002 C 
HETATM   10  C   UNK N   1      27.077  21.362   5.840  0.00  0.00     0.005 C 
ENDBRANCH   7   9
ENDBRANCH   6   7
BRANCH   6  11
HETATM   11  C   UNK N   1      28.003  16.975   6.591  0.00  0.00     0.241 C 
HETATM   12  O   UNK N   1      27.569  16.915   7.730  0.00  0.00    -0.271 OA
HETATM   13  N   UNK N   1      29.260  16.496   6.359  0.00  0.00    -0.346 N 
HETATM   14  H   UNK N   1      29.693  16.033   7.112  0.00  0.00     0.163 HD
BRANCH  13  15
HETATM   15  C   UNK N   1      30.032  16.586   5.134  0.00  0.00     0.182 C 
BRANCH  15  16
HETATM   16  C   UNK N   1      31.552  16.636   5.346  0.00  0.00     0.093 C 
BRANCH  16  17
HETATM   17  C   UNK N   1      31.996  16.457   6.766  0.00  0.00     0.028 A 
HETATM   18  C   UNK N   1      32.299  17.451   7.662  0.00  0.00     0.114 A 
HETATM   19  N   UNK N   1      32.645  16.863   8.824  0.00  0.00    -0.360 N 
HETATM   20  C   UNK N   1      32.540  15.534   8.612  0.00  0.00     0.180 A 
HETATM   21  H   UNK N   1      32.920  17.311   9.657  0.00  0.00     0.166 HD
HETATM   22  N   UNK N   1      32.140  15.259   7.355  0.00  0.00    -0.354 N 
ATOM     23  HN  UNK N   1      31.982  14.341   6.940  1.00  0.00     0.166 HD
ENDBRANCH  16  17
ENDBRANCH  15  16
BRANCH  15  24
HETATM   24  C   UNK N   1      29.589  15.880   3.862  0.00  0.00     0.243 C 
HETATM   25  O   UNK N   1      29.313  16.594   2.912  0.00  0.00    -0.271 OA
HETATM   26  N   UNK N   1      29.453  14.521   3.735  0.00  0.00    -0.336 N 
HETATM   27  C   UNK N   1      28.887  13.959   2.533  0.00  0.00     0.127 C 
HETATM   28  C   UNK N   1      29.714  13.553   4.761  0.00  0.00     0.185 C 
HETATM   29  C   UNK N   1      28.680  12.488   2.846  0.00  0.00     0.022 C 
HETATM   30  C   UNK N   1      28.852  12.367   4.357  0.00  0.00     0.038 C 
BRANCH  28  31
HETATM   31  C   UNK N   1      31.158  13.122   4.729  0.00  0.00     0.163 C 
HETATM   32  O   UNK N   1      31.827  13.266   3.715  0.00  0.00    -0.648 OA
BRANCH  31  33
HETATM   33  O   UNK N   1      31.701  12.526   5.804  0.00  0.00    -0.775 OA
HETATM   34  H   UNK N   1      32.054  11.681   6.000  0.00  0.00     0.167 HD
ENDBRANCH  31  33
ENDBRANCH  28  31
ENDBRANCH  15  24
ENDBRANCH  13  15
ENDBRANCH   6  11
ENDBRANCH   3   6
ENDBRANCH   1   2
BRANCH   1  35
HETATM   35  C   UNK N   1      25.971  14.483   5.054  0.00  0.00     0.073 C 
BRANCH  35  36
HETATM   36  C   UNK N   1      25.359  13.633   6.143  0.00  0.00    -0.056 A 
HETATM   37  C   UNK N   1      24.715  12.417   5.867  0.00  0.00     0.010 A 
HETATM   38  C   UNK N   1      24.134  11.671   6.894  0.00  0.00     0.037 A 
HETATM   39  C   UNK N   1      24.194  12.132   8.209  0.00  0.00     0.065 A 
HETATM   40  C   UNK N   1      24.837  13.339   8.496  0.00  0.00     0.037 A 
HETATM   41  C   UNK N   1      25.414  14.090   7.465  0.00  0.00     0.010 A 
BRANCH  39  42
HETATM   42  O   UNK N   1      23.632  11.416   9.196  0.00  0.00    -0.361 OA
HETATM   43  H   UNK N   1      23.289  10.552   9.087  0.00  0.00     0.217 HD
ENDBRANCH  39  42
ENDBRANCH  35  36
ENDBRANCH   1  35
BRANCH   1  44
HETATM   44  N   UNK N   1      25.541  15.798   3.044  0.00  0.00    -0.346 N 
HETATM   45  C   UNK N   1      25.184  15.105   1.924  0.00  0.00     0.241 C 
HETATM   46  O   UNK N   1      25.810  15.287   0.893  0.00  0.00    -0.271 OA
HETATM   47  H   UNK N   1      26.175  16.544   2.946  0.00  0.00     0.163 HD
BRANCH  45  48
HETATM   48  C   UNK N   1      24.016  14.140   1.896  0.00  0.00     0.180 C 
BRANCH  48  49
HETATM   49  C   UNK N   1      24.554  12.772   1.457  0.00  0.00     0.009 C 
HETATM   50  C   UNK N   1      24.322  11.764   2.569  0.00  0.00     0.012 C 
HETATM   51  C   UNK N   1      23.918  12.241   0.185  0.00  0.00     0.012 C 
ENDBRANCH  48  49
BRANCH  48  52
HETATM   52  N   UNK N   1      22.982  14.603   0.998  0.00  0.00    -0.346 N 
HETATM   53  C   UNK N   1      21.735  14.995   1.365  0.00  0.00     0.241 C 
HETATM   54  O   UNK N   1      20.935  15.274   0.489  0.00  0.00    -0.271 OA
HETATM   55  H   UNK N   1      23.200  14.637   0.039  0.00  0.00     0.163 HD
BRANCH  53  56
HETATM   56  C   UNK N   1      21.270  15.092   2.798  0.00  0.00     0.176 C 
BRANCH  56  57
HETATM   57  C   UNK N   1      21.381  16.509   3.349  0.00  0.00     0.036 C 
BRANCH  57  58
HETATM   58  C   UNK N   1      20.047  17.249   3.328  0.00  0.00     0.023 C 
BRANCH  58  59
HETATM   59  C   UNK N   1      20.201  18.766   3.286  0.00  0.00     0.138 C 
BRANCH  59  60
HETATM   60  N   UNK N   1      20.103  19.252   1.930  0.00  0.00    -0.227 N 
HETATM   61  C   UNK N   1      20.591  20.529   1.543  0.00  0.00     0.665 C 
HETATM   62  N   UNK N   1      20.477  20.909   0.326  0.00  0.00    -0.235 N 
HETATM   63  N   UNK N   1      21.213  21.379   2.487  0.00  0.00    -0.235 N 
HETATM   64  H   UNK N   1      21.061  21.521  -0.177  0.00  0.00     0.174 HD
ATOM     65  HN  UNK N   1      19.680  20.531  -0.186  1.00  0.00     0.174 HD
HETATM   66  H   UNK N   1      20.760  21.699   3.299  0.00  0.00     0.174 HD
HETATM   67  H   UNK N   1      22.143  21.664   2.323  0.00  0.00     0.174 HD
HETATM   68  H   UNK N   1      19.682  18.679   1.249  0.00  0.00     0.177 HD
ENDBRANCH  59  60
ENDBRANCH  58  59
ENDBRANCH  57  58
ENDBRANCH  56  57
BRANCH  56  69
HETATM   69  N   UNK N   1      19.941  14.565   3.056  0.00  0.00    -0.346 N 
HETATM   70  C   UNK N   1      19.652  13.478   3.823  0.00  0.00     0.241 C 
HETATM   71  O   UNK N   1      18.483  13.210   4.051  0.00  0.00    -0.271 OA
HETATM   72  H   UNK N   1      19.182  15.034   2.638  0.00  0.00     0.163 HD
BRANCH  70  73
HETATM   73  C   UNK N   1      20.733  12.564   4.342  0.00  0.00     0.177 C 
BRANCH  73  74
HETATM   74  C   UNK N   1      20.789  12.427   5.866  0.00  0.00     0.144 C 
BRANCH  74  75
HETATM   75  C   UNK N   1      20.913  13.727   6.602  0.00  0.00     0.141 C 
HETATM   76  O   UNK N   1      20.030  14.073   7.368  0.00  0.00    -0.650 OA
BRANCH  75  77
HETATM   77  O   UNK N   1      21.979  14.528   6.405  0.00  0.00    -0.776 OA
HETATM   78  H   UNK N   1      22.846  14.302   6.676  0.00  0.00     0.167 HD
ENDBRANCH  75  77
ENDBRANCH  74  75
ENDBRANCH  73  74
BRANCH  73  79
HETATM   79  N   UNK N   1      20.626  11.259   3.709  0.00  0.00    -0.418 N 
HETATM   80  H   UNK N   1      20.048  11.134   2.878  0.00  0.00     0.150 HD
HETATM   81  H   UNK N   1      21.133  10.464   4.098  0.00  0.00     0.150 HD
ENDBRANCH  73  79
ENDBRANCH  70  73
ENDBRANCH  56  69
ENDBRANCH  53  56
ENDBRANCH  48  52
ENDBRANCH  45  48
ENDBRANCH   1  44
TORSDOF 29
ENDMDL
MODEL 5
REMARK VINA RESULT:      -6.9      2.344      4.004
REMARK  29 active torsions:
REMARK  status: ('A' for Active; 'I' for Inactive)
REMARK    1  A    between atoms: C_2  and  C_3 
REMARK    2  A    between atoms: C_3  and  C_5 
REMARK    3  A    between atoms: C_5  and  C_6 
REMARK    4  A    between atoms: C_5  and  N_27 
REMARK       I    between atoms: C_6  and  N_8 
REMARK    5  A    between atoms: C_9  and  N_8 
REMARK    6  A    between atoms: C_9  and  C_10 
REMARK    7  A    between atoms: C_9  and  C_17 
REMARK    8  A    between atoms: C_10  and  C_11 
REMARK       I    between atoms: C_17  and  N_19 
REMARK    9  A    between atoms: C_23  and  C_24 
REMARK   10  A    between atoms: C_24  and  O_26 
REMARK       I    between atoms: N_27  and  C_28 
REMARK   11  A    between atoms: C_28  and  C_30 
REMARK   12  A    between atoms: C_30  and  C_31 
REMARK   13  A    between atoms: C_30  and  N_39 
REMARK   14  A    between atoms: C_31  and  C_32 
REMARK   15  A    between atoms: C_35  and  O_38 
REMARK       I    between atoms: N_39  and  C_40 
REMARK   16  A    between atoms: C_40  and  C_42 
REMARK   17  A    between atoms: C_42  and  C_43 
REMARK   18  A    between atoms: C_42  and  N_46 
REMARK       I    between atoms: N_46  and  C_47 
REMARK   19  A    between atoms: C_47  and  C_49 
REMARK   20  A    between atoms: C_49  and  C_50 
REMARK   21  A    between atoms: C_49  and  N_58 
REMARK   22  A    between atoms: C_50  and  C_51 
REMARK   23  A    between atoms: C_51  and  C_52 
REMARK   24  A    between atoms: C_52  and  N_53 
REMARK       I    between atoms: N_53  and  C_54 
REMARK       I    between atoms: C_54  and  N_57 
REMARK       I    between atoms: N_58  and  C_59 
REMARK   25  A    between atoms: C_59  and  C_61 
REMARK   26  A    between atoms: C_61  and  C_62 
REMARK   27  A    between atoms: C_61  and  N_66 
REMARK   28  A    between atoms: C_62  and  C_63 
REMARK   29  A    between atoms: C_63  and  O_65 
ROOT
HETATM    1  C   UNK N   1      24.679  14.286   6.029  0.00  0.00     0.180 C 
ENDROOT
BRANCH   1   2
HETATM    2  C   UNK N   1      24.252  15.749   6.047  0.00  0.00     0.241 C 
HETATM    3  N   UNK N   1      25.047  16.806   5.739  0.00  0.00    -0.346 N 
HETATM    4  H   UNK N   1      24.681  17.703   5.912  0.00  0.00     0.163 HD
HETATM    5  O   UNK N   1      23.105  15.984   6.393  0.00  0.00    -0.271 OA
BRANCH   3   6
HETATM    6  C   UNK N   1      26.371  16.740   5.184  0.00  0.00     0.180 C 
BRANCH   6   7
HETATM    7  C   UNK N   1      26.415  17.437   3.810  0.00  0.00     0.013 C 
HETATM    8  C   UNK N   1      26.014  16.472   2.708  0.00  0.00     0.012 C 
BRANCH   7   9
HETATM    9  C   UNK N   1      25.542  18.680   3.708  0.00  0.00     0.002 C 
HETATM   10  C   UNK N   1      26.399  19.924   3.548  0.00  0.00     0.005 C 
ENDBRANCH   7   9
ENDBRANCH   6   7
BRANCH   6  11
HETATM   11  C   UNK N   1      27.433  17.352   6.083  0.00  0.00     0.241 C 
HETATM   12  O   UNK N   1      27.101  18.301   6.775  0.00  0.00    -0.271 OA
HETATM   13  N   UNK N   1      28.709  16.885   6.209  0.00  0.00    -0.346 N 
HETATM   14  H   UNK N   1      29.247  17.280   6.932  0.00  0.00     0.163 HD
BRANCH  13  15
HETATM   15  C   UNK N   1      29.367  15.873   5.403  0.00  0.00     0.182 C 
BRANCH  15  16
HETATM   16  C   UNK N   1      28.612  14.538   5.325  0.00  0.00     0.093 C 
BRANCH  16  17
HETATM   17  C   UNK N   1      29.106  13.595   4.271  0.00  0.00     0.028 A 
HETATM   18  C   UNK N   1      30.142  12.702   4.389  0.00  0.00     0.114 A 
HETATM   19  N   UNK N   1      30.252  12.045   3.219  0.00  0.00    -0.360 N 
HETATM   20  C   UNK N   1      29.283  12.544   2.422  0.00  0.00     0.180 A 
HETATM   21  H   UNK N   1      30.906  11.344   2.991  0.00  0.00     0.166 HD
HETATM   22  N   UNK N   1      28.564  13.497   3.047  0.00  0.00    -0.354 N 
ATOM     23  HN  UNK N   1      27.779  14.028   2.672  1.00  0.00     0.166 HD
ENDBRANCH  16  17
ENDBRANCH  15  16
BRANCH  15  24
HETATM   24  C   UNK N   1      30.148  16.238   4.150  0.00  0.00     0.243 C 
HETATM   25  O   UNK N   1      29.489  16.545   3.170  0.00  0.00    -0.271 OA
HETATM   26  N   UNK N   1      31.515  16.209   4.051  0.00  0.00    -0.336 N 
HETATM   27  C   UNK N   1      32.154  16.432   2.778  0.00  0.00     0.127 C 
HETATM   28  C   UNK N   1      32.424  15.849   5.102  0.00  0.00     0.185 C 
HETATM   29  C   UNK N   1      33.617  16.097   3.008  0.00  0.00     0.022 C 
HETATM   30  C   UNK N   1      33.662  15.379   4.354  0.00  0.00     0.038 C 
BRANCH  28  31
HETATM   31  C   UNK N   1      32.795  17.058   5.921  0.00  0.00     0.163 C 
HETATM   32  O   UNK N   1      31.985  17.563   6.686  0.00  0.00    -0.648 OA
BRANCH  31  33
HETATM   33  O   UNK N   1      34.007  17.619   5.772  0.00  0.00    -0.775 OA
HETATM   34  H   UNK N   1      34.354  18.489   5.790  0.00  0.00     0.167 HD
ENDBRANCH  31  33
ENDBRANCH  28  31
ENDBRANCH  15  24
ENDBRANCH  13  15
ENDBRANCH   6  11
ENDBRANCH   3   6
ENDBRANCH   1   2
BRANCH   1  35
HETATM   35  C   UNK N   1      25.451  13.976   7.323  0.00  0.00     0.073 C 
BRANCH  35  36
HETATM   36  C   UNK N   1      24.710  13.185   8.374  0.00  0.00    -0.056 A 
HETATM   37  C   UNK N   1      23.564  12.432   8.071  0.00  0.00     0.010 A 
HETATM   38  C   UNK N   1      22.885  11.736   9.073  0.00  0.00     0.037 A 
HETATM   39  C   UNK N   1      23.347  11.782  10.388  0.00  0.00     0.065 A 
HETATM   40  C   UNK N   1      24.490  12.524  10.700  0.00  0.00     0.037 A 
HETATM   41  C   UNK N   1      25.166  13.227   9.697  0.00  0.00     0.010 A 
BRANCH  39  42
HETATM   42  O   UNK N   1      22.693  11.115  11.352  0.00  0.00    -0.361 OA
HETATM   43  H   UNK N   1      22.796  10.199  11.519  0.00  0.00     0.217 HD
ENDBRANCH  39  42
ENDBRANCH  35  36
ENDBRANCH   1  35
BRANCH   1  44
HETATM   44  N   UNK N   1      25.419  13.775   4.891  0.00  0.00    -0.346 N 
HETATM   45  C   UNK N   1      24.836  13.142   3.832  0.00  0.00     0.241 C 
HETATM   46  O   UNK N   1      25.547  12.562   3.027  0.00  0.00    -0.271 OA
HETATM   47  H   UNK N   1      26.396  13.891   4.882  0.00  0.00     0.163 HD
BRANCH  45  48
HETATM   48  C   UNK N   1      23.340  13.158   3.592  0.00  0.00     0.180 C 
BRANCH  48  49
HETATM   49  C   UNK N   1      22.843  11.708   3.661  0.00  0.00     0.009 C 
HETATM   50  C   UNK N   1      22.013  11.524   4.920  0.00  0.00     0.012 C 
HETATM   51  C   UNK N   1      22.007  11.287   2.467  0.00  0.00     0.012 C 
ENDBRANCH  48  49
BRANCH  48  52
HETATM   52  N   UNK N   1      23.027  13.752   2.312  0.00  0.00    -0.346 N 
HETATM   53  C   UNK N   1      22.083  14.703   2.093  0.00  0.00     0.241 C 
HETATM   54  O   UNK N   1      21.863  15.047   0.944  0.00  0.00    -0.271 OA
HETATM   55  H   UNK N   1      23.541  13.441   1.533  0.00  0.00     0.163 HD
BRANCH  53  56
HETATM   56  C   UNK N   1      21.273  15.355   3.188  0.00  0.00     0.176 C 
BRANCH  56  57
HETATM   57  C   UNK N   1      21.021  16.834   2.921  0.00  0.00     0.036 C 
BRANCH  57  58
HETATM   58  C   UNK N   1      22.057  17.732   3.590  0.00  0.00     0.023 C 
BRANCH  58  59
HETATM   59  C   UNK N   1      21.571  19.162   3.796  0.00  0.00     0.138 C 
BRANCH  59  60
HETATM   60  N   UNK N   1      21.622  19.903   2.558  0.00  0.00    -0.227 N 
HETATM   61  C   UNK N   1      20.471  20.122   1.755  0.00  0.00     0.665 C 
HETATM   62  N   UNK N   1      20.575  20.787   0.666  0.00  0.00    -0.235 N 
HETATM   63  N   UNK N   1      19.208  19.623   2.152  0.00  0.00    -0.235 N 
HETATM   64  H   UNK N   1      19.893  21.343   0.225  0.00  0.00     0.174 HD
ATOM     65  HN  UNK N   1      21.478  20.733   0.195  1.00  0.00     0.174 HD
HETATM   66  H   UNK N   1      19.035  18.666   2.300  0.00  0.00     0.174 HD
HETATM   67  H   UNK N   1      18.471  20.262   2.288  0.00  0.00     0.174 HD
HETATM   68  H   UNK N   1      22.486  20.271   2.259  0.00  0.00     0.177 HD
ENDBRANCH  59  60
ENDBRANCH  58  59
ENDBRANCH  57  58
ENDBRANCH  56  57
BRANCH  56  69
HETATM   69  N   UNK N   1      20.023  14.690   3.514  0.00  0.00    -0.346 N 
HETATM   70  C   UNK N   1      19.409  14.703   4.729  0.00  0.00     0.241 C 
HETATM   71  O   UNK N   1      18.302  14.199   4.836  0.00  0.00    -0.271 OA
HETATM   72  H   UNK N   1      19.581  14.186   2.793  0.00  0.00     0.163 HD
BRANCH  70  73
HETATM   73  C   UNK N   1      20.085  15.264   5.954  0.00  0.00     0.177 C 
BRANCH  73  74
HETATM   74  C   UNK N   1      19.242  16.252   6.764  0.00  0.00     0.144 C 
BRANCH  74  75
HETATM   75  C   UNK N   1      19.605  16.332   8.217  0.00  0.00     0.141 C 
HETATM   76  O   UNK N   1      20.678  16.809   8.544  0.00  0.00    -0.650 OA
BRANCH  75  77
HETATM   77  O   UNK N   1      18.767  15.858   9.160  0.00  0.00    -0.776 OA
HETATM   78  H   UNK N   1      17.977  16.294   9.409  0.00  0.00     0.167 HD
ENDBRANCH  75  77
ENDBRANCH  74  75
ENDBRANCH  73  74
BRANCH  73  79
HETATM   79  N   UNK N   1      20.565  14.180   6.797  0.00  0.00    -0.418 N 
HETATM   80  H   UNK N   1      21.565  14.050   6.952  0.00  0.00     0.150 HD
HETATM   81  H   UNK N   1      19.897  13.546   7.236  0.00  0.00     0.150 HD
ENDBRANCH  73  79
ENDBRANCH  70  73
ENDBRANCH  56  69
ENDBRANCH  53  56
ENDBRANCH  48  52
ENDBRANCH  45  48
ENDBRANCH   1  44
TORSDOF 29
ENDMDL
MODEL 6
REMARK VINA RESULT:      -6.9      2.175      3.930
REMARK  29 active torsions:
REMARK  status: ('A' for Active; 'I' for Inactive)
REMARK    1  A    between atoms: C_2  and  C_3 
REMARK    2  A    between atoms: C_3  and  C_5 
REMARK    3  A    between atoms: C_5  and  C_6 
REMARK    4  A    between atoms: C_5  and  N_27 
REMARK       I    between atoms: C_6  and  N_8 
REMARK    5  A    between atoms: C_9  and  N_8 
REMARK    6  A    between atoms: C_9  and  C_10 
REMARK    7  A    between atoms: C_9  and  C_17 
REMARK    8  A    between atoms: C_10  and  C_11 
REMARK       I    between atoms: C_17  and  N_19 
REMARK    9  A    between atoms: C_23  and  C_24 
REMARK   10  A    between atoms: C_24  and  O_26 
REMARK       I    between atoms: N_27  and  C_28 
REMARK   11  A    between atoms: C_28  and  C_30 
REMARK   12  A    between atoms: C_30  and  C_31 
REMARK   13  A    between atoms: C_30  and  N_39 
REMARK   14  A    between atoms: C_31  and  C_32 
REMARK   15  A    between atoms: C_35  and  O_38 
REMARK       I    between atoms: N_39  and  C_40 
REMARK   16  A    between atoms: C_40  and  C_42 
REMARK   17  A    between atoms: C_42  and  C_43 
REMARK   18  A    between atoms: C_42  and  N_46 
REMARK       I    between atoms: N_46  and  C_47 
REMARK   19  A    between atoms: C_47  and  C_49 
REMARK   20  A    between atoms: C_49  and  C_50 
REMARK   21  A    between atoms: C_49  and  N_58 
REMARK   22  A    between atoms: C_50  and  C_51 
REMARK   23  A    between atoms: C_51  and  C_52 
REMARK   24  A    between atoms: C_52  and  N_53 
REMARK       I    between atoms: N_53  and  C_54 
REMARK       I    between atoms: C_54  and  N_57 
REMARK       I    between atoms: N_58  and  C_59 
REMARK   25  A    between atoms: C_59  and  C_61 
REMARK   26  A    between atoms: C_61  and  C_62 
REMARK   27  A    between atoms: C_61  and  N_66 
REMARK   28  A    between atoms: C_62  and  C_63 
REMARK   29  A    between atoms: C_63  and  O_65 
ROOT
HETATM    1  C   UNK N   1      24.227  13.796   6.687  0.00  0.00     0.180 C 
ENDROOT
BRANCH   1   2
HETATM    2  C   UNK N   1      23.966  15.281   6.466  0.00  0.00     0.241 C 
HETATM    3  N   UNK N   1      24.808  16.144   5.841  0.00  0.00    -0.346 N 
HETATM    4  H   UNK N   1      24.573  17.099   5.877  0.00  0.00     0.163 HD
HETATM    5  O   UNK N   1      22.924  15.730   6.914  0.00  0.00    -0.271 OA
BRANCH   3   6
HETATM    6  C   UNK N   1      26.008  15.796   5.130  0.00  0.00     0.180 C 
BRANCH   6   7
HETATM    7  C   UNK N   1      26.068  16.534   3.778  0.00  0.00     0.013 C 
HETATM    8  C   UNK N   1      24.770  16.351   3.011  0.00  0.00     0.012 C 
BRANCH   7   9
HETATM    9  C   UNK N   1      26.360  18.024   3.888  0.00  0.00     0.002 C 
HETATM   10  C   UNK N   1      25.103  18.837   3.630  0.00  0.00     0.005 C 
ENDBRANCH   7   9
ENDBRANCH   6   7
BRANCH   6  11
HETATM   11  C   UNK N   1      27.278  16.093   5.911  0.00  0.00     0.241 C 
HETATM   12  O   UNK N   1      27.160  16.709   6.958  0.00  0.00    -0.271 OA
HETATM   13  N   UNK N   1      28.527  15.675   5.552  0.00  0.00    -0.346 N 
HETATM   14  H   UNK N   1      29.237  15.808   6.220  0.00  0.00     0.163 HD
BRANCH  13  15
HETATM   15  C   UNK N   1      28.931  15.057   4.303  0.00  0.00     0.182 C 
BRANCH  15  16
HETATM   16  C   UNK N   1      29.449  16.045   3.248  0.00  0.00     0.093 C 
BRANCH  16  17
HETATM   17  C   UNK N   1      30.853  16.521   3.465  0.00  0.00     0.028 A 
HETATM   18  C   UNK N   1      32.003  15.913   3.027  0.00  0.00     0.114 A 
HETATM   19  N   UNK N   1      33.043  16.668   3.426  0.00  0.00    -0.360 N 
HETATM   20  C   UNK N   1      32.508  17.715   4.088  0.00  0.00     0.180 A 
HETATM   21  H   UNK N   1      34.000  16.491   3.268  0.00  0.00     0.166 HD
HETATM   22  N   UNK N   1      31.163  17.648   4.124  0.00  0.00    -0.354 N 
ATOM     23  HN  UNK N   1      30.519  18.311   4.557  1.00  0.00     0.166 HD
ENDBRANCH  16  17
ENDBRANCH  15  16
BRANCH  15  24
HETATM   24  C   UNK N   1      29.589  13.686   4.271  0.00  0.00     0.243 C 
HETATM   25  O   UNK N   1      30.154  13.331   5.292  0.00  0.00    -0.271 OA
HETATM   26  N   UNK N   1      29.612  12.862   3.176  0.00  0.00    -0.336 N 
HETATM   27  C   UNK N   1      30.386  11.645   3.202  0.00  0.00     0.127 C 
HETATM   28  C   UNK N   1      29.017  13.144   1.901  0.00  0.00     0.185 C 
HETATM   29  C   UNK N   1      30.362  11.132   1.773  0.00  0.00     0.022 C 
HETATM   30  C   UNK N   1      29.825  12.290   0.936  0.00  0.00     0.038 C 
BRANCH  28  31
HETATM   31  C   UNK N   1      27.586  12.673   1.867  0.00  0.00     0.163 C 
HETATM   32  O   UNK N   1      27.307  11.563   1.434  0.00  0.00    -0.648 OA
BRANCH  31  33
HETATM   33  O   UNK N   1      26.602  13.497   2.265  0.00  0.00    -0.775 OA
HETATM   34  H   UNK N   1      25.789  13.405   2.720  0.00  0.00     0.167 HD
ENDBRANCH  31  33
ENDBRANCH  28  31
ENDBRANCH  15  24
ENDBRANCH  13  15
ENDBRANCH   6  11
ENDBRANCH   3   6
ENDBRANCH   1   2
BRANCH   1  35
HETATM   35  C   UNK N   1      24.975  13.613   8.018  0.00  0.00     0.073 C 
BRANCH  35  36
HETATM   36  C   UNK N   1      24.169  13.063   9.171  0.00  0.00    -0.056 A 
HETATM   37  C   UNK N   1      22.767  13.130   9.201  0.00  0.00     0.010 A 
HETATM   38  C   UNK N   1      22.054  12.639  10.296  0.00  0.00     0.037 A 
HETATM   39  C   UNK N   1      22.736  12.072  11.372  0.00  0.00     0.065 A 
HETATM   40  C   UNK N   1      24.132  11.995  11.352  0.00  0.00     0.037 A 
HETATM   41  C   UNK N   1      24.846  12.494  10.256  0.00  0.00     0.010 A 
BRANCH  39  42
HETATM   42  O   UNK N   1      22.052  11.602  12.428  0.00  0.00    -0.361 OA
HETATM   43  H   UNK N   1      21.283  12.008  12.776  0.00  0.00     0.217 HD
ENDBRANCH  39  42
ENDBRANCH  35  36
ENDBRANCH   1  35
BRANCH   1  44
HETATM   44  N   UNK N   1      24.893  13.028   5.651  0.00  0.00    -0.346 N 
HETATM   45  C   UNK N   1      24.244  12.473   4.586  0.00  0.00     0.241 C 
HETATM   46  O   UNK N   1      24.841  11.674   3.883  0.00  0.00    -0.271 OA
HETATM   47  H   UNK N   1      25.866  12.900   5.720  0.00  0.00     0.163 HD
BRANCH  45  48
HETATM   48  C   UNK N   1      22.820  12.836   4.216  0.00  0.00     0.180 C 
BRANCH  48  49
HETATM   49  C   UNK N   1      21.920  11.665   4.632  0.00  0.00     0.009 C 
HETATM   50  C   UNK N   1      21.940  10.608   3.542  0.00  0.00     0.012 C 
HETATM   51  C   UNK N   1      22.324  11.015   5.943  0.00  0.00     0.012 C 
ENDBRANCH  48  49
BRANCH  48  52
HETATM   52  N   UNK N   1      22.703  13.101   2.800  0.00  0.00    -0.346 N 
HETATM   53  C   UNK N   1      21.856  13.996   2.231  0.00  0.00     0.241 C 
HETATM   54  O   UNK N   1      21.800  14.048   1.014  0.00  0.00    -0.271 OA
HETATM   55  H   UNK N   1      23.288  12.589   2.196  0.00  0.00     0.163 HD
BRANCH  53  56
HETATM   56  C   UNK N   1      20.962  14.926   3.016  0.00  0.00     0.176 C 
BRANCH  56  57
HETATM   57  C   UNK N   1      20.695  16.233   2.278  0.00  0.00     0.036 C 
BRANCH  57  58
HETATM   58  C   UNK N   1      21.050  17.458   3.116  0.00  0.00     0.023 C 
BRANCH  58  59
HETATM   59  C   UNK N   1      20.002  18.563   3.041  0.00  0.00     0.138 C 
BRANCH  59  60
HETATM   60  N   UNK N   1      20.005  19.182   1.737  0.00  0.00    -0.227 N 
HETATM   61  C   UNK N   1      20.564  20.468   1.508  0.00  0.00     0.665 C 
HETATM   62  N   UNK N   1      20.539  20.969   0.330  0.00  0.00    -0.235 N 
HETATM   63  N   UNK N   1      21.159  21.195   2.565  0.00  0.00    -0.235 N 
HETATM   64  H   UNK N   1      21.175  21.601  -0.076  0.00  0.00     0.174 HD
ATOM     65  HN  UNK N   1      19.761  20.678  -0.262  1.00  0.00     0.174 HD
HETATM   66  H   UNK N   1      20.669  21.454   3.377  0.00  0.00     0.174 HD
HETATM   67  H   UNK N   1      22.107  21.454   2.484  0.00  0.00     0.174 HD
HETATM   68  H   UNK N   1      19.606  18.696   0.979  0.00  0.00     0.177 HD
ENDBRANCH  59  60
ENDBRANCH  58  59
ENDBRANCH  57  58
ENDBRANCH  56  57
BRANCH  56  69
HETATM   69  N   UNK N   1      19.708  14.347   3.466  0.00  0.00    -0.346 N 
HETATM   70  C   UNK N   1      19.182  14.464   4.716  0.00  0.00     0.241 C 
HETATM   71  O   UNK N   1      18.063  14.024   4.930  0.00  0.00    -0.271 OA
HETATM   72  H   UNK N   1      19.193  13.824   2.810  0.00  0.00     0.163 HD
BRANCH  70  73
HETATM   73  C   UNK N   1      19.969  15.062   5.855  0.00  0.00     0.177 C 
BRANCH  73  74
HETATM   74  C   UNK N   1      19.281  16.222   6.579  0.00  0.00     0.144 C 
BRANCH  74  75
HETATM   75  C   UNK N   1      19.587  16.310   8.044  0.00  0.00     0.141 C 
HETATM   76  O   UNK N   1      18.785  15.875   8.853  0.00  0.00    -0.650 OA
BRANCH  75  77
HETATM   77  O   UNK N   1      20.725  16.888   8.473  0.00  0.00    -0.776 OA
HETATM   78  H   UNK N   1      21.184  17.542   7.985  0.00  0.00     0.167 HD
ENDBRANCH  75  77
ENDBRANCH  74  75
ENDBRANCH  73  74
BRANCH  73  79
HETATM   79  N   UNK N   1      20.352  14.020   6.795  0.00  0.00    -0.418 N 
HETATM   80  H   UNK N   1      19.643  13.424   7.222  0.00  0.00     0.150 HD
HETATM   81  H   UNK N   1      21.336  13.885   7.028  0.00  0.00     0.150 HD
ENDBRANCH  73  79
ENDBRANCH  70  73
ENDBRANCH  56  69
ENDBRANCH  53  56
ENDBRANCH  48  52
ENDBRANCH  45  48
ENDBRANCH   1  44
TORSDOF 29
ENDMDL
MODEL 7
REMARK VINA RESULT:      -6.8      2.238      4.293
REMARK  29 active torsions:
REMARK  status: ('A' for Active; 'I' for Inactive)
REMARK    1  A    between atoms: C_2  and  C_3 
REMARK    2  A    between atoms: C_3  and  C_5 
REMARK    3  A    between atoms: C_5  and  C_6 
REMARK    4  A    between atoms: C_5  and  N_27 
REMARK       I    between atoms: C_6  and  N_8 
REMARK    5  A    between atoms: C_9  and  N_8 
REMARK    6  A    between atoms: C_9  and  C_10 
REMARK    7  A    between atoms: C_9  and  C_17 
REMARK    8  A    between atoms: C_10  and  C_11 
REMARK       I    between atoms: C_17  and  N_19 
REMARK    9  A    between atoms: C_23  and  C_24 
REMARK   10  A    between atoms: C_24  and  O_26 
REMARK       I    between atoms: N_27  and  C_28 
REMARK   11  A    between atoms: C_28  and  C_30 
REMARK   12  A    between atoms: C_30  and  C_31 
REMARK   13  A    between atoms: C_30  and  N_39 
REMARK   14  A    between atoms: C_31  and  C_32 
REMARK   15  A    between atoms: C_35  and  O_38 
REMARK       I    between atoms: N_39  and  C_40 
REMARK   16  A    between atoms: C_40  and  C_42 
REMARK   17  A    between atoms: C_42  and  C_43 
REMARK   18  A    between atoms: C_42  and  N_46 
REMARK       I    between atoms: N_46  and  C_47 
REMARK   19  A    between atoms: C_47  and  C_49 
REMARK   20  A    between atoms: C_49  and  C_50 
REMARK   21  A    between atoms: C_49  and  N_58 
REMARK   22  A    between atoms: C_50  and  C_51 
REMARK   23  A    between atoms: C_51  and  C_52 
REMARK   24  A    between atoms: C_52  and  N_53 
REMARK       I    between atoms: N_53  and  C_54 
REMARK       I    between atoms: C_54  and  N_57 
REMARK       I    between atoms: N_58  and  C_59 
REMARK   25  A    between atoms: C_59  and  C_61 
REMARK   26  A    between atoms: C_61  and  C_62 
REMARK   27  A    between atoms: C_61  and  N_66 
REMARK   28  A    between atoms: C_62  and  C_63 
REMARK   29  A    between atoms: C_63  and  O_65 
ROOT
HETATM    1  C   UNK N   1      23.917  14.809   4.893  0.00  0.00     0.180 C 
ENDROOT
BRANCH   1   2
HETATM    2  C   UNK N   1      23.980  16.071   5.745  0.00  0.00     0.241 C 
HETATM    3  N   UNK N   1      25.080  16.846   5.926  0.00  0.00    -0.346 N 
HETATM    4  H   UNK N   1      25.016  17.561   6.600  0.00  0.00     0.163 HD
HETATM    5  O   UNK N   1      22.958  16.392   6.332  0.00  0.00    -0.271 OA
BRANCH   3   6
HETATM    6  C   UNK N   1      26.330  16.723   5.227  0.00  0.00     0.180 C 
BRANCH   6   7
HETATM    7  C   UNK N   1      26.860  18.112   4.820  0.00  0.00     0.013 C 
HETATM    8  C   UNK N   1      27.511  18.056   3.450  0.00  0.00     0.012 C 
BRANCH   7   9
HETATM    9  C   UNK N   1      25.804  19.209   4.811  0.00  0.00     0.002 C 
HETATM   10  C   UNK N   1      26.018  20.148   3.636  0.00  0.00     0.005 C 
ENDBRANCH   7   9
ENDBRANCH   6   7
BRANCH   6  11
HETATM   11  C   UNK N   1      27.401  16.001   6.029  0.00  0.00     0.241 C 
HETATM   12  O   UNK N   1      27.405  16.171   7.237  0.00  0.00    -0.271 OA
HETATM   13  N   UNK N   1      28.318  15.140   5.501  0.00  0.00    -0.346 N 
HETATM   14  H   UNK N   1      28.856  14.629   6.148  0.00  0.00     0.163 HD
BRANCH  13  15
HETATM   15  C   UNK N   1      28.595  14.886   4.099  0.00  0.00     0.182 C 
BRANCH  15  16
HETATM   16  C   UNK N   1      30.086  14.735   3.766  0.00  0.00     0.093 C 
BRANCH  16  17
HETATM   17  C   UNK N   1      30.943  15.896   4.167  0.00  0.00     0.028 A 
HETATM   18  C   UNK N   1      31.759  15.971   5.268  0.00  0.00     0.114 A 
HETATM   19  N   UNK N   1      32.356  17.178   5.253  0.00  0.00    -0.360 N 
HETATM   20  C   UNK N   1      31.899  17.804   4.148  0.00  0.00     0.180 A 
HETATM   21  H   UNK N   1      32.995  17.532   5.914  0.00  0.00     0.166 HD
HETATM   22  N   UNK N   1      31.031  17.035   3.462  0.00  0.00    -0.354 N 
ATOM     23  HN  UNK N   1      30.545  17.268   2.596  1.00  0.00     0.166 HD
ENDBRANCH  16  17
ENDBRANCH  15  16
BRANCH  15  24
HETATM   24  C   UNK N   1      27.661  14.042   3.245  0.00  0.00     0.243 C 
HETATM   25  O   UNK N   1      27.132  14.605   2.301  0.00  0.00    -0.271 OA
HETATM   26  N   UNK N   1      27.361  12.727   3.490  0.00  0.00    -0.336 N 
HETATM   27  C   UNK N   1      26.352  12.056   2.708  0.00  0.00     0.127 C 
HETATM   28  C   UNK N   1      27.879  11.936   4.569  0.00  0.00     0.185 C 
HETATM   29  C   UNK N   1      26.133  10.725   3.405  0.00  0.00     0.022 C 
HETATM   30  C   UNK N   1      26.822  10.859   4.760  0.00  0.00     0.038 C 
BRANCH  28  31
HETATM   31  C   UNK N   1      29.168  11.268   4.165  0.00  0.00     0.163 C 
HETATM   32  O   UNK N   1      29.503  11.221   2.989  0.00  0.00    -0.648 OA
BRANCH  31  33
HETATM   33  O   UNK N   1      29.932  10.671   5.096  0.00  0.00    -0.775 OA
HETATM   34  H   UNK N   1      30.830  10.714   5.360  0.00  0.00     0.167 HD
ENDBRANCH  31  33
ENDBRANCH  28  31
ENDBRANCH  15  24
ENDBRANCH  13  15
ENDBRANCH   6  11
ENDBRANCH   3   6
ENDBRANCH   1   2
BRANCH   1  35
HETATM   35  C   UNK N   1      24.711  13.694   5.595  0.00  0.00     0.073 C 
BRANCH  35  36
HETATM   36  C   UNK N   1      24.331  13.396   7.025  0.00  0.00    -0.056 A 
HETATM   37  C   UNK N   1      23.080  12.857   7.368  0.00  0.00     0.010 A 
HETATM   38  C   UNK N   1      22.748  12.621   8.703  0.00  0.00     0.037 A 
HETATM   39  C   UNK N   1      23.666  12.918   9.710  0.00  0.00     0.065 A 
HETATM   40  C   UNK N   1      24.916  13.451   9.381  0.00  0.00     0.037 A 
HETATM   41  C   UNK N   1      25.244  13.694   8.043  0.00  0.00     0.010 A 
BRANCH  39  42
HETATM   42  O   UNK N   1      23.346  12.695  10.996  0.00  0.00    -0.361 OA
HETATM   43  H   UNK N   1      23.226  13.373  11.631  0.00  0.00     0.217 HD
ENDBRANCH  39  42
ENDBRANCH  35  36
ENDBRANCH   1  35
BRANCH   1  44
HETATM   44  N   UNK N   1      24.305  14.873   3.497  0.00  0.00    -0.346 N 
HETATM   45  C   UNK N   1      23.435  14.694   2.461  0.00  0.00     0.241 C 
HETATM   46  O   UNK N   1      23.881  14.555   1.333  0.00  0.00    -0.271 OA
HETATM   47  H   UNK N   1      25.249  15.055   3.285  0.00  0.00     0.163 HD
BRANCH  45  48
HETATM   48  C   UNK N   1      21.931  14.695   2.646  0.00  0.00     0.180 C 
BRANCH  48  49
HETATM   49  C   UNK N   1      21.431  13.267   2.395  0.00  0.00     0.009 C 
HETATM   50  C   UNK N   1      20.441  12.886   3.483  0.00  0.00     0.012 C 
HETATM   51  C   UNK N   1      20.762  13.078   1.046  0.00  0.00     0.012 C 
ENDBRANCH  48  49
BRANCH  48  52
HETATM   52  N   UNK N   1      21.298  15.631   1.745  0.00  0.00    -0.346 N 
HETATM   53  C   UNK N   1      20.483  16.653   2.112  0.00  0.00     0.241 C 
HETATM   54  O   UNK N   1      19.945  17.308   1.236  0.00  0.00    -0.271 OA
HETATM   55  H   UNK N   1      21.473  15.519   0.783  0.00  0.00     0.163 HD
BRANCH  53  56
HETATM   56  C   UNK N   1      20.188  17.022   3.546  0.00  0.00     0.176 C 
BRANCH  56  57
HETATM   57  C   UNK N   1      20.185  18.530   3.768  0.00  0.00     0.036 C 
BRANCH  57  58
HETATM   58  C   UNK N   1      21.574  19.073   4.089  0.00  0.00     0.023 C 
BRANCH  58  59
HETATM   59  C   UNK N   1      22.192  19.862   2.940  0.00  0.00     0.138 C 
BRANCH  59  60
HETATM   60  N   UNK N   1      21.337  20.960   2.555  0.00  0.00    -0.227 N 
HETATM   61  C   UNK N   1      20.650  20.990   1.313  0.00  0.00     0.665 C 
HETATM   62  N   UNK N   1      19.905  21.990   1.024  0.00  0.00    -0.235 N 
HETATM   63  N   UNK N   1      20.770  19.919   0.396  0.00  0.00    -0.235 N 
HETATM   64  H   UNK N   1      19.103  22.006   0.454  0.00  0.00     0.174 HD
ATOM     65  HN  UNK N   1      20.177  22.882   1.436  1.00  0.00     0.174 HD
HETATM   66  H   UNK N   1      21.632  19.636   0.016  0.00  0.00     0.174 HD
HETATM   67  H   UNK N   1      19.954  19.435   0.128  0.00  0.00     0.174 HD
HETATM   68  H   UNK N   1      21.227  21.717   3.177  0.00  0.00     0.177 HD
ENDBRANCH  59  60
ENDBRANCH  58  59
ENDBRANCH  57  58
ENDBRANCH  56  57
BRANCH  56  69
HETATM   69  N   UNK N   1      18.978  16.438   4.100  0.00  0.00    -0.346 N 
HETATM   70  C   UNK N   1      18.778  16.115   5.407  0.00  0.00     0.241 C 
HETATM   71  O   UNK N   1      17.671  15.737   5.759  0.00  0.00    -0.271 OA
HETATM   72  H   UNK N   1      18.239  16.259   3.475  0.00  0.00     0.163 HD
BRANCH  70  73
HETATM   73  C   UNK N   1      19.900  16.149   6.414  0.00  0.00     0.177 C 
BRANCH  73  74
HETATM   74  C   UNK N   1      19.492  16.590   7.822  0.00  0.00     0.144 C 
BRANCH  74  75
HETATM   75  C   UNK N   1      19.891  17.993   8.174  0.00  0.00     0.141 C 
HETATM   76  O   UNK N   1      20.701  18.581   7.478  0.00  0.00    -0.650 OA
BRANCH  75  77
HETATM   77  O   UNK N   1      19.382  18.597   9.265  0.00  0.00    -0.776 OA
HETATM   78  H   UNK N   1      18.849  19.366   9.223  0.00  0.00     0.167 HD
ENDBRANCH  75  77
ENDBRANCH  74  75
ENDBRANCH  73  74
BRANCH  73  79
HETATM   79  N   UNK N   1      20.576  14.862   6.450  0.00  0.00    -0.418 N 
HETATM   80  H   UNK N   1      20.091  14.016   6.148  0.00  0.00     0.150 HD
HETATM   81  H   UNK N   1      21.540  14.805   6.778  0.00  0.00     0.150 HD
ENDBRANCH  73  79
ENDBRANCH  70  73
ENDBRANCH  56  69
ENDBRANCH  53  56
ENDBRANCH  48  52
ENDBRANCH  45  48
ENDBRANCH   1  44
TORSDOF 29
ENDMDL
MODEL 8
REMARK VINA RESULT:      -6.7      2.183      4.197
REMARK  29 active torsions:
REMARK  status: ('A' for Active; 'I' for Inactive)
REMARK    1  A    between atoms: C_2  and  C_3 
REMARK    2  A    between atoms: C_3  and  C_5 
REMARK    3  A    between atoms: C_5  and  C_6 
REMARK    4  A    between atoms: C_5  and  N_27 
REMARK       I    between atoms: C_6  and  N_8 
REMARK    5  A    between atoms: C_9  and  N_8 
REMARK    6  A    between atoms: C_9  and  C_10 
REMARK    7  A    between atoms: C_9  and  C_17 
REMARK    8  A    between atoms: C_10  and  C_11 
REMARK       I    between atoms: C_17  and  N_19 
REMARK    9  A    between atoms: C_23  and  C_24 
REMARK   10  A    between atoms: C_24  and  O_26 
REMARK       I    between atoms: N_27  and  C_28 
REMARK   11  A    between atoms: C_28  and  C_30 
REMARK   12  A    between atoms: C_30  and  C_31 
REMARK   13  A    between atoms: C_30  and  N_39 
REMARK   14  A    between atoms: C_31  and  C_32 
REMARK   15  A    between atoms: C_35  and  O_38 
REMARK       I    between atoms: N_39  and  C_40 
REMARK   16  A    between atoms: C_40  and  C_42 
REMARK   17  A    between atoms: C_42  and  C_43 
REMARK   18  A    between atoms: C_42  and  N_46 
REMARK       I    between atoms: N_46  and  C_47 
REMARK   19  A    between atoms: C_47  and  C_49 
REMARK   20  A    between atoms: C_49  and  C_50 
REMARK   21  A    between atoms: C_49  and  N_58 
REMARK   22  A    between atoms: C_50  and  C_51 
REMARK   23  A    between atoms: C_51  and  C_52 
REMARK   24  A    between atoms: C_52  and  N_53 
REMARK       I    between atoms: N_53  and  C_54 
REMARK       I    between atoms: C_54  and  N_57 
REMARK       I    between atoms: N_58  and  C_59 
REMARK   25  A    between atoms: C_59  and  C_61 
REMARK   26  A    between atoms: C_61  and  C_62 
REMARK   27  A    between atoms: C_61  and  N_66 
REMARK   28  A    between atoms: C_62  and  C_63 
REMARK   29  A    between atoms: C_63  and  O_65 
ROOT
HETATM    1  C   UNK N   1      24.487  15.276   4.653  0.00  0.00     0.180 C 
ENDROOT
BRANCH   1   2
HETATM    2  C   UNK N   1      24.327  16.615   5.363  0.00  0.00     0.241 C 
HETATM    3  N   UNK N   1      25.339  17.461   5.687  0.00  0.00    -0.346 N 
HETATM    4  H   UNK N   1      25.110  18.232   6.254  0.00  0.00     0.163 HD
HETATM    5  O   UNK N   1      23.195  16.936   5.687  0.00  0.00    -0.271 OA
BRANCH   3   6
HETATM    6  C   UNK N   1      26.712  17.338   5.281  0.00  0.00     0.180 C 
BRANCH   6   7
HETATM    7  C   UNK N   1      27.273  18.709   4.853  0.00  0.00     0.013 C 
HETATM    8  C   UNK N   1      26.374  19.354   3.814  0.00  0.00     0.012 C 
BRANCH   7   9
HETATM    9  C   UNK N   1      27.471  19.691   6.000  0.00  0.00     0.002 C 
HETATM   10  C   UNK N   1      26.687  20.968   5.752  0.00  0.00     0.005 C 
ENDBRANCH   7   9
ENDBRANCH   6   7
BRANCH   6  11
HETATM   11  C   UNK N   1      27.610  16.752   6.359  0.00  0.00     0.241 C 
HETATM   12  O   UNK N   1      27.118  16.576   7.462  0.00  0.00    -0.271 OA
HETATM   13  N   UNK N   1      28.903  16.361   6.165  0.00  0.00    -0.346 N 
HETATM   14  H   UNK N   1      29.321  15.863   6.904  0.00  0.00     0.163 HD
BRANCH  13  15
HETATM   15  C   UNK N   1      29.735  16.592   4.999  0.00  0.00     0.182 C 
BRANCH  15  16
HETATM   16  C   UNK N   1      31.237  16.685   5.302  0.00  0.00     0.093 C 
BRANCH  16  17
HETATM   17  C   UNK N   1      31.598  16.551   6.750  0.00  0.00     0.028 A 
HETATM   18  C   UNK N   1      31.664  17.562   7.676  0.00  0.00     0.114 A 
HETATM   19  N   UNK N   1      32.014  17.015   8.856  0.00  0.00    -0.360 N 
HETATM   20  C   UNK N   1      32.147  15.691   8.625  0.00  0.00     0.180 A 
HETATM   21  H   UNK N   1      32.148  17.485   9.711  0.00  0.00     0.166 HD
HETATM   22  N   UNK N   1      31.894  15.381   7.339  0.00  0.00    -0.354 N 
ATOM     23  HN  UNK N   1      31.921  14.458   6.905  1.00  0.00     0.166 HD
ENDBRANCH  16  17
ENDBRANCH  15  16
BRANCH  15  24
HETATM   24  C   UNK N   1      29.394  15.985   3.647  0.00  0.00     0.243 C 
HETATM   25  O   UNK N   1      29.316  16.760   2.708  0.00  0.00    -0.271 OA
HETATM   26  N   UNK N   1      29.142  14.654   3.435  0.00  0.00    -0.336 N 
HETATM   27  C   UNK N   1      28.685  14.200   2.144  0.00  0.00     0.127 C 
HETATM   28  C   UNK N   1      29.171  13.625   4.435  0.00  0.00     0.185 C 
HETATM   29  C   UNK N   1      28.296  12.747   2.353  0.00  0.00     0.022 C 
HETATM   30  C   UNK N   1      28.256  12.551   3.866  0.00  0.00     0.038 C 
BRANCH  28  31
HETATM   31  C   UNK N   1      30.557  13.047   4.562  0.00  0.00     0.163 C 
HETATM   32  O   UNK N   1      31.187  13.167   5.604  0.00  0.00    -0.648 OA
BRANCH  31  33
HETATM   33  O   UNK N   1      31.129  12.443   3.507  0.00  0.00    -0.775 OA
HETATM   34  H   UNK N   1      30.845  11.870   2.823  0.00  0.00     0.167 HD
ENDBRANCH  31  33
ENDBRANCH  28  31
ENDBRANCH  15  24
ENDBRANCH  13  15
ENDBRANCH   6  11
ENDBRANCH   3   6
ENDBRANCH   1   2
BRANCH   1  35
HETATM   35  C   UNK N   1      25.344  14.347   5.530  0.00  0.00     0.073 C 
BRANCH  35  36
HETATM   36  C   UNK N   1      24.736  13.011   5.886  0.00  0.00    -0.056 A 
HETATM   37  C   UNK N   1      24.047  12.803   7.091  0.00  0.00     0.010 A 
HETATM   38  C   UNK N   1      23.523  11.547   7.404  0.00  0.00     0.037 A 
HETATM   39  C   UNK N   1      23.680  10.486   6.512  0.00  0.00     0.065 A 
HETATM   40  C   UNK N   1      24.361  10.683   5.307  0.00  0.00     0.037 A 
HETATM   41  C   UNK N   1      24.892  11.940   4.998  0.00  0.00     0.010 A 
BRANCH  39  42
HETATM   42  O   UNK N   1      23.180   9.277   6.814  0.00  0.00    -0.361 OA
HETATM   43  H   UNK N   1      22.496   9.134   7.438  0.00  0.00     0.217 HD
ENDBRANCH  39  42
ENDBRANCH  35  36
ENDBRANCH   1  35
BRANCH   1  44
HETATM   44  N   UNK N   1      24.984  15.248   3.291  0.00  0.00    -0.346 N 
HETATM   45  C   UNK N   1      24.253  14.802   2.228  0.00  0.00     0.241 C 
HETATM   46  O   UNK N   1      24.815  14.617   1.161  0.00  0.00    -0.271 OA
HETATM   47  H   UNK N   1      25.900  15.567   3.123  0.00  0.00     0.163 HD
BRANCH  45  48
HETATM   48  C   UNK N   1      22.759  14.562   2.306  0.00  0.00     0.180 C 
BRANCH  48  49
HETATM   49  C   UNK N   1      22.522  13.055   2.139  0.00  0.00     0.009 C 
HETATM   50  C   UNK N   1      21.672  12.552   3.293  0.00  0.00     0.012 C 
HETATM   51  C   UNK N   1      21.837  12.681   0.837  0.00  0.00     0.012 C 
ENDBRANCH  48  49
BRANCH  48  52
HETATM   52  N   UNK N   1      22.058  15.312   1.289  0.00  0.00    -0.346 N 
HETATM   53  C   UNK N   1      20.979  16.109   1.498  0.00  0.00     0.241 C 
HETATM   54  O   UNK N   1      20.432  16.610   0.530  0.00  0.00    -0.271 OA
HETATM   55  H   UNK N   1      22.392  15.240   0.366  0.00  0.00     0.163 HD
BRANCH  53  56
HETATM   56  C   UNK N   1      20.400  16.403   2.862  0.00  0.00     0.176 C 
BRANCH  56  57
HETATM   57  C   UNK N   1      19.804  17.803   2.949  0.00  0.00     0.036 C 
BRANCH  57  58
HETATM   58  C   UNK N   1      20.627  18.732   3.837  0.00  0.00     0.023 C 
BRANCH  58  59
HETATM   59  C   UNK N   1      21.718  19.479   3.079  0.00  0.00     0.138 C 
BRANCH  59  60
HETATM   60  N   UNK N   1      21.229  20.750   2.598  0.00  0.00    -0.227 N 
HETATM   61  C   UNK N   1      20.733  20.923   1.279  0.00  0.00     0.665 C 
HETATM   62  N   UNK N   1      20.312  22.073   0.905  0.00  0.00    -0.235 N 
HETATM   63  N   UNK N   1      20.687  19.835   0.376  0.00  0.00    -0.235 N 
HETATM   64  H   UNK N   1      19.619  22.280   0.238  0.00  0.00     0.174 HD
ATOM     65  HN  UNK N   1      20.750  22.876   1.356  1.00  0.00     0.174 HD
HETATM   66  H   UNK N   1      21.488  19.332   0.105  0.00  0.00     0.174 HD
HETATM   67  H   UNK N   1      19.815  19.569   0.002  0.00  0.00     0.174 HD
HETATM   68  H   UNK N   1      21.240  21.524   3.207  0.00  0.00     0.177 HD
ENDBRANCH  59  60
ENDBRANCH  58  59
ENDBRANCH  57  58
ENDBRANCH  56  57
BRANCH  56  69
HETATM   69  N   UNK N   1      19.444  15.426   3.353  0.00  0.00    -0.346 N 
HETATM   70  C   UNK N   1      19.183  15.158   4.662  0.00  0.00     0.241 C 
HETATM   71  O   UNK N   1      18.271  14.394   4.938  0.00  0.00    -0.271 OA
HETATM   72  H   UNK N   1      18.940  14.913   2.681  0.00  0.00     0.163 HD
BRANCH  70  73
HETATM   73  C   UNK N   1      20.029  15.727   5.773  0.00  0.00     0.177 C 
BRANCH  73  74
HETATM   74  C   UNK N   1      19.245  16.287   6.962  0.00  0.00     0.144 C 
BRANCH  74  75
HETATM   75  C   UNK N   1      19.872  16.025   8.299  0.00  0.00     0.141 C 
HETATM   76  O   UNK N   1      20.688  16.813   8.746  0.00  0.00    -0.650 OA
BRANCH  75  77
HETATM   77  O   UNK N   1      19.563  14.914   8.995  0.00  0.00    -0.776 OA
HETATM   78  H   UNK N   1      18.692  14.708   9.271  0.00  0.00     0.167 HD
ENDBRANCH  75  77
ENDBRANCH  74  75
ENDBRANCH  73  74
BRANCH  73  79
HETATM   79  N   UNK N   1      21.002  14.740   6.212  0.00  0.00    -0.418 N 
HETATM   80  H   UNK N   1      20.954  14.352   7.155  0.00  0.00     0.150 HD
HETATM   81  H   UNK N   1      21.736  14.433   5.574  0.00  0.00     0.150 HD
ENDBRANCH  73  79
ENDBRANCH  70  73
ENDBRANCH  56  69
ENDBRANCH  53  56
ENDBRANCH  48  52
ENDBRANCH  45  48
ENDBRANCH   1  44
TORSDOF 29
ENDMDL
MODEL 9
REMARK VINA RESULT:      -6.7      2.481      6.645
REMARK  29 active torsions:
REMARK  status: ('A' for Active; 'I' for Inactive)
REMARK    1  A    between atoms: C_2  and  C_3 
REMARK    2  A    between atoms: C_3  and  C_5 
REMARK    3  A    between atoms: C_5  and  C_6 
REMARK    4  A    between atoms: C_5  and  N_27 
REMARK       I    between atoms: C_6  and  N_8 
REMARK    5  A    between atoms: C_9  and  N_8 
REMARK    6  A    between atoms: C_9  and  C_10 
REMARK    7  A    between atoms: C_9  and  C_17 
REMARK    8  A    between atoms: C_10  and  C_11 
REMARK       I    between atoms: C_17  and  N_19 
REMARK    9  A    between atoms: C_23  and  C_24 
REMARK   10  A    between atoms: C_24  and  O_26 
REMARK       I    between atoms: N_27  and  C_28 
REMARK   11  A    between atoms: C_28  and  C_30 
REMARK   12  A    between atoms: C_30  and  C_31 
REMARK   13  A    between atoms: C_30  and  N_39 
REMARK   14  A    between atoms: C_31  and  C_32 
REMARK   15  A    between atoms: C_35  and  O_38 
REMARK       I    between atoms: N_39  and  C_40 
REMARK   16  A    between atoms: C_40  and  C_42 
REMARK   17  A    between atoms: C_42  and  C_43 
REMARK   18  A    between atoms: C_42  and  N_46 
REMARK       I    between atoms: N_46  and  C_47 
REMARK   19  A    between atoms: C_47  and  C_49 
REMARK   20  A    between atoms: C_49  and  C_50 
REMARK   21  A    between atoms: C_49  and  N_58 
REMARK   22  A    between atoms: C_50  and  C_51 
REMARK   23  A    between atoms: C_51  and  C_52 
REMARK   24  A    between atoms: C_52  and  N_53 
REMARK       I    between atoms: N_53  and  C_54 
REMARK       I    between atoms: C_54  and  N_57 
REMARK       I    between atoms: N_58  and  C_59 
REMARK   25  A    between atoms: C_59  and  C_61 
REMARK   26  A    between atoms: C_61  and  C_62 
REMARK   27  A    between atoms: C_61  and  N_66 
REMARK   28  A    between atoms: C_62  and  C_63 
REMARK   29  A    between atoms: C_63  and  O_65 
ROOT
HETATM    1  C   UNK N   1      22.314  13.582   6.654  0.00  0.00     0.180 C 
ENDROOT
BRANCH   1   2
HETATM    2  C   UNK N   1      23.456  13.576   5.645  0.00  0.00     0.241 C 
HETATM    3  N   UNK N   1      23.426  12.981   4.425  0.00  0.00    -0.346 N 
HETATM    4  H   UNK N   1      24.273  12.945   3.926  0.00  0.00     0.163 HD
HETATM    5  O   UNK N   1      24.490  14.131   5.979  0.00  0.00    -0.271 OA
BRANCH   3   6
HETATM    6  C   UNK N   1      22.274  12.399   3.792  0.00  0.00     0.180 C 
BRANCH   6   7
HETATM    7  C   UNK N   1      22.315  12.641   2.270  0.00  0.00     0.013 C 
HETATM    8  C   UNK N   1      20.947  13.055   1.757  0.00  0.00     0.012 C 
BRANCH   7   9
HETATM    9  C   UNK N   1      23.334  13.682   1.826  0.00  0.00     0.002 C 
HETATM   10  C   UNK N   1      23.659  13.519   0.352  0.00  0.00     0.005 C 
ENDBRANCH   7   9
ENDBRANCH   6   7
BRANCH   6  11
HETATM   11  C   UNK N   1      22.133  10.907   4.051  0.00  0.00     0.241 C 
HETATM   12  O   UNK N   1      21.005  10.475   4.222  0.00  0.00    -0.271 OA
HETATM   13  N   UNK N   1      23.167  10.017   4.053  0.00  0.00    -0.346 N 
HETATM   14  H   UNK N   1      22.919   9.065   4.086  0.00  0.00     0.163 HD
BRANCH  13  15
HETATM   15  C   UNK N   1      24.588  10.307   4.010  0.00  0.00     0.182 C 
BRANCH  15  16
HETATM   16  C   UNK N   1      25.421   9.540   5.046  0.00  0.00     0.093 C 
BRANCH  16  17
HETATM   17  C   UNK N   1      24.664   8.512   5.829  0.00  0.00     0.028 A 
HETATM   18  C   UNK N   1      24.081   8.684   7.060  0.00  0.00     0.114 A 
HETATM   19  N   UNK N   1      23.496   7.521   7.403  0.00  0.00    -0.360 N 
HETATM   20  C   UNK N   1      23.728   6.674   6.377  0.00  0.00     0.180 A 
HETATM   21  H   UNK N   1      23.002   7.327   8.232  0.00  0.00     0.166 HD
HETATM   22  N   UNK N   1      24.442   7.261   5.397  0.00  0.00    -0.354 N 
ATOM     23  HN  UNK N   1      24.748   6.845   4.517  1.00  0.00     0.166 HD
ENDBRANCH  16  17
ENDBRANCH  15  16
BRANCH  15  24
HETATM   24  C   UNK N   1      25.303  10.586   2.697  0.00  0.00     0.243 C 
HETATM   25  O   UNK N   1      24.701  10.291   1.678  0.00  0.00    -0.271 OA
HETATM   26  N   UNK N   1      26.567  11.106   2.596  0.00  0.00    -0.336 N 
HETATM   27  C   UNK N   1      27.213  11.198   1.310  0.00  0.00     0.127 C 
HETATM   28  C   UNK N   1      27.410  11.480   3.696  0.00  0.00     0.185 C 
HETATM   29  C   UNK N   1      28.648  11.588   1.616  0.00  0.00     0.022 C 
HETATM   30  C   UNK N   1      28.813  11.379   3.118  0.00  0.00     0.038 C 
BRANCH  28  31
HETATM   31  C   UNK N   1      27.162  12.914   4.090  0.00  0.00     0.163 C 
HETATM   32  O   UNK N   1      27.761  13.411   5.035  0.00  0.00    -0.648 OA
BRANCH  31  33
HETATM   33  O   UNK N   1      26.239  13.637   3.435  0.00  0.00    -0.775 OA
HETATM   34  H   UNK N   1      25.307  13.723   3.462  0.00  0.00     0.167 HD
ENDBRANCH  31  33
ENDBRANCH  28  31
ENDBRANCH  15  24
ENDBRANCH  13  15
ENDBRANCH   6  11
ENDBRANCH   3   6
ENDBRANCH   1   2
BRANCH   1  35
HETATM   35  C   UNK N   1      22.268  12.220   7.364  0.00  0.00     0.073 C 
BRANCH  35  36
HETATM   36  C   UNK N   1      22.757  12.189   8.793  0.00  0.00    -0.056 A 
HETATM   37  C   UNK N   1      21.873  12.143   9.883  0.00  0.00     0.010 A 
HETATM   38  C   UNK N   1      22.356  12.147  11.192  0.00  0.00     0.037 A 
HETATM   39  C   UNK N   1      23.730  12.193  11.426  0.00  0.00     0.065 A 
HETATM   40  C   UNK N   1      24.621  12.235  10.349  0.00  0.00     0.037 A 
HETATM   41  C   UNK N   1      24.134  12.238   9.036  0.00  0.00     0.010 A 
BRANCH  39  42
HETATM   42  O   UNK N   1      24.196  12.201  12.685  0.00  0.00    -0.361 OA
HETATM   43  H   UNK N   1      24.277  12.973  13.210  0.00  0.00     0.217 HD
ENDBRANCH  39  42
ENDBRANCH  35  36
ENDBRANCH   1  35
BRANCH   1  44
HETATM   44  N   UNK N   1      20.979  13.943   6.215  0.00  0.00    -0.346 N 
HETATM   45  C   UNK N   1      20.342  15.090   6.593  0.00  0.00     0.241 C 
HETATM   46  O   UNK N   1      19.153  15.212   6.351  0.00  0.00    -0.271 OA
HETATM   47  H   UNK N   1      20.505  13.327   5.612  0.00  0.00     0.163 HD
BRANCH  45  48
HETATM   48  C   UNK N   1      21.061  16.238   7.272  0.00  0.00     0.180 C 
BRANCH  48  49
HETATM   49  C   UNK N   1      20.626  16.252   8.744  0.00  0.00     0.009 C 
HETATM   50  C   UNK N   1      19.602  17.355   8.952  0.00  0.00     0.012 C 
HETATM   51  C   UNK N   1      20.027  14.942   9.221  0.00  0.00     0.012 C 
ENDBRANCH  48  49
BRANCH  48  52
HETATM   52  N   UNK N   1      20.752  17.496   6.630  0.00  0.00    -0.346 N 
HETATM   53  C   UNK N   1      21.559  18.157   5.761  0.00  0.00     0.241 C 
HETATM   54  O   UNK N   1      21.209  19.256   5.367  0.00  0.00    -0.271 OA
HETATM   55  H   UNK N   1      19.884  17.908   6.839  0.00  0.00     0.163 HD
BRANCH  53  56
HETATM   56  C   UNK N   1      22.880  17.620   5.262  0.00  0.00     0.176 C 
BRANCH  56  57
HETATM   57  C   UNK N   1      22.815  17.189   3.801  0.00  0.00     0.036 C 
BRANCH  57  58
HETATM   58  C   UNK N   1      21.683  16.201   3.535  0.00  0.00     0.023 C 
BRANCH  58  59
HETATM   59  C   UNK N   1      20.561  16.786   2.684  0.00  0.00     0.138 C 
BRANCH  59  60
HETATM   60  N   UNK N   1      20.885  18.129   2.263  0.00  0.00    -0.227 N 
HETATM   61  C   UNK N   1      19.892  19.126   2.072  0.00  0.00     0.665 C 
HETATM   62  N   UNK N   1      20.237  20.301   1.698  0.00  0.00    -0.235 N 
HETATM   63  N   UNK N   1      18.527  18.838   2.303  0.00  0.00    -0.235 N 
HETATM   64  H   UNK N   1      19.790  21.156   1.890  0.00  0.00     0.174 HD
ATOM     65  HN  UNK N   1      21.082  20.357   1.129  1.00  0.00     0.174 HD
HETATM   66  H   UNK N   1      18.041  18.133   1.820  0.00  0.00     0.174 HD
HETATM   67  H   UNK N   1      18.042  19.367   2.979  0.00  0.00     0.174 HD
HETATM   68  H   UNK N   1      21.829  18.361   2.103  0.00  0.00     0.177 HD
ENDBRANCH  59  60
ENDBRANCH  58  59
ENDBRANCH  57  58
ENDBRANCH  56  57
BRANCH  56  69
HETATM   69  N   UNK N   1      24.022  18.493   5.470  0.00  0.00    -0.346 N 
HETATM   70  C   UNK N   1      25.296  18.246   5.059  0.00  0.00     0.241 C 
HETATM   71  O   UNK N   1      26.141  19.117   5.197  0.00  0.00    -0.271 OA
HETATM   72  H   UNK N   1      23.862  19.336   5.952  0.00  0.00     0.163 HD
BRANCH  70  73
HETATM   73  C   UNK N   1      25.704  16.907   4.497  0.00  0.00     0.177 C 
BRANCH  73  74
HETATM   74  C   UNK N   1      26.435  16.964   3.154  0.00  0.00     0.144 C 
BRANCH  74  75
HETATM   75  C   UNK N   1      27.926  16.840   3.252  0.00  0.00     0.141 C 
HETATM   76  O   UNK N   1      28.474  15.827   2.852  0.00  0.00    -0.650 OA
BRANCH  75  77
HETATM   77  O   UNK N   1      28.661  17.826   3.804  0.00  0.00    -0.776 OA
HETATM   78  H   UNK N   1      28.327  18.412   4.452  0.00  0.00     0.167 HD
ENDBRANCH  75  77
ENDBRANCH  74  75
ENDBRANCH  73  74
BRANCH  73  79
HETATM   79  N   UNK N   1      26.483  16.173   5.481  0.00  0.00    -0.418 N 
HETATM   80  H   UNK N   1      26.090  15.353   5.944  0.00  0.00     0.150 HD
HETATM   81  H   UNK N   1      27.429  16.479   5.709  0.00  0.00     0.150 HD
ENDBRANCH  73  79
ENDBRANCH  70  73
ENDBRANCH  56  69
ENDBRANCH  53  56
ENDBRANCH  48  52
ENDBRANCH  45  48
ENDBRANCH   1  44
TORSDOF 29
ENDMDL
