MODEL 1
REMARK VINA RESULT:      -8.5      0.000      0.000
REMARK  13 active torsions:
REMARK  status: ('A' for Active; 'I' for Inactive)
REMARK    1  A    between atoms: C_4  and  O_19 
REMARK    2  A    between atoms: C_7  and  C_8 
REMARK    3  A    between atoms: C_11  and  C_14 
REMARK    4  A    between atoms: C_20  and  O_19 
REMARK    5  A    between atoms: C_20  and  C_21 
REMARK    6  A    between atoms: C_20  and  C_27 
REMARK    7  A    between atoms: C_21  and  C_22 
REMARK    8  A    between atoms: C_22  and  C_23 
REMARK    9  A    between atoms: C_30  and  C_33 
REMARK       I    between atoms: C_33  and  N_35 
REMARK   10  A    between atoms: N_35  and  C_36 
REMARK   11  A    between atoms: C_36  and  C_37 
REMARK   12  A    between atoms: C_37  and  C_38 
REMARK   13  A    between atoms: C_38  and  O_40 
ROOT
HETATM    1  C   UNK N   1      21.381  17.726   4.805  0.00  0.00     0.162 C 
ENDROOT
BRANCH   1   2
HETATM    2  O   UNK N   1      22.531  17.270   4.127  0.00  0.00    -0.341 OA
BRANCH   2   3
HETATM    3  C   UNK N   1      23.840  17.258   4.546  0.00  0.00     0.070 A 
HETATM    4  C   UNK N   1      24.730  18.258   4.135  0.00  0.00     0.044 A 
HETATM    5  C   UNK N   1      26.076  18.246   4.562  0.00  0.00    -0.048 A 
HETATM    6  C   UNK N   1      26.974  19.329   4.063  0.00  0.00     0.049 C 
HETATM    7  C   UNK N   1      26.558  17.187   5.391  0.00  0.00    -0.014 A 
HETATM    8  C   UNK N   1      25.634  16.197   5.799  0.00  0.00    -0.048 A 
HETATM    9  C   UNK N   1      24.323  16.269   5.391  0.00  0.00     0.044 A 
HETATM   10  C   UNK N   1      25.976  15.072   6.722  0.00  0.00     0.049 C 
BRANCH   7  11
HETATM   11  C   UNK N   1      27.988  17.086   5.832  0.00  0.00    -0.025 A 
HETATM   12  C   UNK N   1      28.370  17.656   7.056  0.00  0.00     0.013 A 
HETATM   13  C   UNK N   1      29.684  17.608   7.498  0.00  0.00     0.009 A 
HETATM   14  C   UNK N   1      30.674  17.013   6.710  0.00  0.00    -0.051 A 
HETATM   15  C   UNK N   1      30.305  16.435   5.479  0.00  0.00     0.009 A 
HETATM   16  C   UNK N   1      28.969  16.455   5.053  0.00  0.00     0.013 A 
BRANCH  14  17
HETATM   17  C   UNK N   1      32.104  17.004   7.211  0.00  0.00    -0.024 C 
HETATM   18  C   UNK N   1      33.102  17.439   6.150  0.00  0.00     0.019 C 
HETATM   19  C   UNK N   1      32.247  17.944   8.397  0.00  0.00     0.019 C 
HETATM   20  C   UNK N   1      32.472  15.601   7.661  0.00  0.00     0.019 C 
ENDBRANCH  14  17
ENDBRANCH   7  11
ENDBRANCH   2   3
ENDBRANCH   1   2
BRANCH   1  21
HETATM   21  C   UNK N   1      20.275  18.113   3.836  0.00  0.00     0.046 C 
BRANCH  21  22
HETATM   22  C   UNK N   1      20.876  18.736   2.580  0.00  0.00     0.120 C 
BRANCH  22  23
HETATM   23  C   UNK N   1      21.051  20.250   2.692  0.00  0.00     0.388 C 
HETATM   24  F   UNK N   1      22.374  20.575   2.924  0.00  0.00    -0.171 F 
HETATM   25  F   UNK N   1      20.658  20.835   1.505  0.00  0.00    -0.171 F 
HETATM   26  F   UNK N   1      20.270  20.743   3.720  0.00  0.00    -0.171 F 
ENDBRANCH  22  23
ENDBRANCH  21  22
ENDBRANCH   1  21
BRANCH   1  27
HETATM   27  C   UNK N   1      20.869  16.848   5.919  0.00  0.00    -0.029 A 
HETATM   28  C   UNK N   1      20.676  15.476   5.708  0.00  0.00     0.011 A 
HETATM   29  C   UNK N   1      20.511  14.625   6.801  0.00  0.00     0.017 A 
HETATM   30  C   UNK N   1      20.503  15.126   8.112  0.00  0.00     0.032 A 
HETATM   31  C   UNK N   1      20.605  16.514   8.309  0.00  0.00     0.017 A 
HETATM   32  C   UNK N   1      20.800  17.367   7.218  0.00  0.00     0.011 A 
BRANCH  30  33
HETATM   33  C   UNK N   1      20.527  14.158   9.244  0.00  0.00     0.251 C 
HETATM   34  O   UNK N   1      19.502  14.016   9.899  0.00  0.00    -0.268 OA
HETATM   35  N   UNK N   1      21.593  13.392   9.574  0.00  0.00    -0.356 N 
HETATM   36  H   UNK N   1      21.440  12.687  10.243  0.00  0.00     0.162 HD
BRANCH  35  37
HETATM   37  C   UNK N   1      22.930  13.505   9.043  0.00  0.00     0.133 C 
BRANCH  37  38
HETATM   38  C   UNK N   1      23.792  12.309   9.487  0.00  0.00     0.129 C 
BRANCH  38  39
HETATM   39  C   UNK N   1      23.947  12.165  10.980  0.00  0.00     0.140 C 
HETATM   40  O   UNK N   1      23.024  11.726  11.646  0.00  0.00    -0.650 OA
BRANCH  39  41
HETATM   41  O   UNK N   1      25.109  12.492  11.580  0.00  0.00    -0.776 OA
HETATM   42  H   UNK N   1      25.225  12.347  12.497  0.00  0.00     0.167 HD
ENDBRANCH  39  41
ENDBRANCH  38  39
ENDBRANCH  37  38
ENDBRANCH  35  37
ENDBRANCH  30  33
ENDBRANCH   1  27
TORSDOF 13
ENDMDL
MODEL 2
REMARK VINA RESULT:      -8.3      0.439      1.827
REMARK  13 active torsions:
REMARK  status: ('A' for Active; 'I' for Inactive)
REMARK    1  A    between atoms: C_4  and  O_19 
REMARK    2  A    between atoms: C_7  and  C_8 
REMARK    3  A    between atoms: C_11  and  C_14 
REMARK    4  A    between atoms: C_20  and  O_19 
REMARK    5  A    between atoms: C_20  and  C_21 
REMARK    6  A    between atoms: C_20  and  C_27 
REMARK    7  A    between atoms: C_21  and  C_22 
REMARK    8  A    between atoms: C_22  and  C_23 
REMARK    9  A    between atoms: C_30  and  C_33 
REMARK       I    between atoms: C_33  and  N_35 
REMARK   10  A    between atoms: N_35  and  C_36 
REMARK   11  A    between atoms: C_36  and  C_37 
REMARK   12  A    between atoms: C_37  and  C_38 
REMARK   13  A    between atoms: C_38  and  O_40 
ROOT
HETATM    1  C   UNK N   1      21.286  17.637   4.569  0.00  0.00     0.162 C 
ENDROOT
BRANCH   1   2
HETATM    2  O   UNK N   1      22.438  17.139   3.925  0.00  0.00    -0.341 OA
BRANCH   2   3
HETATM    3  C   UNK N   1      23.736  17.094   4.377  0.00  0.00     0.070 A 
HETATM    4  C   UNK N   1      24.156  16.073   5.239  0.00  0.00     0.044 A 
HETATM    5  C   UNK N   1      25.488  16.026   5.706  0.00  0.00    -0.048 A 
HETATM    6  C   UNK N   1      25.858  14.925   6.643  0.00  0.00     0.049 C 
HETATM    7  C   UNK N   1      26.417  17.046   5.334  0.00  0.00    -0.014 A 
HETATM    8  C   UNK N   1      25.967  18.057   4.454  0.00  0.00    -0.048 A 
HETATM    9  C   UNK N   1      24.672  18.043   3.993  0.00  0.00     0.044 A 
HETATM   10  C   UNK N   1      26.844  19.146   3.923  0.00  0.00     0.049 C 
BRANCH   7  11
HETATM   11  C   UNK N   1      27.828  17.085   5.841  0.00  0.00    -0.025 A 
HETATM   12  C   UNK N   1      28.821  16.365   5.159  0.00  0.00     0.013 A 
HETATM   13  C   UNK N   1      30.137  16.351   5.600  0.00  0.00     0.009 A 
HETATM   14  C   UNK N   1      30.499  17.035   6.765  0.00  0.00    -0.051 A 
HETATM   15  C   UNK N   1      29.513  17.763   7.459  0.00  0.00     0.009 A 
HETATM   16  C   UNK N   1      28.192  17.803   6.990  0.00  0.00     0.013 A 
BRANCH  14  17
HETATM   17  C   UNK N   1      31.939  16.974   7.232  0.00  0.00    -0.024 C 
HETATM   18  C   UNK N   1      32.207  17.872   8.430  0.00  0.00     0.019 C 
HETATM   19  C   UNK N   1      32.300  15.551   7.628  0.00  0.00     0.019 C 
HETATM   20  C   UNK N   1      32.855  17.407   6.102  0.00  0.00     0.019 C 
ENDBRANCH  14  17
ENDBRANCH   7  11
ENDBRANCH   2   3
ENDBRANCH   1   2
BRANCH   1  21
HETATM   21  C   UNK N   1      20.182  17.957   3.574  0.00  0.00     0.046 C 
BRANCH  21  22
HETATM   22  C   UNK N   1      20.752  18.744   2.398  0.00  0.00     0.120 C 
BRANCH  22  23
HETATM   23  C   UNK N   1      21.023  20.209   2.738  0.00  0.00     0.388 C 
HETATM   24  F   UNK N   1      22.352  20.401   3.063  0.00  0.00    -0.171 F 
HETATM   25  F   UNK N   1      20.725  20.987   1.636  0.00  0.00    -0.171 F 
HETATM   26  F   UNK N   1      20.228  20.605   3.797  0.00  0.00    -0.171 F 
ENDBRANCH  22  23
ENDBRANCH  21  22
ENDBRANCH   1  21
BRANCH   1  27
HETATM   27  C   UNK N   1      20.772  16.833   5.737  0.00  0.00    -0.029 A 
HETATM   28  C   UNK N   1      20.460  15.476   5.581  0.00  0.00     0.011 A 
HETATM   29  C   UNK N   1      20.292  14.671   6.707  0.00  0.00     0.017 A 
HETATM   30  C   UNK N   1      20.400  15.206   8.000  0.00  0.00     0.032 A 
HETATM   31  C   UNK N   1      20.624  16.586   8.148  0.00  0.00     0.017 A 
HETATM   32  C   UNK N   1      20.821  17.392   7.021  0.00  0.00     0.011 A 
BRANCH  30  33
HETATM   33  C   UNK N   1      20.414  14.271   9.160  0.00  0.00     0.251 C 
HETATM   34  O   UNK N   1      19.403  14.193   9.846  0.00  0.00    -0.268 OA
HETATM   35  N   UNK N   1      21.454  13.467   9.483  0.00  0.00    -0.356 N 
HETATM   36  H   UNK N   1      21.290  12.789  10.176  0.00  0.00     0.162 HD
BRANCH  35  37
HETATM   37  C   UNK N   1      22.780  13.505   8.913  0.00  0.00     0.133 C 
BRANCH  37  38
HETATM   38  C   UNK N   1      23.638  12.352   9.461  0.00  0.00     0.129 C 
BRANCH  38  39
HETATM   39  C   UNK N   1      24.801  12.785  10.318  0.00  0.00     0.140 C 
HETATM   40  O   UNK N   1      25.546  13.669   9.928  0.00  0.00    -0.650 OA
BRANCH  39  41
HETATM   41  O   UNK N   1      25.007  12.221  11.525  0.00  0.00    -0.776 OA
HETATM   42  H   UNK N   1      24.528  12.516  12.273  0.00  0.00     0.167 HD
ENDBRANCH  39  41
ENDBRANCH  38  39
ENDBRANCH  37  38
ENDBRANCH  35  37
ENDBRANCH  30  33
ENDBRANCH   1  27
TORSDOF 13
ENDMDL
MODEL 3
REMARK VINA RESULT:      -8.2     11.244     16.428
REMARK  13 active torsions:
REMARK  status: ('A' for Active; 'I' for Inactive)
REMARK    1  A    between atoms: C_4  and  O_19 
REMARK    2  A    between atoms: C_7  and  C_8 
REMARK    3  A    between atoms: C_11  and  C_14 
REMARK    4  A    between atoms: C_20  and  O_19 
REMARK    5  A    between atoms: C_20  and  C_21 
REMARK    6  A    between atoms: C_20  and  C_27 
REMARK    7  A    between atoms: C_21  and  C_22 
REMARK    8  A    between atoms: C_22  and  C_23 
REMARK    9  A    between atoms: C_30  and  C_33 
REMARK       I    between atoms: C_33  and  N_35 
REMARK   10  A    between atoms: N_35  and  C_36 
REMARK   11  A    between atoms: C_36  and  C_37 
REMARK   12  A    between atoms: C_37  and  C_38 
REMARK   13  A    between atoms: C_38  and  O_40 
ROOT
HETATM    1  C   UNK N   1      37.171  12.141  12.013  0.00  0.00     0.162 C 
ENDROOT
BRANCH   1   2
HETATM    2  O   UNK N   1      37.599  12.378  13.336  0.00  0.00    -0.341 OA
BRANCH   2   3
HETATM    3  C   UNK N   1      37.062  11.925  14.519  0.00  0.00     0.070 A 
HETATM    4  C   UNK N   1      36.225  12.747  15.283  0.00  0.00     0.044 A 
HETATM    5  C   UNK N   1      35.674  12.285  16.499  0.00  0.00    -0.048 A 
HETATM    6  C   UNK N   1      34.812  13.225  17.273  0.00  0.00     0.049 C 
HETATM    7  C   UNK N   1      35.998  10.981  16.985  0.00  0.00    -0.014 A 
HETATM    8  C   UNK N   1      36.837  10.170  16.186  0.00  0.00    -0.048 A 
HETATM    9  C   UNK N   1      37.320  10.646  14.990  0.00  0.00     0.044 A 
HETATM   10  C   UNK N   1      37.202   8.762  16.531  0.00  0.00     0.049 C 
BRANCH   7  11
HETATM   11  C   UNK N   1      35.492  10.453  18.295  0.00  0.00    -0.025 A 
HETATM   12  C   UNK N   1      34.381   9.597  18.305  0.00  0.00     0.013 A 
HETATM   13  C   UNK N   1      33.862   9.098  19.491  0.00  0.00     0.009 A 
HETATM   14  C   UNK N   1      34.421   9.470  20.719  0.00  0.00    -0.051 A 
HETATM   15  C   UNK N   1      35.538  10.328  20.723  0.00  0.00     0.009 A 
HETATM   16  C   UNK N   1      36.081  10.801  19.520  0.00  0.00     0.013 A 
BRANCH  14  17
HETATM   17  C   UNK N   1      33.811   8.930  21.995  0.00  0.00    -0.024 C 
HETATM   18  C   UNK N   1      34.689   9.167  23.214  0.00  0.00     0.019 C 
HETATM   19  C   UNK N   1      32.467   9.594  22.254  0.00  0.00     0.019 C 
HETATM   20  C   UNK N   1      33.590   7.434  21.856  0.00  0.00     0.019 C 
ENDBRANCH  14  17
ENDBRANCH   7  11
ENDBRANCH   2   3
ENDBRANCH   1   2
BRANCH   1  21
HETATM   21  C   UNK N   1      36.503  10.781  11.875  0.00  0.00     0.046 C 
BRANCH  21  22
HETATM   22  C   UNK N   1      34.998  10.955  11.707  0.00  0.00     0.120 C 
BRANCH  22  23
HETATM   23  C   UNK N   1      34.188  10.145  12.719  0.00  0.00     0.388 C 
HETATM   24  F   UNK N   1      34.947   9.117  13.245  0.00  0.00    -0.171 F 
HETATM   25  F   UNK N   1      33.802  10.977  13.752  0.00  0.00    -0.171 F 
HETATM   26  F   UNK N   1      33.061   9.622  12.115  0.00  0.00    -0.171 F 
ENDBRANCH  22  23
ENDBRANCH  21  22
ENDBRANCH   1  21
BRANCH   1  27
HETATM   27  C   UNK N   1      36.358  13.234  11.367  0.00  0.00    -0.029 A 
HETATM   28  C   UNK N   1      35.610  14.120  12.153  0.00  0.00     0.011 A 
HETATM   29  C   UNK N   1      35.123  15.300  11.591  0.00  0.00     0.017 A 
HETATM   30  C   UNK N   1      35.344  15.601  10.239  0.00  0.00     0.032 A 
HETATM   31  C   UNK N   1      36.017  14.664   9.435  0.00  0.00     0.017 A 
HETATM   32  C   UNK N   1      36.532  13.493  10.001  0.00  0.00     0.011 A 
BRANCH  30  33
HETATM   33  C   UNK N   1      34.982  16.958   9.742  0.00  0.00     0.251 C 
HETATM   34  O   UNK N   1      35.695  17.898  10.071  0.00  0.00    -0.268 OA
HETATM   35  N   UNK N   1      33.942  17.219   8.917  0.00  0.00    -0.356 N 
HETATM   36  H   UNK N   1      33.893  18.127   8.539  0.00  0.00     0.162 HD
BRANCH  35  37
HETATM   37  C   UNK N   1      32.897  16.300   8.534  0.00  0.00     0.133 C 
BRANCH  37  38
HETATM   38  C   UNK N   1      32.998  15.959   7.036  0.00  0.00     0.129 C 
BRANCH  38  39
HETATM   39  C   UNK N   1      34.160  16.602   6.322  0.00  0.00     0.140 C 
HETATM   40  O   UNK N   1      35.151  15.942   6.059  0.00  0.00    -0.650 OA
BRANCH  39  41
HETATM   41  O   UNK N   1      34.099  17.895   5.946  0.00  0.00    -0.776 OA
HETATM   42  H   UNK N   1      34.345  18.573   6.544  0.00  0.00     0.167 HD
ENDBRANCH  39  41
ENDBRANCH  38  39
ENDBRANCH  37  38
ENDBRANCH  35  37
ENDBRANCH  30  33
ENDBRANCH   1  27
TORSDOF 13
ENDMDL
MODEL 4
REMARK VINA RESULT:      -8.1      4.368      6.204
REMARK  13 active torsions:
REMARK  status: ('A' for Active; 'I' for Inactive)
REMARK    1  A    between atoms: C_4  and  O_19 
REMARK    2  A    between atoms: C_7  and  C_8 
REMARK    3  A    between atoms: C_11  and  C_14 
REMARK    4  A    between atoms: C_20  and  O_19 
REMARK    5  A    between atoms: C_20  and  C_21 
REMARK    6  A    between atoms: C_20  and  C_27 
REMARK    7  A    between atoms: C_21  and  C_22 
REMARK    8  A    between atoms: C_22  and  C_23 
REMARK    9  A    between atoms: C_30  and  C_33 
REMARK       I    between atoms: C_33  and  N_35 
REMARK   10  A    between atoms: N_35  and  C_36 
REMARK   11  A    between atoms: C_36  and  C_37 
REMARK   12  A    between atoms: C_37  and  C_38 
REMARK   13  A    between atoms: C_38  and  O_40 
ROOT
HETATM    1  C   UNK N   1      25.609  18.467   4.669  0.00  0.00     0.162 C 
ENDROOT
BRANCH   1   2
HETATM    2  O   UNK N   1      26.720  17.654   4.361  0.00  0.00    -0.341 OA
BRANCH   2   3
HETATM    3  C   UNK N   1      27.869  17.440   5.085  0.00  0.00     0.070 A 
HETATM    4  C   UNK N   1      29.098  17.265   4.437  0.00  0.00     0.044 A 
HETATM    5  C   UNK N   1      30.279  17.042   5.179  0.00  0.00    -0.048 A 
HETATM    6  C   UNK N   1      31.548  16.839   4.421  0.00  0.00     0.049 C 
HETATM    7  C   UNK N   1      30.228  16.954   6.604  0.00  0.00    -0.014 A 
HETATM    8  C   UNK N   1      28.974  17.145   7.231  0.00  0.00    -0.048 A 
HETATM    9  C   UNK N   1      27.856  17.398   6.472  0.00  0.00     0.044 A 
HETATM   10  C   UNK N   1      28.780  17.151   8.713  0.00  0.00     0.049 C 
BRANCH   7  11
HETATM   11  C   UNK N   1      31.435  16.663   7.445  0.00  0.00    -0.025 A 
HETATM   12  C   UNK N   1      31.759  15.331   7.742  0.00  0.00     0.013 A 
HETATM   13  C   UNK N   1      32.852  15.010   8.534  0.00  0.00     0.009 A 
HETATM   14  C   UNK N   1      33.645  16.022   9.087  0.00  0.00    -0.051 A 
HETATM   15  C   UNK N   1      33.332  17.364   8.796  0.00  0.00     0.009 A 
HETATM   16  C   UNK N   1      32.247  17.682   7.966  0.00  0.00     0.013 A 
BRANCH  14  17
HETATM   17  C   UNK N   1      34.814  15.636   9.970  0.00  0.00    -0.024 C 
HETATM   18  C   UNK N   1      35.881  14.850   9.225  0.00  0.00     0.019 C 
HETATM   19  C   UNK N   1      35.470  16.884  10.541  0.00  0.00     0.019 C 
HETATM   20  C   UNK N   1      34.316  14.783  11.123  0.00  0.00     0.019 C 
ENDBRANCH  14  17
ENDBRANCH   7  11
ENDBRANCH   2   3
ENDBRANCH   1   2
BRANCH   1  21
HETATM   21  C   UNK N   1      25.900  19.936   4.407  0.00  0.00     0.046 C 
BRANCH  21  22
HETATM   22  C   UNK N   1      26.091  20.673   5.729  0.00  0.00     0.120 C 
BRANCH  22  23
HETATM   23  C   UNK N   1      27.550  21.035   6.004  0.00  0.00     0.388 C 
HETATM   24  F   UNK N   1      28.017  20.376   7.125  0.00  0.00    -0.171 F 
HETATM   25  F   UNK N   1      28.318  20.653   4.921  0.00  0.00    -0.171 F 
HETATM   26  F   UNK N   1      27.674  22.399   6.187  0.00  0.00    -0.171 F 
ENDBRANCH  22  23
ENDBRANCH  21  22
ENDBRANCH   1  21
BRANCH   1  27
HETATM   27  C   UNK N   1      24.287  18.043   4.080  0.00  0.00    -0.029 A 
HETATM   28  C   UNK N   1      23.964  16.684   3.966  0.00  0.00     0.011 A 
HETATM   29  C   UNK N   1      22.644  16.305   3.722  0.00  0.00     0.017 A 
HETATM   30  C   UNK N   1      21.635  17.267   3.557  0.00  0.00     0.032 A 
HETATM   31  C   UNK N   1      21.984  18.628   3.582  0.00  0.00     0.017 A 
HETATM   32  C   UNK N   1      23.301  19.013   3.854  0.00  0.00     0.011 A 
BRANCH  30  33
HETATM   33  C   UNK N   1      20.218  16.810   3.502  0.00  0.00     0.251 C 
HETATM   34  O   UNK N   1      19.598  16.739   4.556  0.00  0.00    -0.268 OA
HETATM   35  N   UNK N   1      19.555  16.509   2.362  0.00  0.00    -0.356 N 
HETATM   36  H   UNK N   1      18.584  16.365   2.440  0.00  0.00     0.162 HD
BRANCH  35  37
HETATM   37  C   UNK N   1      20.126  16.379   1.043  0.00  0.00     0.133 C 
BRANCH  37  38
HETATM   38  C   UNK N   1      20.621  14.940   0.808  0.00  0.00     0.129 C 
BRANCH  38  39
HETATM   39  C   UNK N   1      19.527  13.906   0.714  0.00  0.00     0.140 C 
HETATM   40  O   UNK N   1      19.794  12.771   0.358  0.00  0.00    -0.650 OA
BRANCH  39  41
HETATM   41  O   UNK N   1      18.260  14.221   1.048  0.00  0.00    -0.776 OA
HETATM   42  H   UNK N   1      17.804  13.725   1.698  0.00  0.00     0.167 HD
ENDBRANCH  39  41
ENDBRANCH  38  39
ENDBRANCH  37  38
ENDBRANCH  35  37
ENDBRANCH  30  33
ENDBRANCH   1  27
TORSDOF 13
ENDMDL
MODEL 5
REMARK VINA RESULT:      -8.1      9.579     14.358
REMARK  13 active torsions:
REMARK  status: ('A' for Active; 'I' for Inactive)
REMARK    1  A    between atoms: C_4  and  O_19 
REMARK    2  A    between atoms: C_7  and  C_8 
REMARK    3  A    between atoms: C_11  and  C_14 
REMARK    4  A    between atoms: C_20  and  O_19 
REMARK    5  A    between atoms: C_20  and  C_21 
REMARK    6  A    between atoms: C_20  and  C_27 
REMARK    7  A    between atoms: C_21  and  C_22 
REMARK    8  A    between atoms: C_22  and  C_23 
REMARK    9  A    between atoms: C_30  and  C_33 
REMARK       I    between atoms: C_33  and  N_35 
REMARK   10  A    between atoms: N_35  and  C_36 
REMARK   11  A    between atoms: C_36  and  C_37 
REMARK   12  A    between atoms: C_37  and  C_38 
REMARK   13  A    between atoms: C_38  and  O_40 
ROOT
HETATM    1  C   UNK N   1      35.752  14.538   9.802  0.00  0.00     0.162 C 
ENDROOT
BRANCH   1   2
HETATM    2  O   UNK N   1      35.699  15.076  11.105  0.00  0.00    -0.341 OA
BRANCH   2   3
HETATM    3  C   UNK N   1      35.717  14.426  12.316  0.00  0.00     0.070 A 
HETATM    4  C   UNK N   1      36.449  14.944  13.392  0.00  0.00     0.044 A 
HETATM    5  C   UNK N   1      36.472  14.277  14.637  0.00  0.00    -0.048 A 
HETATM    6  C   UNK N   1      37.295  14.872  15.730  0.00  0.00     0.049 C 
HETATM    7  C   UNK N   1      35.775  13.040  14.803  0.00  0.00    -0.014 A 
HETATM    8  C   UNK N   1      35.035  12.548  13.702  0.00  0.00    -0.048 A 
HETATM    9  C   UNK N   1      35.011  13.250  12.520  0.00  0.00     0.044 A 
HETATM   10  C   UNK N   1      34.202  11.308  13.750  0.00  0.00     0.049 C 
BRANCH   7  11
HETATM   11  C   UNK N   1      35.805  12.255  16.080  0.00  0.00    -0.025 A 
HETATM   12  C   UNK N   1      36.465  11.017  16.107  0.00  0.00     0.013 A 
HETATM   13  C   UNK N   1      36.502  10.242  17.258  0.00  0.00     0.009 A 
HETATM   14  C   UNK N   1      35.848  10.668  18.419  0.00  0.00    -0.051 A 
HETATM   15  C   UNK N   1      35.183  11.910  18.406  0.00  0.00     0.009 A 
HETATM   16  C   UNK N   1      35.178  12.706  17.251  0.00  0.00     0.013 A 
BRANCH  14  17
HETATM   17  C   UNK N   1      35.886   9.783  19.648  0.00  0.00    -0.024 C 
HETATM   18  C   UNK N   1      35.721   8.308  19.317  0.00  0.00     0.019 C 
HETATM   19  C   UNK N   1      37.212   9.952  20.372  0.00  0.00     0.019 C 
HETATM   20  C   UNK N   1      34.766  10.184  20.592  0.00  0.00     0.019 C 
ENDBRANCH  14  17
ENDBRANCH   7  11
ENDBRANCH   2   3
ENDBRANCH   1   2
BRANCH   1  21
HETATM   21  C   UNK N   1      36.171  13.076   9.816  0.00  0.00     0.046 C 
BRANCH  21  22
HETATM   22  C   UNK N   1      37.494  12.906   9.077  0.00  0.00     0.120 C 
BRANCH  22  23
HETATM   23  C   UNK N   1      38.706  13.273   9.932  0.00  0.00     0.388 C 
HETATM   24  F   UNK N   1      39.819  12.554   9.541  0.00  0.00    -0.171 F 
HETATM   25  F   UNK N   1      38.975  14.618   9.773  0.00  0.00    -0.171 F 
HETATM   26  F   UNK N   1      38.440  13.020  11.264  0.00  0.00    -0.171 F 
ENDBRANCH  22  23
ENDBRANCH  21  22
ENDBRANCH   1  21
BRANCH   1  27
HETATM   27  C   UNK N   1      34.539  14.765   8.935  0.00  0.00    -0.029 A 
HETATM   28  C   UNK N   1      33.277  14.320   9.350  0.00  0.00     0.011 A 
HETATM   29  C   UNK N   1      32.131  14.798   8.715  0.00  0.00     0.017 A 
HETATM   30  C   UNK N   1      32.223  15.698   7.642  0.00  0.00     0.032 A 
HETATM   31  C   UNK N   1      33.495  16.069   7.172  0.00  0.00     0.017 A 
HETATM   32  C   UNK N   1      34.646  15.614   7.825  0.00  0.00     0.011 A 
BRANCH  30  33
HETATM   33  C   UNK N   1      30.974  16.331   7.134  0.00  0.00     0.251 C 
HETATM   34  O   UNK N   1      30.475  15.877   6.112  0.00  0.00    -0.268 OA
HETATM   35  N   UNK N   1      30.327  17.348   7.749  0.00  0.00    -0.356 N 
HETATM   36  H   UNK N   1      29.436  17.581   7.401  0.00  0.00     0.162 HD
BRANCH  35  37
HETATM   37  C   UNK N   1      30.811  18.126   8.865  0.00  0.00     0.133 C 
BRANCH  37  38
HETATM   38  C   UNK N   1      29.639  18.605   9.740  0.00  0.00     0.129 C 
BRANCH  38  39
HETATM   39  C   UNK N   1      28.279  18.147   9.276  0.00  0.00     0.140 C 
HETATM   40  O   UNK N   1      27.867  17.046   9.598  0.00  0.00    -0.650 OA
BRANCH  39  41
HETATM   41  O   UNK N   1      27.504  18.959   8.530  0.00  0.00    -0.776 OA
HETATM   42  H   UNK N   1      27.615  18.998   7.601  0.00  0.00     0.167 HD
ENDBRANCH  39  41
ENDBRANCH  38  39
ENDBRANCH  37  38
ENDBRANCH  35  37
ENDBRANCH  30  33
ENDBRANCH   1  27
TORSDOF 13
ENDMDL
MODEL 6
REMARK VINA RESULT:      -8.0      2.065      3.018
REMARK  13 active torsions:
REMARK  status: ('A' for Active; 'I' for Inactive)
REMARK    1  A    between atoms: C_4  and  O_19 
REMARK    2  A    between atoms: C_7  and  C_8 
REMARK    3  A    between atoms: C_11  and  C_14 
REMARK    4  A    between atoms: C_20  and  O_19 
REMARK    5  A    between atoms: C_20  and  C_21 
REMARK    6  A    between atoms: C_20  and  C_27 
REMARK    7  A    between atoms: C_21  and  C_22 
REMARK    8  A    between atoms: C_22  and  C_23 
REMARK    9  A    between atoms: C_30  and  C_33 
REMARK       I    between atoms: C_33  and  N_35 
REMARK   10  A    between atoms: N_35  and  C_36 
REMARK   11  A    between atoms: C_36  and  C_37 
REMARK   12  A    between atoms: C_37  and  C_38 
REMARK   13  A    between atoms: C_38  and  O_40 
ROOT
HETATM    1  C   UNK N   1      22.793  19.318   3.695  0.00  0.00     0.162 C 
ENDROOT
BRANCH   1   2
HETATM    2  O   UNK N   1      24.065  19.366   3.087  0.00  0.00    -0.341 OA
BRANCH   2   3
HETATM    3  C   UNK N   1      25.284  18.974   3.587  0.00  0.00     0.070 A 
HETATM    4  C   UNK N   1      25.786  17.694   3.322  0.00  0.00     0.044 A 
HETATM    5  C   UNK N   1      27.037  17.288   3.837  0.00  0.00    -0.048 A 
HETATM    6  C   UNK N   1      27.495  15.900   3.536  0.00  0.00     0.049 C 
HETATM    7  C   UNK N   1      27.791  18.169   4.671  0.00  0.00    -0.014 A 
HETATM    8  C   UNK N   1      27.265  19.460   4.912  0.00  0.00    -0.048 A 
HETATM    9  C   UNK N   1      26.061  19.826   4.359  0.00  0.00     0.044 A 
HETATM   10  C   UNK N   1      27.974  20.510   5.703  0.00  0.00     0.049 C 
BRANCH   7  11
HETATM   11  C   UNK N   1      29.098  17.779   5.294  0.00  0.00    -0.025 A 
HETATM   12  C   UNK N   1      29.144  17.492   6.667  0.00  0.00     0.013 A 
HETATM   13  C   UNK N   1      30.332  17.147   7.296  0.00  0.00     0.009 A 
HETATM   14  C   UNK N   1      31.529  17.110   6.573  0.00  0.00    -0.051 A 
HETATM   15  C   UNK N   1      31.498  17.395   5.193  0.00  0.00     0.009 A 
HETATM   16  C   UNK N   1      30.289  17.708   4.556  0.00  0.00     0.013 A 
BRANCH  14  17
HETATM   17  C   UNK N   1      32.812  16.758   7.297  0.00  0.00    -0.024 C 
HETATM   18  C   UNK N   1      33.010  17.565   8.571  0.00  0.00     0.019 C 
HETATM   19  C   UNK N   1      32.810  15.285   7.677  0.00  0.00     0.019 C 
HETATM   20  C   UNK N   1      33.996  17.019   6.383  0.00  0.00     0.019 C 
ENDBRANCH  14  17
ENDBRANCH   7  11
ENDBRANCH   2   3
ENDBRANCH   1   2
BRANCH   1  21
HETATM   21  C   UNK N   1      21.690  19.692   2.718  0.00  0.00     0.046 C 
BRANCH  21  22
HETATM   22  C   UNK N   1      20.332  19.607   3.407  0.00  0.00     0.120 C 
BRANCH  22  23
HETATM   23  C   UNK N   1      19.402  18.578   2.765  0.00  0.00     0.388 C 
HETATM   24  F   UNK N   1      19.971  18.047   1.622  0.00  0.00    -0.171 F 
HETATM   25  F   UNK N   1      19.183  17.551   3.662  0.00  0.00    -0.171 F 
HETATM   26  F   UNK N   1      18.193  19.165   2.446  0.00  0.00    -0.171 F 
ENDBRANCH  22  23
ENDBRANCH  21  22
ENDBRANCH   1  21
BRANCH   1  27
HETATM   27  C   UNK N   1      22.464  18.060   4.459  0.00  0.00    -0.029 A 
HETATM   28  C   UNK N   1      22.005  18.133   5.780  0.00  0.00     0.011 A 
HETATM   29  C   UNK N   1      21.410  17.016   6.368  0.00  0.00     0.017 A 
HETATM   30  C   UNK N   1      21.293  15.806   5.666  0.00  0.00     0.032 A 
HETATM   31  C   UNK N   1      21.839  15.715   4.373  0.00  0.00     0.017 A 
HETATM   32  C   UNK N   1      22.410  16.841   3.770  0.00  0.00     0.011 A 
BRANCH  30  33
HETATM   33  C   UNK N   1      20.474  14.713   6.261  0.00  0.00     0.251 C 
HETATM   34  O   UNK N   1      19.355  14.520   5.802  0.00  0.00    -0.268 OA
HETATM   35  N   UNK N   1      20.898  13.890   7.247  0.00  0.00    -0.356 N 
HETATM   36  H   UNK N   1      20.327  13.115   7.452  0.00  0.00     0.162 HD
BRANCH  35  37
HETATM   37  C   UNK N   1      22.104  14.032   8.028  0.00  0.00     0.133 C 
BRANCH  37  38
HETATM   38  C   UNK N   1      21.776  14.050   9.532  0.00  0.00     0.129 C 
BRANCH  38  39
HETATM   39  C   UNK N   1      20.306  13.956   9.856  0.00  0.00     0.140 C 
HETATM   40  O   UNK N   1      19.550  14.848   9.509  0.00  0.00    -0.650 OA
BRANCH  39  41
HETATM   41  O   UNK N   1      19.818  12.880  10.504  0.00  0.00    -0.776 OA
HETATM   42  H   UNK N   1      18.944  12.586  10.341  0.00  0.00     0.167 HD
ENDBRANCH  39  41
ENDBRANCH  38  39
ENDBRANCH  37  38
ENDBRANCH  35  37
ENDBRANCH  30  33
ENDBRANCH   1  27
TORSDOF 13
ENDMDL
MODEL 7
REMARK VINA RESULT:      -8.0     10.037     14.954
REMARK  13 active torsions:
REMARK  status: ('A' for Active; 'I' for Inactive)
REMARK    1  A    between atoms: C_4  and  O_19 
REMARK    2  A    between atoms: C_7  and  C_8 
REMARK    3  A    between atoms: C_11  and  C_14 
REMARK    4  A    between atoms: C_20  and  O_19 
REMARK    5  A    between atoms: C_20  and  C_21 
REMARK    6  A    between atoms: C_20  and  C_27 
REMARK    7  A    between atoms: C_21  and  C_22 
REMARK    8  A    between atoms: C_22  and  C_23 
REMARK    9  A    between atoms: C_30  and  C_33 
REMARK       I    between atoms: C_33  and  N_35 
REMARK   10  A    between atoms: N_35  and  C_36 
REMARK   11  A    between atoms: C_36  and  C_37 
REMARK   12  A    between atoms: C_37  and  C_38 
REMARK   13  A    between atoms: C_38  and  O_40 
ROOT
HETATM    1  C   UNK N   1      35.909  14.412  10.232  0.00  0.00     0.162 C 
ENDROOT
BRANCH   1   2
HETATM    2  O   UNK N   1      34.943  13.996  11.171  0.00  0.00    -0.341 OA
BRANCH   2   3
HETATM    3  C   UNK N   1      35.121  13.506  12.444  0.00  0.00     0.070 A 
HETATM    4  C   UNK N   1      35.962  14.163  13.350  0.00  0.00     0.044 A 
HETATM    5  C   UNK N   1      36.149  13.660  14.656  0.00  0.00    -0.048 A 
HETATM    6  C   UNK N   1      37.081  14.397  15.559  0.00  0.00     0.049 C 
HETATM    7  C   UNK N   1      35.509  12.448  15.058  0.00  0.00    -0.014 A 
HETATM    8  C   UNK N   1      34.656  11.812  14.125  0.00  0.00    -0.048 A 
HETATM    9  C   UNK N   1      34.474  12.358  12.877  0.00  0.00     0.044 A 
HETATM   10  C   UNK N   1      33.867  10.580  14.428  0.00  0.00     0.049 C 
BRANCH   7  11
HETATM   11  C   UNK N   1      35.710  11.831  16.411  0.00  0.00    -0.025 A 
HETATM   12  C   UNK N   1      36.446  10.641  16.518  0.00  0.00     0.013 A 
HETATM   13  C   UNK N   1      36.642  10.019  17.744  0.00  0.00     0.009 A 
HETATM   14  C   UNK N   1      36.076  10.554  18.906  0.00  0.00    -0.051 A 
HETATM   15  C   UNK N   1      35.337  11.750  18.813  0.00  0.00     0.009 A 
HETATM   16  C   UNK N   1      35.171  12.393  17.577  0.00  0.00     0.013 A 
BRANCH  14  17
HETATM   17  C   UNK N   1      36.287   9.834  20.222  0.00  0.00    -0.024 C 
HETATM   18  C   UNK N   1      37.277  10.545  21.130  0.00  0.00     0.019 C 
HETATM   19  C   UNK N   1      34.968   9.720  20.971  0.00  0.00     0.019 C 
HETATM   20  C   UNK N   1      36.811   8.434  19.953  0.00  0.00     0.019 C 
ENDBRANCH  14  17
ENDBRANCH   7  11
ENDBRANCH   2   3
ENDBRANCH   1   2
BRANCH   1  21
HETATM   21  C   UNK N   1      36.697  13.235   9.680  0.00  0.00     0.046 C 
BRANCH  21  22
HETATM   22  C   UNK N   1      37.843  12.886  10.624  0.00  0.00     0.120 C 
BRANCH  22  23
HETATM   23  C   UNK N   1      37.759  11.458  11.160  0.00  0.00     0.388 C 
HETATM   24  F   UNK N   1      37.915  11.439  12.533  0.00  0.00    -0.171 F 
HETATM   25  F   UNK N   1      36.517  10.937  10.853  0.00  0.00    -0.171 F 
HETATM   26  F   UNK N   1      38.735  10.673  10.576  0.00  0.00    -0.171 F 
ENDBRANCH  22  23
ENDBRANCH  21  22
ENDBRANCH   1  21
BRANCH   1  27
HETATM   27  C   UNK N   1      35.425  15.327   9.136  0.00  0.00    -0.029 A 
HETATM   28  C   UNK N   1      35.368  14.877   7.810  0.00  0.00     0.011 A 
HETATM   29  C   UNK N   1      34.638  15.598   6.865  0.00  0.00     0.017 A 
HETATM   30  C   UNK N   1      33.983  16.789   7.215  0.00  0.00     0.032 A 
HETATM   31  C   UNK N   1      34.121  17.282   8.524  0.00  0.00     0.017 A 
HETATM   32  C   UNK N   1      34.828  16.547   9.481  0.00  0.00     0.011 A 
BRANCH  30  33
HETATM   33  C   UNK N   1      33.056  17.409   6.227  0.00  0.00     0.251 C 
HETATM   34  O   UNK N   1      33.542  18.095   5.336  0.00  0.00    -0.268 OA
HETATM   35  N   UNK N   1      31.714  17.231   6.219  0.00  0.00    -0.356 N 
HETATM   36  H   UNK N   1      31.228  17.567   5.433  0.00  0.00     0.162 HD
BRANCH  35  37
HETATM   37  C   UNK N   1      30.926  16.597   7.249  0.00  0.00     0.133 C 
BRANCH  37  38
HETATM   38  C   UNK N   1      29.627  17.385   7.498  0.00  0.00     0.129 C 
BRANCH  38  39
HETATM   39  C   UNK N   1      29.676  18.320   8.680  0.00  0.00     0.140 C 
HETATM   40  O   UNK N   1      30.744  18.786   9.042  0.00  0.00    -0.650 OA
BRANCH  39  41
HETATM   41  O   UNK N   1      28.544  18.667   9.323  0.00  0.00    -0.776 OA
HETATM   42  H   UNK N   1      28.067  19.430   9.064  0.00  0.00     0.167 HD
ENDBRANCH  39  41
ENDBRANCH  38  39
ENDBRANCH  37  38
ENDBRANCH  35  37
ENDBRANCH  30  33
ENDBRANCH   1  27
TORSDOF 13
ENDMDL
MODEL 8
REMARK VINA RESULT:      -8.0      4.186      6.530
REMARK  13 active torsions:
REMARK  status: ('A' for Active; 'I' for Inactive)
REMARK    1  A    between atoms: C_4  and  O_19 
REMARK    2  A    between atoms: C_7  and  C_8 
REMARK    3  A    between atoms: C_11  and  C_14 
REMARK    4  A    between atoms: C_20  and  O_19 
REMARK    5  A    between atoms: C_20  and  C_21 
REMARK    6  A    between atoms: C_20  and  C_27 
REMARK    7  A    between atoms: C_21  and  C_22 
REMARK    8  A    between atoms: C_22  and  C_23 
REMARK    9  A    between atoms: C_30  and  C_33 
REMARK       I    between atoms: C_33  and  N_35 
REMARK   10  A    between atoms: N_35  and  C_36 
REMARK   11  A    between atoms: C_36  and  C_37 
REMARK   12  A    between atoms: C_37  and  C_38 
REMARK   13  A    between atoms: C_38  and  O_40 
ROOT
HETATM    1  C   UNK N   1      26.619  18.500   4.255  0.00  0.00     0.162 C 
ENDROOT
BRANCH   1   2
HETATM    2  O   UNK N   1      27.895  17.991   3.937  0.00  0.00    -0.341 OA
BRANCH   2   3
HETATM    3  C   UNK N   1      28.943  17.685   4.773  0.00  0.00     0.070 A 
HETATM    4  C   UNK N   1      30.219  17.433   4.254  0.00  0.00     0.044 A 
HETATM    5  C   UNK N   1      31.297  17.115   5.110  0.00  0.00    -0.048 A 
HETATM    6  C   UNK N   1      32.622  16.832   4.485  0.00  0.00     0.049 C 
HETATM    7  C   UNK N   1      31.088  17.010   6.520  0.00  0.00    -0.014 A 
HETATM    8  C   UNK N   1      29.792  17.282   7.016  0.00  0.00    -0.048 A 
HETATM    9  C   UNK N   1      28.781  17.624   6.149  0.00  0.00     0.044 A 
HETATM   10  C   UNK N   1      29.442  17.280   8.469  0.00  0.00     0.049 C 
BRANCH   7  11
HETATM   11  C   UNK N   1      32.176  16.622   7.476  0.00  0.00    -0.025 A 
HETATM   12  C   UNK N   1      32.295  15.281   7.872  0.00  0.00     0.013 A 
HETATM   13  C   UNK N   1      33.270  14.875   8.771  0.00  0.00     0.009 A 
HETATM   14  C   UNK N   1      34.146  15.809   9.334  0.00  0.00    -0.051 A 
HETATM   15  C   UNK N   1      34.039  17.159   8.945  0.00  0.00     0.009 A 
HETATM   16  C   UNK N   1      33.074  17.559   8.009  0.00  0.00     0.013 A 
BRANCH  14  17
HETATM   17  C   UNK N   1      35.180  15.335  10.334  0.00  0.00    -0.024 C 
HETATM   18  C   UNK N   1      35.719  16.461  11.202  0.00  0.00     0.019 C 
HETATM   19  C   UNK N   1      34.574  14.288  11.256  0.00  0.00     0.019 C 
HETATM   20  C   UNK N   1      36.348  14.708   9.594  0.00  0.00     0.019 C 
ENDBRANCH  14  17
ENDBRANCH   7  11
ENDBRANCH   2   3
ENDBRANCH   1   2
BRANCH   1  21
HETATM   21  C   UNK N   1      26.465  19.946   3.808  0.00  0.00     0.046 C 
BRANCH  21  22
HETATM   22  C   UNK N   1      26.107  20.826   5.001  0.00  0.00     0.120 C 
BRANCH  22  23
HETATM   23  C   UNK N   1      27.293  21.077   5.931  0.00  0.00     0.388 C 
HETATM   24  F   UNK N   1      27.233  20.251   7.038  0.00  0.00    -0.171 F 
HETATM   25  F   UNK N   1      28.463  20.810   5.248  0.00  0.00    -0.171 F 
HETATM   26  F   UNK N   1      27.301  22.396   6.343  0.00  0.00    -0.171 F 
ENDBRANCH  22  23
ENDBRANCH  21  22
ENDBRANCH   1  21
BRANCH   1  27
HETATM   27  C   UNK N   1      25.440  17.656   3.842  0.00  0.00    -0.029 A 
HETATM   28  C   UNK N   1      25.627  16.328   3.436  0.00  0.00     0.011 A 
HETATM   29  C   UNK N   1      24.532  15.467   3.360  0.00  0.00     0.017 A 
HETATM   30  C   UNK N   1      23.237  15.919   3.655  0.00  0.00     0.032 A 
HETATM   31  C   UNK N   1      23.046  17.275   3.972  0.00  0.00     0.017 A 
HETATM   32  C   UNK N   1      24.145  18.135   4.077  0.00  0.00     0.011 A 
BRANCH  30  33
HETATM   33  C   UNK N   1      22.138  14.918   3.756  0.00  0.00     0.251 C 
HETATM   34  O   UNK N   1      21.892  14.446   4.859  0.00  0.00    -0.268 OA
HETATM   35  N   UNK N   1      21.364  14.524   2.718  0.00  0.00    -0.356 N 
HETATM   36  H   UNK N   1      20.578  13.973   2.937  0.00  0.00     0.162 HD
BRANCH  35  37
HETATM   37  C   UNK N   1      21.573  14.830   1.324  0.00  0.00     0.133 C 
BRANCH  37  38
HETATM   38  C   UNK N   1      20.303  15.443   0.707  0.00  0.00     0.129 C 
BRANCH  38  39
HETATM   39  C   UNK N   1      20.161  16.931   0.909  0.00  0.00     0.140 C 
HETATM   40  O   UNK N   1      19.971  17.376   2.028  0.00  0.00    -0.650 OA
BRANCH  39  41
HETATM   41  O   UNK N   1      20.269  17.774  -0.137  0.00  0.00    -0.776 OA
HETATM   42  H   UNK N   1      21.019  17.742  -0.696  0.00  0.00     0.167 HD
ENDBRANCH  39  41
ENDBRANCH  38  39
ENDBRANCH  37  38
ENDBRANCH  35  37
ENDBRANCH  30  33
ENDBRANCH   1  27
TORSDOF 13
ENDMDL
MODEL 9
REMARK VINA RESULT:      -7.9      5.304      8.898
REMARK  13 active torsions:
REMARK  status: ('A' for Active; 'I' for Inactive)
REMARK    1  A    between atoms: C_4  and  O_19 
REMARK    2  A    between atoms: C_7  and  C_8 
REMARK    3  A    between atoms: C_11  and  C_14 
REMARK    4  A    between atoms: C_20  and  O_19 
REMARK    5  A    between atoms: C_20  and  C_21 
REMARK    6  A    between atoms: C_20  and  C_27 
REMARK    7  A    between atoms: C_21  and  C_22 
REMARK    8  A    between atoms: C_22  and  C_23 
REMARK    9  A    between atoms: C_30  and  C_33 
REMARK       I    between atoms: C_33  and  N_35 
REMARK   10  A    between atoms: N_35  and  C_36 
REMARK   11  A    between atoms: C_36  and  C_37 
REMARK   12  A    between atoms: C_37  and  C_38 
REMARK   13  A    between atoms: C_38  and  O_40 
ROOT
HETATM    1  C   UNK N   1      28.977  17.779   6.035  0.00  0.00     0.162 C 
ENDROOT
BRANCH   1   2
HETATM    2  O   UNK N   1      30.323  17.629   5.642  0.00  0.00    -0.341 OA
BRANCH   2   3
HETATM    3  C   UNK N   1      31.334  16.923   6.251  0.00  0.00     0.070 A 
HETATM    4  C   UNK N   1      31.416  15.532   6.114  0.00  0.00     0.044 A 
HETATM    5  C   UNK N   1      32.451  14.805   6.741  0.00  0.00    -0.048 A 
HETATM    6  C   UNK N   1      32.461  13.322   6.572  0.00  0.00     0.049 C 
HETATM    7  C   UNK N   1      33.410  15.478   7.558  0.00  0.00    -0.014 A 
HETATM    8  C   UNK N   1      33.308  16.885   7.670  0.00  0.00    -0.048 A 
HETATM    9  C   UNK N   1      32.306  17.557   7.011  0.00  0.00     0.044 A 
HETATM   10  C   UNK N   1      34.279  17.729   8.431  0.00  0.00     0.049 C 
BRANCH   7  11
HETATM   11  C   UNK N   1      34.499  14.758   8.296  0.00  0.00    -0.025 A 
HETATM   12  C   UNK N   1      35.691  14.447   7.626  0.00  0.00     0.013 A 
HETATM   13  C   UNK N   1      36.720  13.763   8.257  0.00  0.00     0.009 A 
HETATM   14  C   UNK N   1      36.576  13.335   9.581  0.00  0.00    -0.051 A 
HETATM   15  C   UNK N   1      35.385  13.641  10.267  0.00  0.00     0.009 A 
HETATM   16  C   UNK N   1      34.362  14.363   9.636  0.00  0.00     0.013 A 
BRANCH  14  17
HETATM   17  C   UNK N   1      37.708  12.565  10.230  0.00  0.00    -0.024 C 
HETATM   18  C   UNK N   1      37.447  12.258  11.696  0.00  0.00     0.019 C 
HETATM   19  C   UNK N   1      37.922  11.243   9.509  0.00  0.00     0.019 C 
HETATM   20  C   UNK N   1      38.988  13.377  10.137  0.00  0.00     0.019 C 
ENDBRANCH  14  17
ENDBRANCH   7  11
ENDBRANCH   2   3
ENDBRANCH   1   2
BRANCH   1  21
HETATM   21  C   UNK N   1      28.863  18.417   7.412  0.00  0.00     0.046 C 
BRANCH  21  22
HETATM   22  C   UNK N   1      28.318  17.403   8.412  0.00  0.00     0.120 C 
BRANCH  22  23
HETATM   23  C   UNK N   1      29.174  17.293   9.673  0.00  0.00     0.388 C 
HETATM   24  F   UNK N   1      30.381  16.681   9.396  0.00  0.00    -0.171 F 
HETATM   25  F   UNK N   1      29.427  18.562  10.156  0.00  0.00    -0.171 F 
HETATM   26  F   UNK N   1      28.502  16.568  10.640  0.00  0.00    -0.171 F 
ENDBRANCH  22  23
ENDBRANCH  21  22
ENDBRANCH   1  21
BRANCH   1  27
HETATM   27  C   UNK N   1      28.057  18.434   5.036  0.00  0.00    -0.029 A 
HETATM   28  C   UNK N   1      27.261  17.654   4.188  0.00  0.00     0.011 A 
HETATM   29  C   UNK N   1      26.200  18.242   3.499  0.00  0.00     0.017 A 
HETATM   30  C   UNK N   1      25.936  19.615   3.618  0.00  0.00     0.032 A 
HETATM   31  C   UNK N   1      26.795  20.408   4.399  0.00  0.00     0.017 A 
HETATM   32  C   UNK N   1      27.842  19.816   5.113  0.00  0.00     0.011 A 
BRANCH  30  33
HETATM   33  C   UNK N   1      24.678  20.152   3.027  0.00  0.00     0.251 C 
HETATM   34  O   UNK N   1      24.773  21.009   2.157  0.00  0.00    -0.268 OA
HETATM   35  N   UNK N   1      23.436  19.728   3.356  0.00  0.00    -0.356 N 
HETATM   36  H   UNK N   1      22.695  20.050   2.793  0.00  0.00     0.162 HD
BRANCH  35  37
HETATM   37  C   UNK N   1      23.087  18.851   4.448  0.00  0.00     0.133 C 
BRANCH  37  38
HETATM   38  C   UNK N   1      21.563  18.656   4.520  0.00  0.00     0.129 C 
BRANCH  38  39
HETATM   39  C   UNK N   1      20.776  19.466   3.520  0.00  0.00     0.140 C 
HETATM   40  O   UNK N   1      20.486  18.980   2.440  0.00  0.00    -0.650 OA
BRANCH  39  41
HETATM   41  O   UNK N   1      20.368  20.714   3.823  0.00  0.00    -0.776 OA
HETATM   42  H   UNK N   1      19.604  20.848   4.348  0.00  0.00     0.167 HD
ENDBRANCH  39  41
ENDBRANCH  38  39
ENDBRANCH  37  38
ENDBRANCH  35  37
ENDBRANCH  30  33
ENDBRANCH   1  27
TORSDOF 13
ENDMDL
