MODEL 1
REMARK VINA RESULT:      -7.1      0.000      0.000
REMARK  5 active torsions:
REMARK  status: ('A' for Active; 'I' for Inactive)
REMARK    1  A    between atoms: C_2  and  S_3 
REMARK    2  A    between atoms: S_3  and  N_6 
REMARK    3  A    between atoms: C_8  and  C_10 
REMARK    4  A    between atoms: C_8  and  N_13 
REMARK    5  A    between atoms: C_15  and  C_19 
ROOT
HETATM    1  C   UNK N   1      35.448  13.900   9.137  0.00  0.00     0.159 C 
HETATM    2  C   UNK N   1      36.776  13.817   8.503  0.00  0.00     0.061 C 
HETATM    3  N   UNK N   1      37.817  13.769   7.990  0.00  0.00    -0.197 NA
ENDROOT
BRANCH   1   4
HETATM    4  C   UNK N   1      35.201  15.261   9.798  0.00  0.00     0.090 A 
HETATM    5  C   UNK N   1      36.363  15.713  10.658  0.00  0.00     0.142 A 
HETATM    6  N   UNK N   1      35.584  15.548  11.892  0.00  0.00    -0.206 NA
HETATM    7  C   UNK N   1      34.438  15.168  11.084  0.00  0.00     0.142 A 
BRANCH   6   8
HETATM    8  S   UNK N   1      35.985  14.066  12.795  0.00  0.00     0.211 S 
HETATM    9  O   UNK N   1      36.610  14.596  14.099  0.00  0.00    -0.211 OA
HETATM   10  O   UNK N   1      34.678  13.467  13.342  0.00  0.00    -0.211 OA
BRANCH   8  11
HETATM   11  C   UNK N   1      37.125  12.857  12.082  0.00  0.00     0.153 C 
HETATM   12  C   UNK N   1      36.383  11.551  11.874  0.00  0.00     0.022 C 
ENDBRANCH   8  11
ENDBRANCH   6   8
BRANCH   4  13
HETATM   13  N   UNK N   1      34.556  16.226   8.911  0.00  0.00    -0.289 N 
HETATM   14  C   UNK N   1      33.594  15.932   8.034  0.00  0.00     0.126 A 
HETATM   15  C   UNK N   1      33.062  17.119   7.596  0.00  0.00     0.026 A 
HETATM   16  C   UNK N   1      33.753  18.126   8.238  0.00  0.00     0.122 A 
HETATM   17  N   UNK N   1      34.659  17.544   9.044  0.00  0.00    -0.308 N 
ATOM     18  HN  UNK N   1      35.314  18.031   9.654  1.00  0.00     0.186 HD
BRANCH  15  19
HETATM   19  C   UNK N   1      31.875  17.247   6.749  0.00  0.00     0.060 A 
HETATM   20  C   UNK N   1      31.981  17.224   5.361  0.00  0.00     0.037 A 
HETATM   21  C   UNK N   1      33.063  17.138   4.512  0.00  0.00     0.034 A 
HETATM   22  C   UNK N   1      30.869  17.275   4.599  0.00  0.00     0.118 A 
HETATM   23  C   UNK N   1      32.518  17.143   3.229  0.00  0.00     0.090 A 
HETATM   24  N   UNK N   1      31.165  17.227   3.294  0.00  0.00    -0.352 N 
HETATM   25  H   UNK N   1      30.534  17.247   2.539  0.00  0.00     0.166 HD
HETATM   26  N   UNK N   1      29.628  17.350   5.137  0.00  0.00    -0.338 N 
HETATM   27  C   UNK N   1      29.509  17.375   6.499  0.00  0.00     0.182 A 
ATOM     28  HN  UNK N   1      28.802  17.386   4.539  1.00  0.00     0.168 HD
HETATM   29  N   UNK N   1      30.624  17.320   7.296  0.00  0.00    -0.351 N 
ATOM     30  HN  UNK N   1      30.519  17.333   8.311  1.00  0.00     0.166 HD
ENDBRANCH  15  19
ENDBRANCH   4  13
ENDBRANCH   1   4
TORSDOF 5
ENDMDL
MODEL 2
REMARK VINA RESULT:      -7.0      1.250      2.418
REMARK  5 active torsions:
REMARK  status: ('A' for Active; 'I' for Inactive)
REMARK    1  A    between atoms: C_2  and  S_3 
REMARK    2  A    between atoms: S_3  and  N_6 
REMARK    3  A    between atoms: C_8  and  C_10 
REMARK    4  A    between atoms: C_8  and  N_13 
REMARK    5  A    between atoms: C_15  and  C_19 
ROOT
HETATM    1  C   UNK N   1      35.115  13.872   9.022  0.00  0.00     0.159 C 
HETATM    2  C   UNK N   1      36.369  13.822   8.249  0.00  0.00     0.061 C 
HETATM    3  N   UNK N   1      37.350  13.799   7.627  0.00  0.00    -0.197 NA
ENDROOT
BRANCH   1   4
HETATM    4  C   UNK N   1      34.889  15.239   9.679  0.00  0.00     0.090 A 
HETATM    5  C   UNK N   1      36.101  15.728  10.443  0.00  0.00     0.142 A 
HETATM    6  N   UNK N   1      35.418  15.568  11.734  0.00  0.00    -0.206 NA
HETATM    7  C   UNK N   1      34.224  15.152  11.019  0.00  0.00     0.142 A 
BRANCH   6   8
HETATM    8  S   UNK N   1      35.916  14.109  12.627  0.00  0.00     0.211 S 
HETATM    9  O   UNK N   1      36.527  14.672  13.924  0.00  0.00    -0.211 OA
HETATM   10  O   UNK N   1      34.652  13.436  13.190  0.00  0.00    -0.211 OA
BRANCH   8  11
HETATM   11  C   UNK N   1      37.112  12.969  11.895  0.00  0.00     0.153 C 
HETATM   12  C   UNK N   1      36.440  11.625  11.687  0.00  0.00     0.022 C 
ENDBRANCH   8  11
ENDBRANCH   6   8
BRANCH   4  13
HETATM   13  N   UNK N   1      34.161  16.176   8.827  0.00  0.00    -0.289 N 
HETATM   14  C   UNK N   1      33.026  15.897   8.182  0.00  0.00     0.126 A 
HETATM   15  C   UNK N   1      32.512  17.085   7.724  0.00  0.00     0.026 A 
HETATM   16  C   UNK N   1      33.392  18.075   8.112  0.00  0.00     0.122 A 
HETATM   17  N   UNK N   1      34.389  17.484   8.794  0.00  0.00    -0.308 N 
ATOM     18  HN  UNK N   1      35.187  17.960   9.215  1.00  0.00     0.186 HD
BRANCH  15  19
HETATM   19  C   UNK N   1      31.196  17.249   7.103  0.00  0.00     0.060 A 
HETATM   20  C   UNK N   1      30.081  17.574   7.869  0.00  0.00     0.037 A 
HETATM   21  C   UNK N   1      29.903  17.759   9.223  0.00  0.00     0.034 A 
HETATM   22  C   UNK N   1      28.891  17.788   7.270  0.00  0.00     0.118 A 
HETATM   23  C   UNK N   1      28.557  18.087   9.371  0.00  0.00     0.090 A 
HETATM   24  N   UNK N   1      27.942  18.104   8.161  0.00  0.00    -0.352 N 
HETATM   25  H   UNK N   1      26.996  18.306   7.977  0.00  0.00     0.166 HD
HETATM   26  N   UNK N   1      28.732  17.699   5.928  0.00  0.00    -0.338 N 
HETATM   27  C   UNK N   1      29.820  17.378   5.163  0.00  0.00     0.182 A 
ATOM     28  HN  UNK N   1      27.822  17.867   5.498  1.00  0.00     0.168 HD
HETATM   29  N   UNK N   1      31.042  17.160   5.748  0.00  0.00    -0.351 N 
ATOM     30  HN  UNK N   1      31.845  16.928   5.164  1.00  0.00     0.166 HD
ENDBRANCH  15  19
ENDBRANCH   4  13
ENDBRANCH   1   4
TORSDOF 5
ENDMDL
MODEL 3
REMARK VINA RESULT:      -7.0      1.699      2.089
REMARK  5 active torsions:
REMARK  status: ('A' for Active; 'I' for Inactive)
REMARK    1  A    between atoms: C_2  and  S_3 
REMARK    2  A    between atoms: S_3  and  N_6 
REMARK    3  A    between atoms: C_8  and  C_10 
REMARK    4  A    between atoms: C_8  and  N_13 
REMARK    5  A    between atoms: C_15  and  C_19 
ROOT
HETATM    1  C   UNK N   1      35.801  14.603   9.008  0.00  0.00     0.159 C 
HETATM    2  C   UNK N   1      35.061  13.470   8.427  0.00  0.00     0.061 C 
HETATM    3  N   UNK N   1      34.472  12.569   7.989  0.00  0.00    -0.197 NA
ENDROOT
BRANCH   1   4
HETATM    4  C   UNK N   1      34.903  15.516   9.852  0.00  0.00     0.090 A 
HETATM    5  C   UNK N   1      35.641  16.153  11.010  0.00  0.00     0.142 A 
HETATM    6  N   UNK N   1      34.891  15.363  11.995  0.00  0.00    -0.206 NA
HETATM    7  C   UNK N   1      34.129  14.780  10.904  0.00  0.00     0.142 A 
BRANCH   6   8
HETATM    8  S   UNK N   1      35.813  13.991  12.658  0.00  0.00     0.211 S 
HETATM    9  O   UNK N   1      36.494  14.584  13.906  0.00  0.00    -0.211 OA
HETATM   10  O   UNK N   1      34.820  13.022  13.323  0.00  0.00    -0.211 OA
BRANCH   8  11
HETATM   11  C   UNK N   1      37.086  13.191  11.654  0.00  0.00     0.153 C 
HETATM   12  C   UNK N   1      36.657  11.765  11.369  0.00  0.00     0.022 C 
ENDBRANCH   8  11
ENDBRANCH   6   8
BRANCH   4  13
HETATM   13  N   UNK N   1      33.994  16.333   9.053  0.00  0.00    -0.289 N 
HETATM   14  C   UNK N   1      32.664  16.221   9.056  0.00  0.00     0.126 A 
HETATM   15  C   UNK N   1      32.158  17.318   8.405  0.00  0.00     0.026 A 
HETATM   16  C   UNK N   1      33.240  18.078   8.006  0.00  0.00     0.122 A 
HETATM   17  N   UNK N   1      34.351  17.448   8.426  0.00  0.00    -0.308 N 
ATOM     18  HN  UNK N   1      35.309  17.772   8.287  1.00  0.00     0.186 HD
BRANCH  15  19
HETATM   19  C   UNK N   1      30.740  17.670   8.325  0.00  0.00     0.060 A 
HETATM   20  C   UNK N   1      30.024  17.494   7.145  0.00  0.00     0.037 A 
HETATM   21  C   UNK N   1      30.391  17.053   5.891  0.00  0.00     0.034 A 
HETATM   22  C   UNK N   1      28.702  17.760   7.111  0.00  0.00     0.118 A 
HETATM   23  C   UNK N   1      29.219  17.082   5.139  0.00  0.00     0.090 A 
HETATM   24  N   UNK N   1      28.183  17.517   5.901  0.00  0.00    -0.352 N 
HETATM   25  H   UNK N   1      27.246  17.630   5.621  0.00  0.00     0.166 HD
HETATM   26  N   UNK N   1      28.027  18.201   8.199  0.00  0.00    -0.338 N 
HETATM   27  C   UNK N   1      28.717  18.381   9.366  0.00  0.00     0.182 A 
ATOM     28  HN  UNK N   1      27.026  18.394   8.149  1.00  0.00     0.168 HD
HETATM   29  N   UNK N   1      30.062  18.113   9.427  0.00  0.00    -0.351 N 
ATOM     30  HN  UNK N   1      30.562  18.246  10.306  1.00  0.00     0.166 HD
ENDBRANCH  15  19
ENDBRANCH   4  13
ENDBRANCH   1   4
TORSDOF 5
ENDMDL
MODEL 4
REMARK VINA RESULT:      -6.9      0.798      1.814
REMARK  5 active torsions:
REMARK  status: ('A' for Active; 'I' for Inactive)
REMARK    1  A    between atoms: C_2  and  S_3 
REMARK    2  A    between atoms: S_3  and  N_6 
REMARK    3  A    between atoms: C_8  and  C_10 
REMARK    4  A    between atoms: C_8  and  N_13 
REMARK    5  A    between atoms: C_15  and  C_19 
ROOT
HETATM    1  C   UNK N   1      34.963  13.686   9.302  0.00  0.00     0.159 C 
HETATM    2  C   UNK N   1      36.211  13.174   8.709  0.00  0.00     0.061 C 
HETATM    3  N   UNK N   1      37.195  12.788   8.227  0.00  0.00    -0.197 NA
ENDROOT
BRANCH   1   4
HETATM    4  C   UNK N   1      35.122  15.102   9.867  0.00  0.00     0.090 A 
HETATM    5  C   UNK N   1      36.466  15.319  10.530  0.00  0.00     0.142 A 
HETATM    6  N   UNK N   1      35.855  15.411  11.863  0.00  0.00    -0.206 NA
HETATM    7  C   UNK N   1      34.549  15.262  11.242  0.00  0.00     0.142 A 
BRANCH   6   8
HETATM    8  S   UNK N   1      36.040  13.929  12.835  0.00  0.00     0.211 S 
HETATM    9  O   UNK N   1      36.624  14.442  14.165  0.00  0.00    -0.211 OA
HETATM   10  O   UNK N   1      34.644  13.483  13.302  0.00  0.00    -0.211 OA
BRANCH   8  11
HETATM   11  C   UNK N   1      37.098  12.588  12.241  0.00  0.00     0.153 C 
HETATM   12  C   UNK N   1      36.244  11.355  12.021  0.00  0.00     0.022 C 
ENDBRANCH   8  11
ENDBRANCH   6   8
BRANCH   4  13
HETATM   13  N   UNK N   1      34.589  16.139   8.987  0.00  0.00    -0.289 N 
HETATM   14  C   UNK N   1      34.072  15.920   7.777  0.00  0.00     0.126 A 
HETATM   15  C   UNK N   1      33.439  17.074   7.386  0.00  0.00     0.026 A 
HETATM   16  C   UNK N   1      33.611  17.987   8.406  0.00  0.00     0.122 A 
HETATM   17  N   UNK N   1      34.316  17.379   9.377  0.00  0.00    -0.308 N 
ATOM     18  HN  UNK N   1      34.594  17.798  10.264  1.00  0.00     0.186 HD
BRANCH  15  19
HETATM   19  C   UNK N   1      32.603  17.213   6.192  0.00  0.00     0.060 A 
HETATM   20  C   UNK N   1      31.216  17.135   6.277  0.00  0.00     0.037 A 
HETATM   21  C   UNK N   1      30.361  16.894   7.331  0.00  0.00     0.034 A 
HETATM   22  C   UNK N   1      30.461  17.334   5.177  0.00  0.00     0.118 A 
HETATM   23  C   UNK N   1      29.082  16.963   6.782  0.00  0.00     0.090 A 
HETATM   24  N   UNK N   1      29.155  17.236   5.454  0.00  0.00    -0.352 N 
HETATM   25  H   UNK N   1      28.403  17.340   4.826  0.00  0.00     0.166 HD
HETATM   26  N   UNK N   1      31.005  17.611   3.969  0.00  0.00    -0.338 N 
HETATM   27  C   UNK N   1      32.367  17.688   3.869  0.00  0.00     0.182 A 
ATOM     28  HN  UNK N   1      30.412  17.759   3.151  1.00  0.00     0.168 HD
HETATM   29  N   UNK N   1      33.157  17.495   4.975  0.00  0.00    -0.351 N 
ATOM     30  HN  UNK N   1      34.171  17.562   4.886  1.00  0.00     0.166 HD
ENDBRANCH  15  19
ENDBRANCH   4  13
ENDBRANCH   1   4
TORSDOF 5
ENDMDL
MODEL 5
REMARK VINA RESULT:      -6.8      3.754      8.312
REMARK  5 active torsions:
REMARK  status: ('A' for Active; 'I' for Inactive)
REMARK    1  A    between atoms: C_2  and  S_3 
REMARK    2  A    between atoms: S_3  and  N_6 
REMARK    3  A    between atoms: C_8  and  C_10 
REMARK    4  A    between atoms: C_8  and  N_13 
REMARK    5  A    between atoms: C_15  and  C_19 
ROOT
HETATM    1  C   UNK N   1      33.530  16.880   8.892  0.00  0.00     0.159 C 
HETATM    2  C   UNK N   1      34.427  17.981   8.501  0.00  0.00     0.061 C 
HETATM    3  N   UNK N   1      35.150  18.842   8.207  0.00  0.00    -0.197 NA
ENDROOT
BRANCH   1   4
HETATM    4  C   UNK N   1      34.151  15.502   8.637  0.00  0.00     0.090 A 
HETATM    5  C   UNK N   1      34.702  15.360   7.233  0.00  0.00     0.142 A 
HETATM    6  N   UNK N   1      33.662  14.390   6.865  0.00  0.00    -0.206 NA
HETATM    7  C   UNK N   1      33.151  14.465   8.223  0.00  0.00     0.142 A 
BRANCH   6   8
HETATM    8  S   UNK N   1      32.356  15.087   5.874  0.00  0.00     0.211 S 
HETATM    9  O   UNK N   1      32.701  14.624   4.446  0.00  0.00    -0.211 OA
HETATM   10  O   UNK N   1      31.075  14.272   6.125  0.00  0.00    -0.211 OA
BRANCH   8  11
HETATM   11  C   UNK N   1      32.113  16.878   5.836  0.00  0.00     0.153 C 
HETATM   12  C   UNK N   1      30.723  17.192   6.356  0.00  0.00     0.022 C 
ENDBRANCH   8  11
ENDBRANCH   6   8
BRANCH   4  13
HETATM   13  N   UNK N   1      34.939  15.006   9.762  0.00  0.00    -0.289 N 
HETATM   14  C   UNK N   1      34.430  14.588  10.923  0.00  0.00     0.126 A 
HETATM   15  C   UNK N   1      35.437  13.952  11.607  0.00  0.00     0.026 A 
HETATM   16  C   UNK N   1      36.563  14.020  10.810  0.00  0.00     0.122 A 
HETATM   17  N   UNK N   1      36.220  14.667   9.682  0.00  0.00    -0.308 N 
ATOM     18  HN  UNK N   1      36.841  14.864   8.897  1.00  0.00     0.186 HD
BRANCH  15  19
HETATM   19  C   UNK N   1      35.267  13.205  12.854  0.00  0.00     0.060 A 
HETATM   20  C   UNK N   1      35.837  13.655  14.041  0.00  0.00     0.037 A 
HETATM   21  C   UNK N   1      36.640  14.736  14.336  0.00  0.00     0.034 A 
HETATM   22  C   UNK N   1      35.611  12.990  15.192  0.00  0.00     0.118 A 
HETATM   23  C   UNK N   1      36.865  14.656  15.709  0.00  0.00     0.090 A 
HETATM   24  N   UNK N   1      36.225  13.577  16.227  0.00  0.00    -0.352 N 
HETATM   25  H   UNK N   1      36.215  13.288  17.169  0.00  0.00     0.166 HD
HETATM   26  N   UNK N   1      34.839  11.879  15.244  0.00  0.00    -0.338 N 
HETATM   27  C   UNK N   1      34.274  11.423  14.085  0.00  0.00     0.182 A 
ATOM     28  HN  UNK N   1      34.682  11.393  16.128  1.00  0.00     0.168 HD
HETATM   29  N   UNK N   1      34.485  12.085  12.902  0.00  0.00    -0.351 N 
ATOM     30  HN  UNK N   1      34.051  11.737  12.046  1.00  0.00     0.166 HD
ENDBRANCH  15  19
ENDBRANCH   4  13
ENDBRANCH   1   4
TORSDOF 5
ENDMDL
MODEL 6
REMARK VINA RESULT:      -6.7      2.939      4.660
REMARK  5 active torsions:
REMARK  status: ('A' for Active; 'I' for Inactive)
REMARK    1  A    between atoms: C_2  and  S_3 
REMARK    2  A    between atoms: S_3  and  N_6 
REMARK    3  A    between atoms: C_8  and  C_10 
REMARK    4  A    between atoms: C_8  and  N_13 
REMARK    5  A    between atoms: C_15  and  C_19 
ROOT
HETATM    1  C   UNK N   1      33.704  17.015   7.175  0.00  0.00     0.159 C 
HETATM    2  C   UNK N   1      34.404  18.116   7.860  0.00  0.00     0.061 C 
HETATM    3  N   UNK N   1      34.937  18.995   8.401  0.00  0.00    -0.197 NA
ENDROOT
BRANCH   1   4
HETATM    4  C   UNK N   1      32.573  16.425   8.025  0.00  0.00     0.090 A 
HETATM    5  C   UNK N   1      33.060  15.887   9.354  0.00  0.00     0.142 A 
HETATM    6  N   UNK N   1      32.789  14.500   8.954  0.00  0.00    -0.206 NA
HETATM    7  C   UNK N   1      32.263  14.996   7.693  0.00  0.00     0.142 A 
BRANCH   6   8
HETATM    8  S   UNK N   1      34.251  13.597   8.484  0.00  0.00     0.211 S 
HETATM    9  O   UNK N   1      34.396  12.543   9.597  0.00  0.00    -0.211 OA
HETATM   10  O   UNK N   1      33.893  12.690   7.294  0.00  0.00    -0.211 OA
BRANCH   8  11
HETATM   11  C   UNK N   1      35.831  14.460   8.323  0.00  0.00     0.153 C 
HETATM   12  C   UNK N   1      36.497  14.516   9.685  0.00  0.00     0.022 C 
ENDBRANCH   8  11
ENDBRANCH   6   8
BRANCH   4  13
HETATM   13  N   UNK N   1      31.347  17.217   7.986  0.00  0.00    -0.289 N 
HETATM   14  C   UNK N   1      30.470  17.215   6.980  0.00  0.00     0.126 A 
HETATM   15  C   UNK N   1      29.338  17.856   7.421  0.00  0.00     0.026 A 
HETATM   16  C   UNK N   1      29.584  18.246   8.721  0.00  0.00     0.122 A 
HETATM   17  N   UNK N   1      30.823  17.832   9.040  0.00  0.00    -0.308 N 
ATOM     18  HN  UNK N   1      31.284  17.967   9.940  1.00  0.00     0.186 HD
BRANCH  15  19
HETATM   19  C   UNK N   1      28.074  17.933   6.686  0.00  0.00     0.060 A 
HETATM   20  C   UNK N   1      27.549  19.161   6.294  0.00  0.00     0.037 A 
HETATM   21  C   UNK N   1      27.969  20.459   6.491  0.00  0.00     0.034 A 
HETATM   22  C   UNK N   1      26.418  19.207   5.559  0.00  0.00     0.118 A 
HETATM   23  C   UNK N   1      27.026  21.249   5.837  0.00  0.00     0.090 A 
HETATM   24  N   UNK N   1      26.075  20.467   5.264  0.00  0.00    -0.352 N 
HETATM   25  H   UNK N   1      25.296  20.765   4.741  0.00  0.00     0.166 HD
HETATM   26  N   UNK N   1      25.758  18.087   5.180  0.00  0.00    -0.338 N 
HETATM   27  C   UNK N   1      26.262  16.873   5.560  0.00  0.00     0.182 A 
ATOM     28  HN  UNK N   1      24.906  18.148   4.623  1.00  0.00     0.168 HD
HETATM   29  N   UNK N   1      27.413  16.800   6.303  0.00  0.00    -0.351 N 
ATOM     30  HN  UNK N   1      27.780  15.887   6.574  1.00  0.00     0.166 HD
ENDBRANCH  15  19
ENDBRANCH   4  13
ENDBRANCH   1   4
TORSDOF 5
ENDMDL
MODEL 7
REMARK VINA RESULT:      -6.5      3.868      7.973
REMARK  5 active torsions:
REMARK  status: ('A' for Active; 'I' for Inactive)
REMARK    1  A    between atoms: C_2  and  S_3 
REMARK    2  A    between atoms: S_3  and  N_6 
REMARK    3  A    between atoms: C_8  and  C_10 
REMARK    4  A    between atoms: C_8  and  N_13 
REMARK    5  A    between atoms: C_15  and  C_19 
ROOT
HETATM    1  C   UNK N   1      31.451  16.324   8.340  0.00  0.00     0.159 C 
HETATM    2  C   UNK N   1      30.792  17.579   8.739  0.00  0.00     0.061 C 
HETATM    3  N   UNK N   1      30.286  18.571   9.071  0.00  0.00    -0.197 NA
ENDROOT
BRANCH   1   4
HETATM    4  C   UNK N   1      32.950  16.510   8.072  0.00  0.00     0.090 A 
HETATM    5  C   UNK N   1      33.234  17.646   7.112  0.00  0.00     0.142 A 
HETATM    6  N   UNK N   1      33.686  16.720   6.065  0.00  0.00    -0.206 NA
HETATM    7  C   UNK N   1      33.476  15.618   6.989  0.00  0.00     0.142 A 
BRANCH   6   8
HETATM    8  S   UNK N   1      32.477  16.446   4.786  0.00  0.00     0.211 S 
HETATM    9  O   UNK N   1      32.636  17.675   3.871  0.00  0.00    -0.211 OA
HETATM   10  O   UNK N   1      33.005  15.341   3.854  0.00  0.00    -0.211 OA
BRANCH   8  11
HETATM   11  C   UNK N   1      30.728  16.294   5.217  0.00  0.00     0.153 C 
HETATM   12  C   UNK N   1      30.048  17.627   4.970  0.00  0.00     0.022 C 
ENDBRANCH   8  11
ENDBRANCH   6   8
BRANCH   4  13
HETATM   13  N   UNK N   1      33.773  16.369   9.270  0.00  0.00    -0.289 N 
HETATM   14  C   UNK N   1      34.073  15.209   9.857  0.00  0.00     0.126 A 
HETATM   15  C   UNK N   1      35.070  15.456  10.768  0.00  0.00     0.026 A 
HETATM   16  C   UNK N   1      35.340  16.808  10.705  0.00  0.00     0.122 A 
HETATM   17  N   UNK N   1      34.531  17.338   9.771  0.00  0.00    -0.308 N 
ATOM     18  HN  UNK N   1      34.504  18.319   9.492  1.00  0.00     0.186 HD
BRANCH  15  19
HETATM   19  C   UNK N   1      35.802  14.431  11.513  0.00  0.00     0.060 A 
HETATM   20  C   UNK N   1      36.943  13.838  10.982  0.00  0.00     0.037 A 
HETATM   21  C   UNK N   1      37.590  13.982   9.772  0.00  0.00     0.034 A 
HETATM   22  C   UNK N   1      37.643  12.946  11.712  0.00  0.00     0.118 A 
HETATM   23  C   UNK N   1      38.689  13.129   9.845  0.00  0.00     0.090 A 
HETATM   24  N   UNK N   1      38.714  12.496  11.045  0.00  0.00    -0.352 N 
HETATM   25  H   UNK N   1      39.380  11.843  11.359  0.00  0.00     0.166 HD
HETATM   26  N   UNK N   1      37.274  12.593  12.967  0.00  0.00    -0.338 N 
HETATM   27  C   UNK N   1      36.153  13.166  13.502  0.00  0.00     0.182 A 
ATOM     28  HN  UNK N   1      37.821  11.916  13.500  1.00  0.00     0.168 HD
HETATM   29  N   UNK N   1      35.428  14.080  12.780  0.00  0.00    -0.351 N 
ATOM     30  HN  UNK N   1      34.598  14.504  13.195  1.00  0.00     0.166 HD
ENDBRANCH  15  19
ENDBRANCH   4  13
ENDBRANCH   1   4
TORSDOF 5
ENDMDL
MODEL 8
REMARK VINA RESULT:      -6.4     11.659     13.631
REMARK  5 active torsions:
REMARK  status: ('A' for Active; 'I' for Inactive)
REMARK    1  A    between atoms: C_2  and  S_3 
REMARK    2  A    between atoms: S_3  and  N_6 
REMARK    3  A    between atoms: C_8  and  C_10 
REMARK    4  A    between atoms: C_8  and  N_13 
REMARK    5  A    between atoms: C_15  and  C_19 
ROOT
HETATM    1  C   UNK N   1      20.970  15.110   8.584  0.00  0.00     0.159 C 
HETATM    2  C   UNK N   1      20.436  16.480   8.688  0.00  0.00     0.061 C 
HETATM    3  N   UNK N   1      20.034  17.567   8.760  0.00  0.00    -0.197 NA
ENDROOT
BRANCH   1   4
HETATM    4  C   UNK N   1      21.220  14.690   7.130  0.00  0.00     0.090 A 
HETATM    5  C   UNK N   1      21.344  13.190   6.969  0.00  0.00     0.142 A 
HETATM    6  N   UNK N   1      22.774  13.288   6.647  0.00  0.00    -0.206 NA
HETATM    7  C   UNK N   1      22.667  14.734   6.739  0.00  0.00     0.142 A 
BRANCH   6   8
HETATM    8  S   UNK N   1      23.841  12.848   8.004  0.00  0.00     0.211 S 
HETATM    9  O   UNK N   1      24.088  11.342   7.795  0.00  0.00    -0.211 OA
HETATM   10  O   UNK N   1      25.246  13.399   7.709  0.00  0.00    -0.211 OA
BRANCH   8  11
HETATM   11  C   UNK N   1      23.281  13.090   9.706  0.00  0.00     0.153 C 
HETATM   12  C   UNK N   1      22.615  11.815  10.186  0.00  0.00     0.022 C 
ENDBRANCH   8  11
ENDBRANCH   6   8
BRANCH   4  13
HETATM   13  N   UNK N   1      20.426  15.445   6.165  0.00  0.00    -0.289 N 
HETATM   14  C   UNK N   1      20.900  15.977   5.037  0.00  0.00     0.126 A 
HETATM   15  C   UNK N   1      19.821  16.359   4.278  0.00  0.00     0.026 A 
HETATM   16  C   UNK N   1      18.692  16.043   5.006  0.00  0.00     0.122 A 
HETATM   17  N   UNK N   1      19.098  15.477   6.156  0.00  0.00    -0.308 N 
ATOM     18  HN  UNK N   1      18.490  15.130   6.898  1.00  0.00     0.186 HD
BRANCH  15  19
HETATM   19  C   UNK N   1      19.891  16.839   2.897  0.00  0.00     0.060 A 
HETATM   20  C   UNK N   1      20.190  18.169   2.617  0.00  0.00     0.037 A 
HETATM   21  C   UNK N   1      20.424  19.261   3.426  0.00  0.00     0.034 A 
HETATM   22  C   UNK N   1      20.317  18.577   1.337  0.00  0.00     0.118 A 
HETATM   23  C   UNK N   1      20.689  20.311   2.549  0.00  0.00     0.090 A 
HETATM   24  N   UNK N   1      20.622  19.879   1.264  0.00  0.00    -0.352 N 
HETATM   25  H   UNK N   1      20.767  20.412   0.449  0.00  0.00     0.166 HD
HETATM   26  N   UNK N   1      20.162  17.731   0.292  0.00  0.00    -0.338 N 
HETATM   27  C   UNK N   1      19.864  16.421   0.552  0.00  0.00     0.182 A 
ATOM     28  HN  UNK N   1      20.264  18.063  -0.668  1.00  0.00     0.168 HD
HETATM   29  N   UNK N   1      19.735  15.981   1.845  0.00  0.00    -0.351 N 
ATOM     30  HN  UNK N   1      19.520  15.000   2.023  1.00  0.00     0.166 HD
ENDBRANCH  15  19
ENDBRANCH   4  13
ENDBRANCH   1   4
TORSDOF 5
ENDMDL
MODEL 9
REMARK VINA RESULT:      -6.4      2.319      3.364
REMARK  5 active torsions:
REMARK  status: ('A' for Active; 'I' for Inactive)
REMARK    1  A    between atoms: C_2  and  S_3 
REMARK    2  A    between atoms: S_3  and  N_6 
REMARK    3  A    between atoms: C_8  and  C_10 
REMARK    4  A    between atoms: C_8  and  N_13 
REMARK    5  A    between atoms: C_15  and  C_19 
ROOT
HETATM    1  C   UNK N   1      36.910  12.219  11.674  0.00  0.00     0.159 C 
HETATM    2  C   UNK N   1      38.084  12.753  10.963  0.00  0.00     0.061 C 
HETATM    3  N   UNK N   1      38.997  13.184  10.387  0.00  0.00    -0.197 NA
ENDROOT
BRANCH   1   4
HETATM    4  C   UNK N   1      36.006  13.330  12.224  0.00  0.00     0.090 A 
HETATM    5  C   UNK N   1      36.227  13.585  13.701  0.00  0.00     0.142 A 
HETATM    6  N   UNK N   1      34.906  13.045  14.047  0.00  0.00    -0.206 NA
HETATM    7  C   UNK N   1      34.648  12.845  12.631  0.00  0.00     0.142 A 
BRANCH   6   8
HETATM    8  S   UNK N   1      34.963  11.394  14.712  0.00  0.00     0.211 S 
HETATM    9  O   UNK N   1      34.868  11.614  16.233  0.00  0.00    -0.211 OA
HETATM   10  O   UNK N   1      33.605  10.721  14.448  0.00  0.00    -0.211 OA
BRANCH   8  11
HETATM   11  C   UNK N   1      36.398  10.342  14.389  0.00  0.00     0.153 C 
HETATM   12  C   UNK N   1      37.158  10.143  15.687  0.00  0.00     0.022 C 
ENDBRANCH   8  11
ENDBRANCH   6   8
BRANCH   4  13
HETATM   13  N   UNK N   1      35.873  14.468  11.319  0.00  0.00    -0.289 N 
HETATM   14  C   UNK N   1      35.032  14.525  10.284  0.00  0.00     0.126 A 
HETATM   15  C   UNK N   1      34.999  15.828   9.854  0.00  0.00     0.026 A 
HETATM   16  C   UNK N   1      35.860  16.537  10.666  0.00  0.00     0.122 A 
HETATM   17  N   UNK N   1      36.375  15.673  11.559  0.00  0.00    -0.308 N 
ATOM     18  HN  UNK N   1      37.040  15.905  12.298  1.00  0.00     0.186 HD
BRANCH  15  19
HETATM   19  C   UNK N   1      34.081  16.358   8.843  0.00  0.00     0.060 A 
HETATM   20  C   UNK N   1      34.248  16.053   7.496  0.00  0.00     0.037 A 
HETATM   21  C   UNK N   1      35.200  15.320   6.818  0.00  0.00     0.034 A 
HETATM   22  C   UNK N   1      33.353  16.494   6.589  0.00  0.00     0.118 A 
HETATM   23  C   UNK N   1      34.808  15.366   5.482  0.00  0.00     0.090 A 
HETATM   24  N   UNK N   1      33.668  16.091   5.351  0.00  0.00    -0.352 N 
HETATM   25  H   UNK N   1      33.175  16.279   4.520  0.00  0.00     0.166 HD
HETATM   26  N   UNK N   1      32.277  17.238   6.939  0.00  0.00    -0.338 N 
HETATM   27  C   UNK N   1      32.101  17.548   8.260  0.00  0.00     0.182 A 
ATOM     28  HN  UNK N   1      31.613  17.559   6.234  1.00  0.00     0.168 HD
HETATM   29  N   UNK N   1      32.996  17.106   9.203  0.00  0.00    -0.351 N 
ATOM     30  HN  UNK N   1      32.847  17.340  10.185  1.00  0.00     0.166 HD
ENDBRANCH  15  19
ENDBRANCH   4  13
ENDBRANCH   1   4
TORSDOF 5
ENDMDL
