MODEL 1
REMARK VINA RESULT:      -7.5      0.000      0.000
REMARK  18 active torsions:
REMARK  status: ('A' for Active; 'I' for Inactive)
REMARK    1  A    between atoms: C_6  and  C_75 
REMARK    2  A    between atoms: C_10  and  C_68 
REMARK    3  A    between atoms: C_14  and  C_60 
REMARK    4  A    between atoms: C_18  and  C_50 
REMARK    5  A    between atoms: C_22  and  C_47 
REMARK    6  A    between atoms: C_27  and  N_31 
REMARK       I    between atoms: N_31  and  C_32 
REMARK    7  A    between atoms: C_32  and  C_34 
REMARK    8  A    between atoms: C_34  and  C_35 
REMARK    9  A    between atoms: C_34  and  N_43 
REMARK   10  A    between atoms: C_35  and  C_36 
REMARK   11  A    between atoms: C_36  and  C_37 
REMARK   12  A    between atoms: C_37  and  N_38 
REMARK       I    between atoms: N_38  and  C_39 
REMARK       I    between atoms: C_39  and  N_42 
REMARK       I    between atoms: N_43  and  C_44 
REMARK       I    between atoms: C_47  and  N_49 
REMARK   13  A    between atoms: C_50  and  C_51 
REMARK   14  A    between atoms: C_60  and  C_61 
REMARK   15  A    between atoms: C_61  and  C_62 
REMARK   16  A    between atoms: C_62  and  N_63 
REMARK       I    between atoms: N_63  and  C_64 
REMARK       I    between atoms: C_64  and  N_67 
REMARK   17  A    between atoms: C_68  and  C_69 
REMARK   18  A    between atoms: C_75  and  C_76 
ROOT
HETATM    1  C   UNK N   1      28.977  15.018   1.924  0.00  0.00     0.042 C 
HETATM    2  C   UNK N   1      28.421  13.866   2.740  0.00  0.00     0.172 C 
HETATM    3  C   UNK N   1      29.254  13.646   3.965  0.00  0.00     0.240 C 
HETATM    4  O   UNK N   1      30.399  13.233   3.843  0.00  0.00    -0.271 OA
HETATM    5  N   UNK N   1      28.769  13.849   5.210  0.00  0.00    -0.346 N 
HETATM    6  C   UNK N   1      27.559  14.568   5.545  0.00  0.00     0.182 C 
HETATM    7  C   UNK N   1      26.235  13.993   5.149  0.00  0.00     0.241 C 
HETATM    8  O   UNK N   1      25.770  14.228   4.047  0.00  0.00    -0.271 OA
HETATM    9  N   UNK N   1      25.475  13.493   6.152  0.00  0.00    -0.346 N 
HETATM   10  C   UNK N   1      24.024  13.407   6.296  0.00  0.00     0.180 C 
HETATM   11  C   UNK N   1      23.143  13.859   5.136  0.00  0.00     0.241 C 
HETATM   12  O   UNK N   1      23.345  13.418   4.020  0.00  0.00    -0.271 OA
HETATM   13  N   UNK N   1      22.082  14.694   5.363  0.00  0.00    -0.346 N 
HETATM   14  C   UNK N   1      21.162  15.112   4.327  0.00  0.00     0.176 C 
HETATM   15  C   UNK N   1      19.696  14.909   4.613  0.00  0.00     0.241 C 
HETATM   16  O   UNK N   1      18.970  15.872   4.796  0.00  0.00    -0.271 OA
HETATM   17  N   UNK N   1      19.154  13.672   4.668  0.00  0.00    -0.346 N 
HETATM   18  C   UNK N   1      19.881  12.433   4.474  0.00  0.00     0.181 C 
HETATM   19  C   UNK N   1      20.361  12.240   3.068  0.00  0.00     0.241 C 
HETATM   20  O   UNK N   1      19.592  12.353   2.126  0.00  0.00    -0.271 OA
HETATM   21  N   UNK N   1      21.634  11.809   2.881  0.00  0.00    -0.345 N 
HETATM   22  C   UNK N   1      22.180  11.354   1.620  0.00  0.00     0.186 C 
HETATM   23  C   UNK N   1      22.327  12.425   0.520  0.00  0.00     0.120 C 
HETATM   24  S   UNK N   1      22.583  14.112   1.178  0.00  0.00    -0.095 SA
HETATM   25  S   UNK N   1      24.711  14.440   0.989  0.00  0.00    -0.095 SA
HETATM   26  C   UNK N   1      25.279  12.741   0.731  0.00  0.00     0.120 C 
HETATM   27  C   UNK N   1      26.070  12.181   1.911  0.00  0.00     0.186 C 
HETATM   28  C   UNK N   1      27.524  11.843   1.626  0.00  0.00     0.241 C 
HETATM   29  O   UNK N   1      27.809  10.779   1.113  0.00  0.00    -0.271 OA
HETATM   30  N   UNK N   1      28.539  12.654   1.980  0.00  0.00    -0.346 N 
HETATM   31  H   UNK N   1      29.287  13.472   5.957  0.00  0.00     0.163 HD
HETATM   32  H   UNK N   1      25.985  13.129   6.911  0.00  0.00     0.163 HD
HETATM   33  H   UNK N   1      21.938  15.027   6.279  0.00  0.00     0.163 HD
HETATM   34  H   UNK N   1      18.190  13.608   4.854  0.00  0.00     0.163 HD
HETATM   35  H   UNK N   1      22.231  11.806   3.663  0.00  0.00     0.163 HD
HETATM   36  H   UNK N   1      29.444  12.393   1.692  0.00  0.00     0.163 HD
ENDROOT
BRANCH  27  37
HETATM   37  N   UNK N   1      25.373  11.077   2.543  0.00  0.00    -0.345 N 
HETATM   38  C   UNK N   1      25.104   9.822   2.055  0.00  0.00     0.241 C 
HETATM   39  O   UNK N   1      24.566   9.032   2.814  0.00  0.00    -0.271 OA
HETATM   40  H   UNK N   1      25.046  11.252   3.454  0.00  0.00     0.163 HD
BRANCH  38  41
HETATM   41  C   UNK N   1      25.453   9.302   0.645  0.00  0.00     0.176 C 
BRANCH  41  42
HETATM   42  C   UNK N   1      24.459   9.339  -0.516  0.00  0.00     0.036 C 
BRANCH  42  43
HETATM   43  C   UNK N   1      23.767   8.015  -0.768  0.00  0.00     0.023 C 
BRANCH  43  44
HETATM   44  C   UNK N   1      23.988   7.472  -2.164  0.00  0.00     0.138 C 
BRANCH  44  45
HETATM   45  N   UNK N   1      24.826   8.355  -2.944  0.00  0.00    -0.227 N 
HETATM   46  C   UNK N   1      25.374   8.004  -4.210  0.00  0.00     0.665 C 
HETATM   47  N   UNK N   1      26.247   8.768  -4.753  0.00  0.00    -0.235 N 
HETATM   48  N   UNK N   1      24.934   6.851  -4.903  0.00  0.00    -0.235 N 
HETATM   49  H   UNK N   1      26.557   9.069  -5.637  0.00  0.00     0.174 HD
ATOM     50  HN  UNK N   1      26.808   9.212  -4.027  1.00  0.00     0.174 HD
HETATM   51  H   UNK N   1      24.053   6.421  -4.820  0.00  0.00     0.174 HD
HETATM   52  H   UNK N   1      25.573   6.439  -5.528  0.00  0.00     0.174 HD
HETATM   53  H   UNK N   1      25.029   9.246  -2.580  0.00  0.00     0.177 HD
ENDBRANCH  44  45
ENDBRANCH  43  44
ENDBRANCH  42  43
ENDBRANCH  41  42
BRANCH  41  54
HETATM   54  N   UNK N   1      26.231   8.071   0.683  0.00  0.00    -0.348 N 
HETATM   55  C   UNK N   1      27.188   7.711  -0.220  0.00  0.00     0.214 C 
HETATM   56  O   UNK N   1      27.454   8.418  -1.182  0.00  0.00    -0.274 OA
HETATM   57  C   UNK N   1      27.904   6.419  -0.051  0.00  0.00     0.117 C 
HETATM   58  H   UNK N   1      26.052   7.446   1.422  0.00  0.00     0.163 HD
ENDBRANCH  41  54
ENDBRANCH  38  41
ENDBRANCH  27  37
BRANCH  22  59
HETATM   59  C   UNK N   1      21.443  10.118   1.189  0.00  0.00     0.239 C 
HETATM   60  O   UNK N   1      21.528   9.103   1.861  0.00  0.00    -0.271 OA
HETATM   61  N   UNK N   1      20.592  10.154   0.143  0.00  0.00    -0.368 N 
HETATM   62  H   UNK N   1      20.667   9.894  -0.803  0.00  0.00     0.159 HD
HETATM   63  H   UNK N   1      19.708  10.518   0.376  0.00  0.00     0.159 HD
ENDBRANCH  22  59
BRANCH   6  64
HETATM   64  C   UNK N   1      27.649  16.050   5.200  0.00  0.00     0.093 C 
BRANCH  64  65
HETATM   65  C   UNK N   1      28.082  16.840   6.383  0.00  0.00     0.028 A 
HETATM   66  C   UNK N   1      29.298  17.453   6.527  0.00  0.00     0.114 A 
HETATM   67  N   UNK N   1      29.324  18.026   7.743  0.00  0.00    -0.360 N 
HETATM   68  C   UNK N   1      28.130  17.746   8.310  0.00  0.00     0.180 A 
ATOM     69  HN  UNK N   1      30.088  18.562   8.154  1.00  0.00     0.166 HD
HETATM   70  N   UNK N   1      27.348  17.016   7.492  0.00  0.00    -0.354 N 
HETATM   71  H   UNK N   1      26.438  16.684   7.668  0.00  0.00     0.166 HD
ENDBRANCH  64  65
ENDBRANCH   6  64
BRANCH  18  72
HETATM   72  C   UNK N   1      19.047  11.224   4.916  0.00  0.00     0.075 C 
BRANCH  72  73
HETATM   73  C   UNK N   1      19.833   9.956   5.001  0.00  0.00    -0.028 A 
HETATM   74  C   UNK N   1      19.471   8.752   4.405  0.00  0.00     0.096 A 
HETATM   75  N   UNK N   1      20.421   7.819   4.651  0.00  0.00    -0.365 N 
HETATM   76  C   UNK N   1      21.368   8.434   5.391  0.00  0.00     0.042 A 
HETATM   77  H   UNK N   1      20.421   6.883   4.349  0.00  0.00     0.165 HD
HETATM   78  C   UNK N   1      21.033   9.738   5.622  0.00  0.00    -0.002 A 
HETATM   79  C   UNK N   1      22.541   7.873   5.872  0.00  0.00     0.030 A 
HETATM   80  C   UNK N   1      21.860  10.584   6.364  0.00  0.00     0.014 A 
HETATM   81  C   UNK N   1      23.059  10.047   6.869  0.00  0.00     0.001 A 
HETATM   82  C   UNK N   1      23.399   8.697   6.624  0.00  0.00     0.002 A 
ENDBRANCH  72  73
ENDBRANCH  18  72
BRANCH  10  83
HETATM   83  C   UNK N   1      23.707  14.277   7.523  0.00  0.00     0.073 C 
BRANCH  83  84
HETATM   84  C   UNK N   1      23.137  13.423   8.638  0.00  0.00    -0.056 A 
HETATM   85  C   UNK N   1      23.993  12.657   9.434  0.00  0.00     0.007 A 
HETATM   86  C   UNK N   1      23.479  11.922  10.508  0.00  0.00     0.001 A 
HETATM   87  C   UNK N   1      22.110  11.959  10.798  0.00  0.00     0.000 A 
HETATM   88  C   UNK N   1      21.255  12.736  10.019  0.00  0.00     0.001 A 
HETATM   89  C   UNK N   1      21.768  13.467   8.949  0.00  0.00     0.007 A 
ENDBRANCH  83  84
ENDBRANCH  10  83
BRANCH  14  90
HETATM   90  C   UNK N   1      21.618  16.235   3.390  0.00  0.00     0.036 C 
BRANCH  90  91
HETATM   91  C   UNK N   1      22.395  17.439   3.943  0.00  0.00     0.023 C 
BRANCH  91  92
HETATM   92  C   UNK N   1      21.673  18.775   3.997  0.00  0.00     0.138 C 
BRANCH  92  93
HETATM   93  N   UNK N   1      20.276  18.581   3.719  0.00  0.00    -0.227 N 
HETATM   94  C   UNK N   1      19.692  19.012   2.502  0.00  0.00     0.665 C 
HETATM   95  N   UNK N   1      18.444  18.816   2.294  0.00  0.00    -0.235 N 
HETATM   96  N   UNK N   1      20.466  19.689   1.533  0.00  0.00    -0.235 N 
HETATM   97  H   UNK N   1      17.750  19.470   2.047  0.00  0.00     0.174 HD
ATOM     98  HN  UNK N   1      18.125  17.853   2.398  1.00  0.00     0.174 HD
HETATM   99  H   UNK N   1      21.025  19.283   0.832  0.00  0.00     0.174 HD
HETATM  100  H   UNK N   1      20.443  20.673   1.563  0.00  0.00     0.174 HD
HETATM  101  H   UNK N   1      19.711  18.136   4.391  0.00  0.00     0.177 HD
ENDBRANCH  92  93
ENDBRANCH  91  92
ENDBRANCH  90  91
ENDBRANCH  14  90
TORSDOF 18
ENDMDL
MODEL 2
REMARK VINA RESULT:      -7.1      2.584      6.000
REMARK  18 active torsions:
REMARK  status: ('A' for Active; 'I' for Inactive)
REMARK    1  A    between atoms: C_6  and  C_75 
REMARK    2  A    between atoms: C_10  and  C_68 
REMARK    3  A    between atoms: C_14  and  C_60 
REMARK    4  A    between atoms: C_18  and  C_50 
REMARK    5  A    between atoms: C_22  and  C_47 
REMARK    6  A    between atoms: C_27  and  N_31 
REMARK       I    between atoms: N_31  and  C_32 
REMARK    7  A    between atoms: C_32  and  C_34 
REMARK    8  A    between atoms: C_34  and  C_35 
REMARK    9  A    between atoms: C_34  and  N_43 
REMARK   10  A    between atoms: C_35  and  C_36 
REMARK   11  A    between atoms: C_36  and  C_37 
REMARK   12  A    between atoms: C_37  and  N_38 
REMARK       I    between atoms: N_38  and  C_39 
REMARK       I    between atoms: C_39  and  N_42 
REMARK       I    between atoms: N_43  and  C_44 
REMARK       I    between atoms: C_47  and  N_49 
REMARK   13  A    between atoms: C_50  and  C_51 
REMARK   14  A    between atoms: C_60  and  C_61 
REMARK   15  A    between atoms: C_61  and  C_62 
REMARK   16  A    between atoms: C_62  and  N_63 
REMARK       I    between atoms: N_63  and  C_64 
REMARK       I    between atoms: C_64  and  N_67 
REMARK   17  A    between atoms: C_68  and  C_69 
REMARK   18  A    between atoms: C_75  and  C_76 
ROOT
HETATM    1  C   UNK N   1      24.578  18.358   2.696  0.00  0.00     0.042 C 
HETATM    2  C   UNK N   1      25.015  17.137   3.484  0.00  0.00     0.172 C 
HETATM    3  C   UNK N   1      25.397  17.527   4.879  0.00  0.00     0.240 C 
HETATM    4  O   UNK N   1      26.395  18.212   5.056  0.00  0.00    -0.271 OA
HETATM    5  N   UNK N   1      24.698  17.112   5.958  0.00  0.00    -0.346 N 
HETATM    6  C   UNK N   1      23.372  16.530   5.942  0.00  0.00     0.182 C 
HETATM    7  C   UNK N   1      23.176  15.181   5.324  0.00  0.00     0.241 C 
HETATM    8  O   UNK N   1      22.962  15.079   4.129  0.00  0.00    -0.271 OA
HETATM    9  N   UNK N   1      22.936  14.160   6.182  0.00  0.00    -0.346 N 
HETATM   10  C   UNK N   1      22.162  12.933   6.010  0.00  0.00     0.180 C 
HETATM   11  C   UNK N   1      21.554  12.635   4.644  0.00  0.00     0.241 C 
HETATM   12  O   UNK N   1      22.258  12.668   3.652  0.00  0.00    -0.271 OA
HETATM   13  N   UNK N   1      20.243  12.254   4.543  0.00  0.00    -0.346 N 
HETATM   14  C   UNK N   1      19.614  11.889   3.292  0.00  0.00     0.176 C 
HETATM   15  C   UNK N   1      18.895  10.564   3.266  0.00  0.00     0.241 C 
HETATM   16  O   UNK N   1      17.678  10.531   3.184  0.00  0.00    -0.271 OA
HETATM   17  N   UNK N   1      19.569   9.395   3.329  0.00  0.00    -0.346 N 
HETATM   18  C   UNK N   1      21.009   9.267   3.430  0.00  0.00     0.181 C 
HETATM   19  C   UNK N   1      21.733   9.703   2.192  0.00  0.00     0.241 C 
HETATM   20  O   UNK N   1      21.412   9.268   1.096  0.00  0.00    -0.271 OA
HETATM   21  N   UNK N   1      22.830  10.487   2.336  0.00  0.00    -0.345 N 
HETATM   22  C   UNK N   1      23.769  10.804   1.281  0.00  0.00     0.186 C 
HETATM   23  C   UNK N   1      23.229  11.684   0.136  0.00  0.00     0.120 C 
HETATM   24  S   UNK N   1      21.881  12.806   0.655  0.00  0.00    -0.095 SA
HETATM   25  S   UNK N   1      22.851  14.721   0.908  0.00  0.00    -0.095 SA
HETATM   26  C   UNK N   1      24.585  14.203   0.959  0.00  0.00     0.120 C 
HETATM   27  C   UNK N   1      25.224  14.364   2.336  0.00  0.00     0.186 C 
HETATM   28  C   UNK N   1      26.369  15.359   2.416  0.00  0.00     0.241 C 
HETATM   29  O   UNK N   1      27.491  15.020   2.091  0.00  0.00    -0.271 OA
HETATM   30  N   UNK N   1      26.213  16.607   2.899  0.00  0.00    -0.346 N 
HETATM   31  H   UNK N   1      25.130  17.214   6.836  0.00  0.00     0.163 HD
HETATM   32  H   UNK N   1      23.352  14.262   7.068  0.00  0.00     0.163 HD
HETATM   33  H   UNK N   1      19.700  12.226   5.364  0.00  0.00     0.163 HD
HETATM   34  H   UNK N   1      19.040   8.565   3.303  0.00  0.00     0.163 HD
HETATM   35  H   UNK N   1      23.001  10.870   3.227  0.00  0.00     0.163 HD
HETATM   36  H   UNK N   1      26.991  17.209   2.847  0.00  0.00     0.163 HD
ENDROOT
BRANCH  27  37
HETATM   37  N   UNK N   1      25.582  13.081   2.909  0.00  0.00    -0.345 N 
HETATM   38  C   UNK N   1      26.065  12.790   4.162  0.00  0.00     0.241 C 
HETATM   39  O   UNK N   1      26.219  11.611   4.440  0.00  0.00    -0.271 OA
HETATM   40  H   UNK N   1      25.462  12.306   2.315  0.00  0.00     0.163 HD
BRANCH  38  41
HETATM   41  C   UNK N   1      26.398  13.814   5.267  0.00  0.00     0.176 C 
BRANCH  41  42
HETATM   42  C   UNK N   1      27.747  14.527   5.350  0.00  0.00     0.036 C 
BRANCH  42  43
HETATM   43  C   UNK N   1      28.908  13.694   4.844  0.00  0.00     0.023 C 
BRANCH  43  44
HETATM   44  C   UNK N   1      30.091  14.519   4.383  0.00  0.00     0.138 C 
BRANCH  44  45
HETATM   45  N   UNK N   1      29.672  15.825   3.924  0.00  0.00    -0.227 N 
HETATM   46  C   UNK N   1      29.936  17.029   4.636  0.00  0.00     0.665 C 
HETATM   47  N   UNK N   1      29.381  18.119   4.257  0.00  0.00    -0.235 N 
HETATM   48  N   UNK N   1      30.840  17.052   5.724  0.00  0.00    -0.235 N 
HETATM   49  H   UNK N   1      29.544  19.089   4.218  0.00  0.00     0.174 HD
ATOM     50  HN  UNK N   1      28.462  17.914   3.866  1.00  0.00     0.174 HD
HETATM   51  H   UNK N   1      31.596  16.439   5.868  0.00  0.00     0.174 HD
HETATM   52  H   UNK N   1      30.698  17.750   6.404  0.00  0.00     0.174 HD
HETATM   53  H   UNK N   1      29.179  15.884   3.075  0.00  0.00     0.177 HD
ENDBRANCH  44  45
ENDBRANCH  43  44
ENDBRANCH  42  43
ENDBRANCH  41  42
BRANCH  41  54
HETATM   54  N   UNK N   1      25.892  13.407   6.571  0.00  0.00    -0.348 N 
HETATM   55  C   UNK N   1      25.783  14.215   7.664  0.00  0.00     0.214 C 
HETATM   56  O   UNK N   1      26.140  15.384   7.632  0.00  0.00    -0.274 OA
HETATM   57  C   UNK N   1      25.245  13.658   8.934  0.00  0.00     0.117 C 
HETATM   58  H   UNK N   1      25.605  12.471   6.673  0.00  0.00     0.163 HD
ENDBRANCH  41  54
ENDBRANCH  38  41
ENDBRANCH  27  37
BRANCH  22  59
HETATM   59  C   UNK N   1      24.438   9.537   0.828  0.00  0.00     0.239 C 
HETATM   60  O   UNK N   1      24.417   9.236  -0.354  0.00  0.00    -0.271 OA
HETATM   61  N   UNK N   1      25.164   8.798   1.691  0.00  0.00    -0.368 N 
HETATM   62  H   UNK N   1      24.980   7.983   2.211  0.00  0.00     0.159 HD
HETATM   63  H   UNK N   1      26.074   9.148   1.830  0.00  0.00     0.159 HD
ENDBRANCH  22  59
BRANCH   6  64
HETATM   64  C   UNK N   1      22.310  17.519   5.473  0.00  0.00     0.093 C 
BRANCH  64  65
HETATM   65  C   UNK N   1      20.948  16.946   5.641  0.00  0.00     0.028 A 
HETATM   66  C   UNK N   1      20.310  16.753   6.836  0.00  0.00     0.114 A 
HETATM   67  N   UNK N   1      19.123  16.178   6.575  0.00  0.00    -0.360 N 
HETATM   68  C   UNK N   1      19.069  16.031   5.234  0.00  0.00     0.180 A 
ATOM     69  HN  UNK N   1      18.409  15.907   7.252  1.00  0.00     0.166 HD
HETATM   70  N   UNK N   1      20.182  16.496   4.636  0.00  0.00    -0.354 N 
HETATM   71  H   UNK N   1      20.389  16.504   3.673  0.00  0.00     0.166 HD
ENDBRANCH  64  65
ENDBRANCH   6  64
BRANCH  18  72
HETATM   72  C   UNK N   1      21.416   7.835   3.800  0.00  0.00     0.075 C 
BRANCH  72  73
HETATM   73  C   UNK N   1      22.248   7.752   5.038  0.00  0.00    -0.028 A 
HETATM   74  C   UNK N   1      22.499   8.813   5.902  0.00  0.00     0.096 A 
HETATM   75  N   UNK N   1      23.256   8.386   6.939  0.00  0.00    -0.365 N 
HETATM   76  C   UNK N   1      23.476   7.070   6.727  0.00  0.00     0.042 A 
HETATM   77  H   UNK N   1      23.581   8.925   7.696  0.00  0.00     0.165 HD
HETATM   78  C   UNK N   1      22.874   6.659   5.572  0.00  0.00    -0.002 A 
HETATM   79  C   UNK N   1      24.197   6.207   7.537  0.00  0.00     0.030 A 
HETATM   80  C   UNK N   1      22.955   5.333   5.139  0.00  0.00     0.014 A 
HETATM   81  C   UNK N   1      23.682   4.429   5.936  0.00  0.00     0.001 A 
HETATM   82  C   UNK N   1      24.299   4.863   7.131  0.00  0.00     0.002 A 
ENDBRANCH  72  73
ENDBRANCH  18  72
BRANCH  10  83
HETATM   83  C   UNK N   1      21.026  13.049   7.040  0.00  0.00     0.073 C 
BRANCH  83  84
HETATM   84  C   UNK N   1      21.511  12.602   8.405  0.00  0.00    -0.056 A 
HETATM   85  C   UNK N   1      22.461  11.583   8.507  0.00  0.00     0.007 A 
HETATM   86  C   UNK N   1      22.962  11.216   9.760  0.00  0.00     0.001 A 
HETATM   87  C   UNK N   1      22.525  11.874  10.916  0.00  0.00     0.000 A 
HETATM   88  C   UNK N   1      21.591  12.904  10.819  0.00  0.00     0.001 A 
HETATM   89  C   UNK N   1      21.092  13.268   9.570  0.00  0.00     0.007 A 
ENDBRANCH  83  84
ENDBRANCH  10  83
BRANCH  14  90
HETATM   90  C   UNK N   1      19.170  13.027   2.367  0.00  0.00     0.036 C 
BRANCH  90  91
HETATM   91  C   UNK N   1      18.352  12.725   1.103  0.00  0.00     0.023 C 
BRANCH  91  92
HETATM   92  C   UNK N   1      18.074  13.879   0.155  0.00  0.00     0.138 C 
BRANCH  92  93
HETATM   93  N   UNK N   1      19.161  14.820   0.207  0.00  0.00    -0.227 N 
HETATM   94  C   UNK N   1      18.943  16.215   0.088  0.00  0.00     0.665 C 
HETATM   95  N   UNK N   1      19.938  17.018   0.143  0.00  0.00    -0.235 N 
HETATM   96  N   UNK N   1      17.643  16.725  -0.129  0.00  0.00    -0.235 N 
HETATM   97  H   UNK N   1      20.207  17.712  -0.502  0.00  0.00     0.174 HD
ATOM     98  HN  UNK N   1      20.535  16.926   0.965  1.00  0.00     0.174 HD
HETATM   99  H   UNK N   1      16.966  16.929   0.555  0.00  0.00     0.174 HD
HETATM  100  H   UNK N   1      17.389  16.893  -1.065  0.00  0.00     0.174 HD
HETATM  101  H   UNK N   1      20.078  14.486   0.330  0.00  0.00     0.177 HD
ENDBRANCH  92  93
ENDBRANCH  91  92
ENDBRANCH  90  91
ENDBRANCH  14  90
TORSDOF 18
ENDMDL
MODEL 3
REMARK VINA RESULT:      -7.0      2.283      4.099
REMARK  18 active torsions:
REMARK  status: ('A' for Active; 'I' for Inactive)
REMARK    1  A    between atoms: C_6  and  C_75 
REMARK    2  A    between atoms: C_10  and  C_68 
REMARK    3  A    between atoms: C_14  and  C_60 
REMARK    4  A    between atoms: C_18  and  C_50 
REMARK    5  A    between atoms: C_22  and  C_47 
REMARK    6  A    between atoms: C_27  and  N_31 
REMARK       I    between atoms: N_31  and  C_32 
REMARK    7  A    between atoms: C_32  and  C_34 
REMARK    8  A    between atoms: C_34  and  C_35 
REMARK    9  A    between atoms: C_34  and  N_43 
REMARK   10  A    between atoms: C_35  and  C_36 
REMARK   11  A    between atoms: C_36  and  C_37 
REMARK   12  A    between atoms: C_37  and  N_38 
REMARK       I    between atoms: N_38  and  C_39 
REMARK       I    between atoms: C_39  and  N_42 
REMARK       I    between atoms: N_43  and  C_44 
REMARK       I    between atoms: C_47  and  N_49 
REMARK   13  A    between atoms: C_50  and  C_51 
REMARK   14  A    between atoms: C_60  and  C_61 
REMARK   15  A    between atoms: C_61  and  C_62 
REMARK   16  A    between atoms: C_62  and  N_63 
REMARK       I    between atoms: N_63  and  C_64 
REMARK       I    between atoms: C_64  and  N_67 
REMARK   17  A    between atoms: C_68  and  C_69 
REMARK   18  A    between atoms: C_75  and  C_76 
ROOT
HETATM    1  C   UNK N   1      25.919  17.330   3.263  0.00  0.00     0.042 C 
HETATM    2  C   UNK N   1      26.109  16.009   3.985  0.00  0.00     0.172 C 
HETATM    3  C   UNK N   1      26.382  16.245   5.439  0.00  0.00     0.240 C 
HETATM    4  O   UNK N   1      27.433  16.774   5.771  0.00  0.00    -0.271 OA
HETATM    5  N   UNK N   1      25.522  15.853   6.404  0.00  0.00    -0.346 N 
HETATM    6  C   UNK N   1      24.143  15.457   6.207  0.00  0.00     0.182 C 
HETATM    7  C   UNK N   1      23.846  14.194   5.461  0.00  0.00     0.241 C 
HETATM    8  O   UNK N   1      23.753  14.206   4.246  0.00  0.00    -0.271 OA
HETATM    9  N   UNK N   1      23.386  13.156   6.201  0.00  0.00    -0.346 N 
HETATM   10  C   UNK N   1      22.487  12.061   5.851  0.00  0.00     0.180 C 
HETATM   11  C   UNK N   1      22.000  11.944   4.411  0.00  0.00     0.241 C 
HETATM   12  O   UNK N   1      22.806  11.952   3.500  0.00  0.00    -0.271 OA
HETATM   13  N   UNK N   1      20.670  11.751   4.149  0.00  0.00    -0.346 N 
HETATM   14  C   UNK N   1      20.140  11.563   2.815  0.00  0.00     0.176 C 
HETATM   15  C   UNK N   1      19.266  10.353   2.606  0.00  0.00     0.241 C 
HETATM   16  O   UNK N   1      18.072  10.490   2.400  0.00  0.00    -0.271 OA
HETATM   17  N   UNK N   1      19.777   9.102   2.636  0.00  0.00    -0.346 N 
HETATM   18  C   UNK N   1      21.169   8.775   2.869  0.00  0.00     0.181 C 
HETATM   19  C   UNK N   1      22.073   9.195   1.750  0.00  0.00     0.241 C 
HETATM   20  O   UNK N   1      21.822   8.885   0.595  0.00  0.00    -0.271 OA
HETATM   21  N   UNK N   1      23.238   9.812   2.069  0.00  0.00    -0.345 N 
HETATM   22  C   UNK N   1      24.320  10.073   1.142  0.00  0.00     0.186 C 
HETATM   23  C   UNK N   1      24.025  11.097   0.027  0.00  0.00     0.120 C 
HETATM   24  S   UNK N   1      22.781  12.351   0.503  0.00  0.00    -0.095 SA
HETATM   25  S   UNK N   1      23.951  14.095   1.012  0.00  0.00    -0.095 SA
HETATM   26  C   UNK N   1      25.590  13.345   1.191  0.00  0.00     0.120 C 
HETATM   27  C   UNK N   1      26.089  13.321   2.633  0.00  0.00     0.186 C 
HETATM   28  C   UNK N   1      27.336  14.145   2.910  0.00  0.00     0.241 C 
HETATM   29  O   UNK N   1      28.434  13.681   2.672  0.00  0.00    -0.271 OA
HETATM   30  N   UNK N   1      27.287  15.365   3.479  0.00  0.00    -0.346 N 
HETATM   31  H   UNK N   1      25.864  15.833   7.326  0.00  0.00     0.163 HD
HETATM   32  H   UNK N   1      23.712  13.139   7.130  0.00  0.00     0.163 HD
HETATM   33  H   UNK N   1      20.041  11.739   4.906  0.00  0.00     0.163 HD
HETATM   34  H   UNK N   1      19.153   8.355   2.488  0.00  0.00     0.163 HD
HETATM   35  H   UNK N   1      23.358  10.104   3.001  0.00  0.00     0.163 HD
HETATM   36  H   UNK N   1      28.135  15.859   3.555  0.00  0.00     0.163 HD
ENDROOT
BRANCH  27  37
HETATM   37  N   UNK N   1      26.218  11.964   3.129  0.00  0.00    -0.345 N 
HETATM   38  C   UNK N   1      27.098  10.979   2.756  0.00  0.00     0.241 C 
HETATM   39  O   UNK N   1      27.061   9.932   3.381  0.00  0.00    -0.271 OA
HETATM   40  H   UNK N   1      25.582  11.713   3.837  0.00  0.00     0.163 HD
BRANCH  38  41
HETATM   41  C   UNK N   1      28.158  11.084   1.639  0.00  0.00     0.176 C 
BRANCH  41  42
HETATM   42  C   UNK N   1      27.955  10.476   0.251  0.00  0.00     0.036 C 
BRANCH  42  43
HETATM   43  C   UNK N   1      28.552   9.091   0.100  0.00  0.00     0.023 C 
BRANCH  43  44
HETATM   44  C   UNK N   1      29.505   8.966  -1.070  0.00  0.00     0.138 C 
BRANCH  44  45
HETATM   45  N   UNK N   1      29.704  10.241  -1.723  0.00  0.00    -0.227 N 
HETATM   46  C   UNK N   1      29.682  10.412  -3.137  0.00  0.00     0.665 C 
HETATM   47  N   UNK N   1      30.042  11.532  -3.641  0.00  0.00    -0.235 N 
HETATM   48  N   UNK N   1      29.224   9.382  -3.991  0.00  0.00    -0.235 N 
HETATM   49  H   UNK N   1      29.854  12.125  -4.404  0.00  0.00     0.174 HD
ATOM     50  HN  UNK N   1      30.766  11.951  -3.058  1.00  0.00     0.174 HD
HETATM   51  H   UNK N   1      28.582   8.672  -3.758  0.00  0.00     0.174 HD
HETATM   52  H   UNK N   1      29.582   9.373  -4.907  0.00  0.00     0.174 HD
HETATM   53  H   UNK N   1      29.862  11.032  -1.160  0.00  0.00     0.177 HD
ENDBRANCH  44  45
ENDBRANCH  43  44
ENDBRANCH  42  43
ENDBRANCH  41  42
BRANCH  41  54
HETATM   54  N   UNK N   1      29.514  10.906   2.142  0.00  0.00    -0.348 N 
HETATM   55  C   UNK N   1      30.636  11.468   1.608  0.00  0.00     0.214 C 
HETATM   56  O   UNK N   1      30.582  12.173   0.610  0.00  0.00    -0.274 OA
HETATM   57  C   UNK N   1      31.958  11.195   2.231  0.00  0.00     0.117 C 
HETATM   58  H   UNK N   1      29.630  10.332   2.933  0.00  0.00     0.163 HD
ENDBRANCH  41  54
ENDBRANCH  38  41
ENDBRANCH  27  37
BRANCH  22  59
HETATM   59  C   UNK N   1      24.868   8.763   0.653  0.00  0.00     0.239 C 
HETATM   60  O   UNK N   1      24.761   8.469  -0.527  0.00  0.00    -0.271 OA
HETATM   61  N   UNK N   1      25.585   7.969   1.474  0.00  0.00    -0.368 N 
HETATM   62  H   UNK N   1      25.370   7.167   2.003  0.00  0.00     0.159 HD
HETATM   63  H   UNK N   1      26.524   8.251   1.563  0.00  0.00     0.159 HD
ENDBRANCH  22  59
BRANCH   6  64
HETATM   64  C   UNK N   1      23.272  16.610   5.720  0.00  0.00     0.093 C 
BRANCH  64  65
HETATM   65  C   UNK N   1      21.898  16.503   6.276  0.00  0.00     0.028 A 
HETATM   66  C   UNK N   1      20.751  16.899   5.642  0.00  0.00     0.114 A 
HETATM   67  N   UNK N   1      19.724  16.679   6.483  0.00  0.00    -0.360 N 
HETATM   68  C   UNK N   1      20.268  16.161   7.605  0.00  0.00     0.180 A 
ATOM     69  HN  UNK N   1      18.737  16.866   6.309  1.00  0.00     0.166 HD
HETATM   70  N   UNK N   1      21.606  16.044   7.503  0.00  0.00    -0.354 N 
HETATM   71  H   UNK N   1      22.233  15.697   8.179  0.00  0.00     0.166 HD
ENDBRANCH  64  65
ENDBRANCH   6  64
BRANCH  18  72
HETATM   72  C   UNK N   1      21.348   7.278   3.155  0.00  0.00     0.075 C 
BRANCH  72  73
HETATM   73  C   UNK N   1      22.650   6.948   3.811  0.00  0.00    -0.028 A 
HETATM   74  C   UNK N   1      23.615   6.095   3.284  0.00  0.00     0.096 A 
HETATM   75  N   UNK N   1      24.682   6.047   4.114  0.00  0.00    -0.365 N 
HETATM   76  C   UNK N   1      24.388   6.862   5.151  0.00  0.00     0.042 A 
HETATM   77  H   UNK N   1      25.505   5.524   3.988  0.00  0.00     0.165 HD
HETATM   78  C   UNK N   1      23.153   7.422   4.992  0.00  0.00    -0.002 A 
HETATM   79  C   UNK N   1      25.193   7.136   6.246  0.00  0.00     0.030 A 
HETATM   80  C   UNK N   1      22.626   8.308   5.935  0.00  0.00     0.014 A 
HETATM   81  C   UNK N   1      23.415   8.607   7.061  0.00  0.00     0.001 A 
HETATM   82  C   UNK N   1      24.693   8.025   7.217  0.00  0.00     0.002 A 
ENDBRANCH  72  73
ENDBRANCH  18  72
BRANCH  10  83
HETATM   83  C   UNK N   1      21.269  12.255   6.769  0.00  0.00     0.073 C 
BRANCH  83  84
HETATM   84  C   UNK N   1      21.708  12.294   8.219  0.00  0.00    -0.056 A 
HETATM   85  C   UNK N   1      20.954  13.009   9.154  0.00  0.00     0.007 A 
HETATM   86  C   UNK N   1      21.316  12.990  10.506  0.00  0.00     0.001 A 
HETATM   87  C   UNK N   1      22.424  12.248  10.930  0.00  0.00     0.000 A 
HETATM   88  C   UNK N   1      23.168  11.519  10.004  0.00  0.00     0.001 A 
HETATM   89  C   UNK N   1      22.808  11.539   8.658  0.00  0.00     0.007 A 
ENDBRANCH  83  84
ENDBRANCH  10  83
BRANCH  14  90
HETATM   90  C   UNK N   1      19.948  12.813   1.950  0.00  0.00     0.036 C 
BRANCH  90  91
HETATM   91  C   UNK N   1      19.612  14.163   2.601  0.00  0.00     0.023 C 
BRANCH  91  92
HETATM   92  C   UNK N   1      20.718  15.203   2.670  0.00  0.00     0.138 C 
BRANCH  92  93
HETATM   93  N   UNK N   1      20.722  15.985   1.463  0.00  0.00    -0.227 N 
HETATM   94  C   UNK N   1      20.030  17.219   1.374  0.00  0.00     0.665 C 
HETATM   95  N   UNK N   1      20.062  17.885   0.281  0.00  0.00    -0.235 N 
HETATM   96  N   UNK N   1      19.274  17.701   2.466  0.00  0.00    -0.235 N 
HETATM   97  H   UNK N   1      19.310  18.225  -0.256  0.00  0.00     0.174 HD
ATOM     98  HN  UNK N   1      20.993  18.092  -0.082  1.00  0.00     0.174 HD
HETATM   99  H   UNK N   1      19.606  18.227   3.229  0.00  0.00     0.174 HD
HETATM  100  H   UNK N   1      18.313  17.487   2.463  0.00  0.00     0.174 HD
HETATM  101  H   UNK N   1      21.219  15.656   0.680  0.00  0.00     0.177 HD
ENDBRANCH  92  93
ENDBRANCH  91  92
ENDBRANCH  90  91
ENDBRANCH  14  90
TORSDOF 18
ENDMDL
MODEL 4
REMARK VINA RESULT:      -7.0      9.671     15.402
REMARK  18 active torsions:
REMARK  status: ('A' for Active; 'I' for Inactive)
REMARK    1  A    between atoms: C_6  and  C_75 
REMARK    2  A    between atoms: C_10  and  C_68 
REMARK    3  A    between atoms: C_14  and  C_60 
REMARK    4  A    between atoms: C_18  and  C_50 
REMARK    5  A    between atoms: C_22  and  C_47 
REMARK    6  A    between atoms: C_27  and  N_31 
REMARK       I    between atoms: N_31  and  C_32 
REMARK    7  A    between atoms: C_32  and  C_34 
REMARK    8  A    between atoms: C_34  and  C_35 
REMARK    9  A    between atoms: C_34  and  N_43 
REMARK   10  A    between atoms: C_35  and  C_36 
REMARK   11  A    between atoms: C_36  and  C_37 
REMARK   12  A    between atoms: C_37  and  N_38 
REMARK       I    between atoms: N_38  and  C_39 
REMARK       I    between atoms: C_39  and  N_42 
REMARK       I    between atoms: N_43  and  C_44 
REMARK       I    between atoms: C_47  and  N_49 
REMARK   13  A    between atoms: C_50  and  C_51 
REMARK   14  A    between atoms: C_60  and  C_61 
REMARK   15  A    between atoms: C_61  and  C_62 
REMARK   16  A    between atoms: C_62  and  N_63 
REMARK       I    between atoms: N_63  and  C_64 
REMARK       I    between atoms: C_64  and  N_67 
REMARK   17  A    between atoms: C_68  and  C_69 
REMARK   18  A    between atoms: C_75  and  C_76 
ROOT
HETATM    1  C   UNK N   1      37.980  12.198   3.682  0.00  0.00     0.042 C 
HETATM    2  C   UNK N   1      36.637  12.231   4.389  0.00  0.00     0.172 C 
HETATM    3  C   UNK N   1      35.584  11.593   3.537  0.00  0.00     0.240 C 
HETATM    4  O   UNK N   1      35.244  12.140   2.497  0.00  0.00    -0.271 OA
HETATM    5  N   UNK N   1      34.963  10.449   3.899  0.00  0.00    -0.346 N 
HETATM    6  C   UNK N   1      35.397   9.535   4.934  0.00  0.00     0.182 C 
HETATM    7  C   UNK N   1      35.360   9.979   6.363  0.00  0.00     0.241 C 
HETATM    8  O   UNK N   1      36.307  10.577   6.843  0.00  0.00    -0.271 OA
HETATM    9  N   UNK N   1      34.401   9.420   7.139  0.00  0.00    -0.346 N 
HETATM   10  C   UNK N   1      34.385   9.126   8.569  0.00  0.00     0.180 C 
HETATM   11  C   UNK N   1      35.573   9.559   9.421  0.00  0.00     0.241 C 
HETATM   12  O   UNK N   1      35.960  10.712   9.372  0.00  0.00    -0.271 OA
HETATM   13  N   UNK N   1      36.151   8.677  10.294  0.00  0.00    -0.346 N 
HETATM   14  C   UNK N   1      37.236   9.033  11.184  0.00  0.00     0.176 C 
HETATM   15  C   UNK N   1      37.041   8.705  12.642  0.00  0.00     0.241 C 
HETATM   16  O   UNK N   1      37.710   7.829  13.166  0.00  0.00    -0.271 OA
HETATM   17  N   UNK N   1      36.135   9.365  13.398  0.00  0.00    -0.346 N 
HETATM   18  C   UNK N   1      35.267  10.424  12.924  0.00  0.00     0.181 C 
HETATM   19  C   UNK N   1      36.002  11.683  12.575  0.00  0.00     0.241 C 
HETATM   20  O   UNK N   1      36.784  12.188  13.366  0.00  0.00    -0.271 OA
HETATM   21  N   UNK N   1      35.679  12.310  11.417  0.00  0.00    -0.345 N 
HETATM   22  C   UNK N   1      36.117  13.639  11.042  0.00  0.00     0.186 C 
HETATM   23  C   UNK N   1      37.625  13.803  10.768  0.00  0.00     0.120 C 
HETATM   24  S   UNK N   1      38.425  12.272  10.167  0.00  0.00    -0.095 SA
HETATM   25  S   UNK N   1      38.584  12.558   8.031  0.00  0.00    -0.095 SA
HETATM   26  C   UNK N   1      37.431  13.934   7.801  0.00  0.00     0.120 C 
HETATM   27  C   UNK N   1      36.159  13.540   7.056  0.00  0.00     0.186 C 
HETATM   28  C   UNK N   1      35.951  14.212   5.709  0.00  0.00     0.241 C 
HETATM   29  O   UNK N   1      35.467  15.326   5.656  0.00  0.00    -0.271 OA
HETATM   30  N   UNK N   1      36.223  13.597   4.542  0.00  0.00    -0.346 N 
HETATM   31  H   UNK N   1      34.138  10.216   3.415  0.00  0.00     0.163 HD
HETATM   32  H   UNK N   1      33.580   9.170   6.659  0.00  0.00     0.163 HD
HETATM   33  H   UNK N   1      35.810   7.754  10.319  0.00  0.00     0.163 HD
HETATM   34  H   UNK N   1      36.060   9.105  14.344  0.00  0.00     0.163 HD
HETATM   35  H   UNK N   1      35.102  11.826  10.783  0.00  0.00     0.163 HD
HETATM   36  H   UNK N   1      36.128  14.131   3.720  0.00  0.00     0.163 HD
ENDROOT
BRANCH  27  37
HETATM   37  N   UNK N   1      34.988  13.657   7.903  0.00  0.00    -0.345 N 
HETATM   38  C   UNK N   1      33.673  13.381   7.617  0.00  0.00     0.241 C 
HETATM   39  O   UNK N   1      32.870  13.485   8.531  0.00  0.00    -0.271 OA
HETATM   40  H   UNK N   1      35.160  13.979   8.817  0.00  0.00     0.163 HD
BRANCH  38  41
HETATM   41  C   UNK N   1      33.118  12.917   6.254  0.00  0.00     0.176 C 
BRANCH  41  42
HETATM   42  C   UNK N   1      32.554  13.891   5.220  0.00  0.00     0.036 C 
BRANCH  42  43
HETATM   43  C   UNK N   1      31.248  14.535   5.640  0.00  0.00     0.023 C 
BRANCH  43  44
HETATM   44  C   UNK N   1      31.372  16.013   5.948  0.00  0.00     0.138 C 
BRANCH  44  45
HETATM   45  N   UNK N   1      31.658  16.234   7.348  0.00  0.00    -0.227 N 
HETATM   46  C   UNK N   1      32.867  16.821   7.819  0.00  0.00     0.665 C 
HETATM   47  N   UNK N   1      33.119  16.820   9.075  0.00  0.00    -0.235 N 
HETATM   48  N   UNK N   1      33.770  17.449   6.930  0.00  0.00    -0.235 N 
HETATM   49  H   UNK N   1      33.567  17.358   9.766  0.00  0.00     0.174 HD
ATOM     50  HN  UNK N   1      32.724  15.982   9.500  1.00  0.00     0.174 HD
HETATM   51  H   UNK N   1      33.546  17.862   6.065  0.00  0.00     0.174 HD
HETATM   52  H   UNK N   1      34.715  17.475   7.204  0.00  0.00     0.174 HD
HETATM   53  H   UNK N   1      30.981  15.966   8.009  0.00  0.00     0.177 HD
ENDBRANCH  44  45
ENDBRANCH  43  44
ENDBRANCH  42  43
ENDBRANCH  41  42
BRANCH  41  54
HETATM   54  N   UNK N   1      32.340  11.690   6.360  0.00  0.00    -0.348 N 
HETATM   55  C   UNK N   1      31.931  10.919   5.312  0.00  0.00     0.214 C 
HETATM   56  O   UNK N   1      32.181  11.231   4.156  0.00  0.00    -0.274 OA
HETATM   57  C   UNK N   1      31.140   9.688   5.574  0.00  0.00     0.117 C 
HETATM   58  H   UNK N   1      32.087  11.392   7.263  0.00  0.00     0.163 HD
ENDBRANCH  41  54
ENDBRANCH  38  41
ENDBRANCH  27  37
BRANCH  22  59
HETATM   59  C   UNK N   1      35.551  14.630  12.018  0.00  0.00     0.239 C 
HETATM   60  O   UNK N   1      34.344  14.809  12.063  0.00  0.00    -0.271 OA
HETATM   61  N   UNK N   1      36.346  15.229  12.928  0.00  0.00    -0.368 N 
HETATM   62  H   UNK N   1      36.781  16.111  12.975  0.00  0.00     0.159 HD
HETATM   63  H   UNK N   1      36.531  14.664  13.713  0.00  0.00     0.159 HD
ENDBRANCH  22  59
BRANCH   6  64
HETATM   64  C   UNK N   1      36.722   8.860   4.594  0.00  0.00     0.093 C 
BRANCH  64  65
HETATM   65  C   UNK N   1      36.517   7.416   4.304  0.00  0.00     0.028 A 
HETATM   66  C   UNK N   1      35.738   6.561   5.037  0.00  0.00     0.114 A 
HETATM   67  N   UNK N   1      35.844   5.340   4.485  0.00  0.00    -0.360 N 
HETATM   68  C   UNK N   1      36.684   5.478   3.437  0.00  0.00     0.180 A 
ATOM     69  HN  UNK N   1      35.384   4.484   4.795  1.00  0.00     0.166 HD
HETATM   70  N   UNK N   1      37.113   6.747   3.305  0.00  0.00    -0.354 N 
HETATM   71  H   UNK N   1      37.728   7.107   2.625  0.00  0.00     0.166 HD
ENDBRANCH  64  65
ENDBRANCH   6  64
BRANCH  18  72
HETATM   72  C   UNK N   1      34.156  10.728  13.937  0.00  0.00     0.075 C 
BRANCH  72  73
HETATM   73  C   UNK N   1      34.600  10.614  15.360  0.00  0.00    -0.028 A 
HETATM   74  C   UNK N   1      34.937   9.425  15.997  0.00  0.00     0.096 A 
HETATM   75  N   UNK N   1      35.327   9.684  17.267  0.00  0.00    -0.365 N 
HETATM   76  C   UNK N   1      35.235  11.022  17.423  0.00  0.00     0.042 A 
HETATM   77  H   UNK N   1      35.619   9.029  17.941  0.00  0.00     0.165 HD
HETATM   78  C   UNK N   1      34.791  11.614  16.275  0.00  0.00    -0.002 A 
HETATM   79  C   UNK N   1      35.543  11.749  18.562  0.00  0.00     0.030 A 
HETATM   80  C   UNK N   1      34.618  12.997  16.187  0.00  0.00     0.014 A 
HETATM   81  C   UNK N   1      34.918  13.767  17.326  0.00  0.00     0.001 A 
HETATM   82  C   UNK N   1      35.380  13.147  18.508  0.00  0.00     0.002 A 
ENDBRANCH  72  73
ENDBRANCH  18  72
BRANCH  10  83
HETATM   83  C   UNK N   1      34.257   7.595   8.644  0.00  0.00     0.073 C 
BRANCH  83  84
HETATM   84  C   UNK N   1      32.798   7.197   8.751  0.00  0.00    -0.056 A 
HETATM   85  C   UNK N   1      31.998   7.749   9.754  0.00  0.00     0.007 A 
HETATM   86  C   UNK N   1      30.635   7.438   9.813  0.00  0.00     0.001 A 
HETATM   87  C   UNK N   1      30.064   6.584   8.862  0.00  0.00     0.000 A 
HETATM   88  C   UNK N   1      30.854   6.045   7.848  0.00  0.00     0.001 A 
HETATM   89  C   UNK N   1      32.211   6.355   7.791  0.00  0.00     0.007 A 
ENDBRANCH  83  84
ENDBRANCH  10  83
BRANCH  14  90
HETATM   90  C   UNK N   1      38.646   9.092  10.587  0.00  0.00     0.036 C 
BRANCH  90  91
HETATM   91  C   UNK N   1      39.024   8.197   9.398  0.00  0.00     0.023 C 
BRANCH  91  92
HETATM   92  C   UNK N   1      40.362   8.453   8.725  0.00  0.00     0.138 C 
BRANCH  92  93
HETATM   93  N   UNK N   1      40.829   9.771   9.062  0.00  0.00    -0.227 N 
HETATM   94  C   UNK N   1      41.891  10.387   8.355  0.00  0.00     0.665 C 
HETATM   95  N   UNK N   1      42.274  11.562   8.685  0.00  0.00    -0.235 N 
HETATM   96  N   UNK N   1      42.557   9.700   7.315  0.00  0.00    -0.235 N 
HETATM   97  H   UNK N   1      43.179  11.873   8.920  0.00  0.00     0.174 HD
ATOM     98  HN  UNK N   1      41.544  12.274   8.710  1.00  0.00     0.174 HD
HETATM   99  H   UNK N   1      42.288   9.651   6.370  0.00  0.00     0.174 HD
HETATM  100  H   UNK N   1      43.380   9.218   7.564  0.00  0.00     0.174 HD
HETATM  101  H   UNK N   1      40.398  10.257   9.801  0.00  0.00     0.177 HD
ENDBRANCH  92  93
ENDBRANCH  91  92
ENDBRANCH  90  91
ENDBRANCH  14  90
TORSDOF 18
ENDMDL
MODEL 5
REMARK VINA RESULT:      -6.9      8.552     14.370
REMARK  18 active torsions:
REMARK  status: ('A' for Active; 'I' for Inactive)
REMARK    1  A    between atoms: C_6  and  C_75 
REMARK    2  A    between atoms: C_10  and  C_68 
REMARK    3  A    between atoms: C_14  and  C_60 
REMARK    4  A    between atoms: C_18  and  C_50 
REMARK    5  A    between atoms: C_22  and  C_47 
REMARK    6  A    between atoms: C_27  and  N_31 
REMARK       I    between atoms: N_31  and  C_32 
REMARK    7  A    between atoms: C_32  and  C_34 
REMARK    8  A    between atoms: C_34  and  C_35 
REMARK    9  A    between atoms: C_34  and  N_43 
REMARK   10  A    between atoms: C_35  and  C_36 
REMARK   11  A    between atoms: C_36  and  C_37 
REMARK   12  A    between atoms: C_37  and  N_38 
REMARK       I    between atoms: N_38  and  C_39 
REMARK       I    between atoms: C_39  and  N_42 
REMARK       I    between atoms: N_43  and  C_44 
REMARK       I    between atoms: C_47  and  N_49 
REMARK   13  A    between atoms: C_50  and  C_51 
REMARK   14  A    between atoms: C_60  and  C_61 
REMARK   15  A    between atoms: C_61  and  C_62 
REMARK   16  A    between atoms: C_62  and  N_63 
REMARK       I    between atoms: N_63  and  C_64 
REMARK       I    between atoms: C_64  and  N_67 
REMARK   17  A    between atoms: C_68  and  C_69 
REMARK   18  A    between atoms: C_75  and  C_76 
ROOT
HETATM    1  C   UNK N   1      36.291  10.434   0.054  0.00  0.00     0.042 C 
HETATM    2  C   UNK N   1      36.275  11.763   0.786  0.00  0.00     0.172 C 
HETATM    3  C   UNK N   1      35.574  12.802  -0.035  0.00  0.00     0.240 C 
HETATM    4  O   UNK N   1      36.087  13.186  -1.077  0.00  0.00    -0.271 OA
HETATM    5  N   UNK N   1      34.409  13.363   0.358  0.00  0.00    -0.346 N 
HETATM    6  C   UNK N   1      33.534  12.867   1.399  0.00  0.00     0.182 C 
HETATM    7  C   UNK N   1      34.002  12.899   2.821  0.00  0.00     0.241 C 
HETATM    8  O   UNK N   1      34.650  11.972   3.273  0.00  0.00    -0.271 OA
HETATM    9  N   UNK N   1      33.413  13.816   3.624  0.00  0.00    -0.346 N 
HETATM   10  C   UNK N   1      33.143  13.793   5.060  0.00  0.00     0.180 C 
HETATM   11  C   UNK N   1      33.645  12.610   5.881  0.00  0.00     0.241 C 
HETATM   12  O   UNK N   1      34.813  12.278   5.806  0.00  0.00    -0.271 OA
HETATM   13  N   UNK N   1      32.805  11.977   6.758  0.00  0.00    -0.346 N 
HETATM   14  C   UNK N   1      33.226  10.893   7.620  0.00  0.00     0.176 C 
HETATM   15  C   UNK N   1      32.914  11.046   9.087  0.00  0.00     0.241 C 
HETATM   16  O   UNK N   1      32.080  10.328   9.612  0.00  0.00    -0.271 OA
HETATM   17  N   UNK N   1      33.545  11.967   9.849  0.00  0.00    -0.346 N 
HETATM   18  C   UNK N   1      34.556  12.891   9.374  0.00  0.00     0.181 C 
HETATM   19  C   UNK N   1      35.840  12.222   8.990  0.00  0.00     0.241 C 
HETATM   20  O   UNK N   1      36.395  11.450   9.758  0.00  0.00    -0.271 OA
HETATM   21  N   UNK N   1      36.432  12.595   7.829  0.00  0.00    -0.345 N 
HETATM   22  C   UNK N   1      37.773  12.226   7.424  0.00  0.00     0.186 C 
HETATM   23  C   UNK N   1      38.000  10.732   7.118  0.00  0.00     0.120 C 
HETATM   24  S   UNK N   1      36.497   9.873   6.527  0.00  0.00    -0.095 SA
HETATM   25  S   UNK N   1      36.753   9.767   4.384  0.00  0.00    -0.095 SA
HETATM   26  C   UNK N   1      38.072  10.986   4.154  0.00  0.00     0.120 C 
HETATM   27  C   UNK N   1      37.606  12.252   3.439  0.00  0.00     0.186 C 
HETATM   28  C   UNK N   1      38.245  12.516   2.086  0.00  0.00     0.241 C 
HETATM   29  O   UNK N   1      39.334  13.051   2.024  0.00  0.00    -0.271 OA
HETATM   30  N   UNK N   1      37.622  12.238   0.924  0.00  0.00    -0.346 N 
HETATM   31  H   UNK N   1      34.131  14.184  -0.107  0.00  0.00     0.163 HD
HETATM   32  H   UNK N   1      33.117  14.635   3.164  0.00  0.00     0.163 HD
HETATM   33  H   UNK N   1      31.868  12.274   6.804  0.00  0.00     0.163 HD
HETATM   34  H   UNK N   1      33.299  12.013  10.801  0.00  0.00     0.163 HD
HETATM   35  H   UNK N   1      35.911  13.160   7.214  0.00  0.00     0.163 HD
HETATM   36  H   UNK N   1      38.137  12.372   0.096  0.00  0.00     0.163 HD
ENDROOT
BRANCH  27  37
HETATM   37  N   UNK N   1      37.684  13.412   4.308  0.00  0.00    -0.345 N 
HETATM   38  C   UNK N   1      38.790  14.050   4.813  0.00  0.00     0.241 C 
HETATM   39  O   UNK N   1      38.599  15.064   5.465  0.00  0.00    -0.271 OA
HETATM   40  H   UNK N   1      36.819  13.799   4.572  0.00  0.00     0.163 HD
BRANCH  38  41
HETATM   41  C   UNK N   1      40.259  13.625   4.604  0.00  0.00     0.176 C 
BRANCH  41  42
HETATM   42  C   UNK N   1      40.951  12.590   5.492  0.00  0.00     0.036 C 
BRANCH  42  43
HETATM   43  C   UNK N   1      41.879  13.198   6.524  0.00  0.00     0.023 C 
BRANCH  43  44
HETATM   44  C   UNK N   1      43.041  12.301   6.897  0.00  0.00     0.138 C 
BRANCH  44  45
HETATM   45  N   UNK N   1      42.737  11.509   8.068  0.00  0.00    -0.227 N 
HETATM   46  C   UNK N   1      42.372  10.134   8.013  0.00  0.00     0.665 C 
HETATM   47  N   UNK N   1      41.947   9.553   9.072  0.00  0.00    -0.235 N 
HETATM   48  N   UNK N   1      42.518   9.386   6.822  0.00  0.00    -0.235 N 
HETATM   49  H   UNK N   1      41.948   8.674   9.516  0.00  0.00     0.174 HD
ATOM     50  HN  UNK N   1      41.438  10.223   9.647  1.00  0.00     0.174 HD
HETATM   51  H   UNK N   1      43.160   9.562   6.096  0.00  0.00     0.174 HD
HETATM   52  H   UNK N   1      41.918   8.614   6.706  0.00  0.00     0.174 HD
HETATM   53  H   UNK N   1      42.785  11.944   8.949  0.00  0.00     0.177 HD
ENDBRANCH  44  45
ENDBRANCH  43  44
ENDBRANCH  42  43
ENDBRANCH  41  42
BRANCH  41  54
HETATM   54  N   UNK N   1      41.121  14.751   4.270  0.00  0.00    -0.348 N 
HETATM   55  C   UNK N   1      42.100  14.742   3.322  0.00  0.00     0.214 C 
HETATM   56  O   UNK N   1      42.351  13.737   2.673  0.00  0.00    -0.274 OA
HETATM   57  C   UNK N   1      42.903  15.972   3.089  0.00  0.00     0.117 C 
HETATM   58  H   UNK N   1      40.985  15.587   4.770  0.00  0.00     0.163 HD
ENDBRANCH  41  54
ENDBRANCH  38  41
ENDBRANCH  27  37
BRANCH  22  59
HETATM   59  C   UNK N   1      38.754  12.818   8.394  0.00  0.00     0.239 C 
HETATM   60  O   UNK N   1      38.852  14.032   8.485  0.00  0.00    -0.271 OA
HETATM   61  N   UNK N   1      39.434  12.030   9.252  0.00  0.00    -0.368 N 
HETATM   62  H   UNK N   1      40.344  11.655   9.255  0.00  0.00     0.159 HD
HETATM   63  H   UNK N   1      38.907  11.776  10.044  0.00  0.00     0.159 HD
ENDBRANCH  22  59
BRANCH   6  64
HETATM   64  C   UNK N   1      32.915  11.520   1.045  0.00  0.00     0.093 C 
BRANCH  64  65
HETATM   65  C   UNK N   1      31.679  11.705   0.239  0.00  0.00     0.028 A 
HETATM   66  C   UNK N   1      31.616  11.713  -1.129  0.00  0.00     0.114 A 
HETATM   67  N   UNK N   1      30.339  11.950  -1.476  0.00  0.00    -0.360 N 
HETATM   68  C   UNK N   1      29.658  12.083  -0.317  0.00  0.00     0.180 A 
ATOM     69  HN  UNK N   1      29.961  12.015  -2.421  1.00  0.00     0.166 HD
HETATM   70  N   UNK N   1      30.462  11.938   0.754  0.00  0.00    -0.354 N 
HETATM   71  H   UNK N   1      30.212  11.990   1.705  0.00  0.00     0.166 HD
ENDBRANCH  64  65
ENDBRANCH   6  64
BRANCH  18  72
HETATM   72  C   UNK N   1      34.826  13.996  10.404  0.00  0.00     0.075 C 
BRANCH  72  73
HETATM   73  C   UNK N   1      34.544  15.371   9.891  0.00  0.00    -0.028 A 
HETATM   74  C   UNK N   1      35.455  16.423   9.887  0.00  0.00     0.096 A 
HETATM   75  N   UNK N   1      34.887  17.514   9.322  0.00  0.00    -0.365 N 
HETATM   76  C   UNK N   1      33.634  17.148   8.975  0.00  0.00     0.042 A 
HETATM   77  H   UNK N   1      35.304  18.395   9.190  0.00  0.00     0.165 HD
HETATM   78  C   UNK N   1      33.397  15.846   9.314  0.00  0.00    -0.002 A 
HETATM   79  C   UNK N   1      32.679  17.939   8.354  0.00  0.00     0.030 A 
HETATM   80  C   UNK N   1      32.169  15.236   9.053  0.00  0.00     0.014 A 
HETATM   81  C   UNK N   1      31.176  16.009   8.424  0.00  0.00     0.001 A 
HETATM   82  C   UNK N   1      31.429  17.354   8.075  0.00  0.00     0.002 A 
ENDBRANCH  72  73
ENDBRANCH  18  72
BRANCH  10  83
HETATM   83  C   UNK N   1      31.610  13.849   5.163  0.00  0.00     0.073 C 
BRANCH  83  84
HETATM   84  C   UNK N   1      31.120  15.262   4.915  0.00  0.00    -0.056 A 
HETATM   85  C   UNK N   1      29.763  15.562   5.058  0.00  0.00     0.007 A 
HETATM   86  C   UNK N   1      29.316  16.879   4.899  0.00  0.00     0.001 A 
HETATM   87  C   UNK N   1      30.226  17.902   4.608  0.00  0.00     0.000 A 
HETATM   88  C   UNK N   1      31.583  17.611   4.481  0.00  0.00     0.001 A 
HETATM   89  C   UNK N   1      32.026  16.299   4.639  0.00  0.00     0.007 A 
ENDBRANCH  83  84
ENDBRANCH  10  83
BRANCH  14  90
HETATM   90  C   UNK N   1      33.339   9.498   6.996  0.00  0.00     0.036 C 
BRANCH  90  91
HETATM   91  C   UNK N   1      32.443   9.102   5.813  0.00  0.00     0.023 C 
BRANCH  91  92
HETATM   92  C   UNK N   1      31.236   8.229   6.110  0.00  0.00     0.138 C 
BRANCH  92  93
HETATM   93  N   UNK N   1      30.783   8.470   7.454  0.00  0.00    -0.227 N 
HETATM   94  C   UNK N   1      30.741   7.436   8.421  0.00  0.00     0.665 C 
HETATM   95  N   UNK N   1      30.334   7.694   9.607  0.00  0.00    -0.235 N 
HETATM   96  N   UNK N   1      31.107   6.115   8.079  0.00  0.00    -0.235 N 
HETATM   97  H   UNK N   1      29.621   7.253  10.124  0.00  0.00     0.174 HD
ATOM     98  HN  UNK N   1      30.811   8.461  10.080  1.00  0.00     0.174 HD
HETATM   99  H   UNK N   1      32.014   5.734   8.075  0.00  0.00     0.174 HD
HETATM  100  H   UNK N   1      30.375   5.511   7.816  0.00  0.00     0.174 HD
HETATM  101  H   UNK N   1      30.497   9.376   7.708  0.00  0.00     0.177 HD
ENDBRANCH  92  93
ENDBRANCH  91  92
ENDBRANCH  90  91
ENDBRANCH  14  90
TORSDOF 18
ENDMDL
MODEL 6
REMARK VINA RESULT:      -6.8      2.792      5.297
REMARK  18 active torsions:
REMARK  status: ('A' for Active; 'I' for Inactive)
REMARK    1  A    between atoms: C_6  and  C_75 
REMARK    2  A    between atoms: C_10  and  C_68 
REMARK    3  A    between atoms: C_14  and  C_60 
REMARK    4  A    between atoms: C_18  and  C_50 
REMARK    5  A    between atoms: C_22  and  C_47 
REMARK    6  A    between atoms: C_27  and  N_31 
REMARK       I    between atoms: N_31  and  C_32 
REMARK    7  A    between atoms: C_32  and  C_34 
REMARK    8  A    between atoms: C_34  and  C_35 
REMARK    9  A    between atoms: C_34  and  N_43 
REMARK   10  A    between atoms: C_35  and  C_36 
REMARK   11  A    between atoms: C_36  and  C_37 
REMARK   12  A    between atoms: C_37  and  N_38 
REMARK       I    between atoms: N_38  and  C_39 
REMARK       I    between atoms: C_39  and  N_42 
REMARK       I    between atoms: N_43  and  C_44 
REMARK       I    between atoms: C_47  and  N_49 
REMARK   13  A    between atoms: C_50  and  C_51 
REMARK   14  A    between atoms: C_60  and  C_61 
REMARK   15  A    between atoms: C_61  and  C_62 
REMARK   16  A    between atoms: C_62  and  N_63 
REMARK       I    between atoms: N_63  and  C_64 
REMARK       I    between atoms: C_64  and  N_67 
REMARK   17  A    between atoms: C_68  and  C_69 
REMARK   18  A    between atoms: C_75  and  C_76 
ROOT
HETATM    1  C   UNK N   1      26.151  17.104   3.324  0.00  0.00     0.042 C 
HETATM    2  C   UNK N   1      26.459  15.967   4.280  0.00  0.00     0.172 C 
HETATM    3  C   UNK N   1      26.435  16.456   5.696  0.00  0.00     0.240 C 
HETATM    4  O   UNK N   1      27.298  17.236   6.073  0.00  0.00    -0.271 OA
HETATM    5  N   UNK N   1      25.513  16.031   6.587  0.00  0.00    -0.346 N 
HETATM    6  C   UNK N   1      24.285  15.330   6.274  0.00  0.00     0.182 C 
HETATM    7  C   UNK N   1      24.358  13.941   5.722  0.00  0.00     0.241 C 
HETATM    8  O   UNK N   1      24.471  13.763   4.522  0.00  0.00    -0.271 OA
HETATM    9  N   UNK N   1      23.982  12.944   6.559  0.00  0.00    -0.346 N 
HETATM   10  C   UNK N   1      23.375  11.645   6.281  0.00  0.00     0.180 C 
HETATM   11  C   UNK N   1      23.167  11.228   4.829  0.00  0.00     0.241 C 
HETATM   12  O   UNK N   1      24.100  11.279   4.050  0.00  0.00    -0.271 OA
HETATM   13  N   UNK N   1      21.960  10.725   4.424  0.00  0.00    -0.346 N 
HETATM   14  C   UNK N   1      21.708  10.245   3.082  0.00  0.00     0.176 C 
HETATM   15  C   UNK N   1      21.122   8.861   2.966  0.00  0.00     0.241 C 
HETATM   16  O   UNK N   1      19.975   8.713   2.579  0.00  0.00    -0.271 OA
HETATM   17  N   UNK N   1      21.844   7.762   3.279  0.00  0.00    -0.346 N 
HETATM   18  C   UNK N   1      23.214   7.771   3.753  0.00  0.00     0.181 C 
HETATM   19  C   UNK N   1      24.199   8.212   2.713  0.00  0.00     0.241 C 
HETATM   20  O   UNK N   1      24.208   7.697   1.605  0.00  0.00    -0.271 OA
HETATM   21  N   UNK N   1      25.158   9.098   3.078  0.00  0.00    -0.345 N 
HETATM   22  C   UNK N   1      26.313   9.449   2.278  0.00  0.00     0.186 C 
HETATM   23  C   UNK N   1      26.024  10.221   0.974  0.00  0.00     0.120 C 
HETATM   24  S   UNK N   1      24.506  11.239   1.053  0.00  0.00    -0.095 SA
HETATM   25  S   UNK N   1      25.229  13.244   1.412  0.00  0.00    -0.095 SA
HETATM   26  C   UNK N   1      26.924  12.889   1.939  0.00  0.00     0.120 C 
HETATM   27  C   UNK N   1      27.169  13.173   3.419  0.00  0.00     0.186 C 
HETATM   28  C   UNK N   1      28.175  14.271   3.719  0.00  0.00     0.241 C 
HETATM   29  O   UNK N   1      29.365  14.020   3.716  0.00  0.00    -0.271 OA
HETATM   30  N   UNK N   1      27.805  15.521   4.059  0.00  0.00    -0.346 N 
HETATM   31  H   UNK N   1      25.693  16.213   7.537  0.00  0.00     0.163 HD
HETATM   32  H   UNK N   1      24.145  13.126   7.512  0.00  0.00     0.163 HD
HETATM   33  H   UNK N   1      21.226  10.687   5.080  0.00  0.00     0.163 HD
HETATM   34  H   UNK N   1      21.404   6.887   3.178  0.00  0.00     0.163 HD
HETATM   35  H   UNK N   1      25.062   9.537   3.954  0.00  0.00     0.163 HD
HETATM   36  H   UNK N   1      28.521  16.188   4.164  0.00  0.00     0.163 HD
ENDROOT
BRANCH  27  37
HETATM   37  N   UNK N   1      27.462  11.957   4.152  0.00  0.00    -0.345 N 
HETATM   38  C   UNK N   1      28.534  11.106   4.037  0.00  0.00     0.241 C 
HETATM   39  O   UNK N   1      28.598  10.179   4.830  0.00  0.00    -0.271 OA
HETATM   40  H   UNK N   1      26.797  11.704   4.833  0.00  0.00     0.163 HD
BRANCH  38  41
HETATM   41  C   UNK N   1      29.688  11.231   3.021  0.00  0.00     0.176 C 
BRANCH  41  42
HETATM   42  C   UNK N   1      29.697  10.482   1.688  0.00  0.00     0.036 C 
BRANCH  42  43
HETATM   43  C   UNK N   1      29.891  11.383   0.485  0.00  0.00     0.023 C 
BRANCH  43  44
HETATM   44  C   UNK N   1      30.995  10.924  -0.444  0.00  0.00     0.138 C 
BRANCH  44  45
HETATM   45  N   UNK N   1      31.977  11.966  -0.647  0.00  0.00    -0.227 N 
HETATM   46  C   UNK N   1      32.520  12.297  -1.921  0.00  0.00     0.665 C 
HETATM   47  N   UNK N   1      33.510  13.106  -1.993  0.00  0.00    -0.235 N 
HETATM   48  N   UNK N   1      31.954  11.785  -3.112  0.00  0.00    -0.235 N 
HETATM   49  H   UNK N   1      33.893  13.797  -2.579  0.00  0.00     0.174 HD
ATOM     50  HN  UNK N   1      34.098  12.997  -1.167  1.00  0.00     0.174 HD
HETATM   51  H   UNK N   1      31.019  11.505  -3.241  0.00  0.00     0.174 HD
HETATM   52  H   UNK N   1      32.554  11.701  -3.888  0.00  0.00     0.174 HD
HETATM   53  H   UNK N   1      32.285  12.474   0.137  0.00  0.00     0.177 HD
ENDBRANCH  44  45
ENDBRANCH  43  44
ENDBRANCH  42  43
ENDBRANCH  41  42
BRANCH  41  54
HETATM   54  N   UNK N   1      30.995  11.257   3.664  0.00  0.00    -0.348 N 
HETATM   55  C   UNK N   1      32.036  12.063   3.309  0.00  0.00     0.214 C 
HETATM   56  O   UNK N   1      31.949  12.838   2.368  0.00  0.00    -0.274 OA
HETATM   57  C   UNK N   1      33.316  11.978   4.061  0.00  0.00     0.117 C 
HETATM   58  H   UNK N   1      31.139  10.641   4.418  0.00  0.00     0.163 HD
ENDBRANCH  41  54
ENDBRANCH  38  41
ENDBRANCH  27  37
BRANCH  22  59
HETATM   59  C   UNK N   1      27.170   8.228   2.100  0.00  0.00     0.239 C 
HETATM   60  O   UNK N   1      27.378   7.799   0.976  0.00  0.00    -0.271 OA
HETATM   61  N   UNK N   1      27.810   7.679   3.152  0.00  0.00    -0.368 N 
HETATM   62  H   UNK N   1      27.623   6.910   3.736  0.00  0.00     0.159 HD
HETATM   63  H   UNK N   1      28.645   8.148   3.384  0.00  0.00     0.159 HD
ENDBRANCH  22  59
BRANCH   6  64
HETATM   64  C   UNK N   1      23.309  16.194   5.482  0.00  0.00     0.093 C 
BRANCH  64  65
HETATM   65  C   UNK N   1      22.152  16.590   6.327  0.00  0.00     0.028 A 
HETATM   66  C   UNK N   1      21.560  17.824   6.336  0.00  0.00     0.114 A 
HETATM   67  N   UNK N   1      20.582  17.800   7.259  0.00  0.00    -0.360 N 
HETATM   68  C   UNK N   1      20.605  16.559   7.791  0.00  0.00     0.180 A 
ATOM     69  HN  UNK N   1      19.952  18.563   7.506  1.00  0.00     0.166 HD
HETATM   70  N   UNK N   1      21.564  15.795   7.235  0.00  0.00    -0.354 N 
HETATM   71  H   UNK N   1      21.786  14.860   7.446  0.00  0.00     0.166 HD
ENDBRANCH  64  65
ENDBRANCH   6  64
BRANCH  18  72
HETATM   72  C   UNK N   1      23.618   6.401   4.313  0.00  0.00     0.075 C 
BRANCH  72  73
HETATM   73  C   UNK N   1      24.002   6.436   5.757  0.00  0.00    -0.028 A 
HETATM   74  C   UNK N   1      23.155   6.803   6.798  0.00  0.00     0.096 A 
HETATM   75  N   UNK N   1      23.810   6.690   7.977  0.00  0.00    -0.365 N 
HETATM   76  C   UNK N   1      25.053   6.257   7.677  0.00  0.00     0.042 A 
HETATM   77  H   UNK N   1      23.452   6.885   8.873  0.00  0.00     0.165 HD
HETATM   78  C   UNK N   1      25.198   6.096   6.328  0.00  0.00    -0.002 A 
HETATM   79  C   UNK N   1      26.078   5.988   8.571  0.00  0.00     0.030 A 
HETATM   80  C   UNK N   1      26.398   5.651   5.771  0.00  0.00     0.014 A 
HETATM   81  C   UNK N   1      27.462   5.370   6.649  0.00  0.00     0.001 A 
HETATM   82  C   UNK N   1      27.303   5.536   8.043  0.00  0.00     0.002 A 
ENDBRANCH  72  73
ENDBRANCH  18  72
BRANCH  10  83
HETATM   83  C   UNK N   1      22.005  11.706   6.977  0.00  0.00     0.073 C 
BRANCH  83  84
HETATM   84  C   UNK N   1      22.184  11.910   8.468  0.00  0.00    -0.056 A 
HETATM   85  C   UNK N   1      23.217  11.253   9.141  0.00  0.00     0.007 A 
HETATM   86  C   UNK N   1      23.429  11.493  10.503  0.00  0.00     0.001 A 
HETATM   87  C   UNK N   1      22.618  12.400  11.194  0.00  0.00     0.000 A 
HETATM   88  C   UNK N   1      21.597  13.072  10.524  0.00  0.00     0.001 A 
HETATM   89  C   UNK N   1      21.387  12.831   9.168  0.00  0.00     0.007 A 
ENDBRANCH  83  84
ENDBRANCH  10  83
BRANCH  14  90
HETATM   90  C   UNK N   1      21.434  11.293   1.998  0.00  0.00     0.036 C 
BRANCH  90  91
HETATM   91  C   UNK N   1      20.608  12.546   2.322  0.00  0.00     0.023 C 
BRANCH  91  92
HETATM   92  C   UNK N   1      21.363  13.788   2.765  0.00  0.00     0.138 C 
BRANCH  92  93
HETATM   93  N   UNK N   1      20.599  14.487   3.763  0.00  0.00    -0.227 N 
HETATM   94  C   UNK N   1      19.761  15.580   3.428  0.00  0.00     0.665 C 
HETATM   95  N   UNK N   1      19.095  16.173   4.347  0.00  0.00    -0.235 N 
HETATM   96  N   UNK N   1      19.683  16.045   2.096  0.00  0.00    -0.235 N 
HETATM   97  H   UNK N   1      19.076  17.131   4.574  0.00  0.00     0.174 HD
ATOM     98  HN  UNK N   1      18.506  15.572   4.922  1.00  0.00     0.174 HD
HETATM   99  H   UNK N   1      19.100  15.701   1.382  0.00  0.00     0.174 HD
HETATM  100  H   UNK N   1      20.276  16.794   1.858  0.00  0.00     0.174 HD
HETATM  101  H   UNK N   1      20.658  14.199   4.702  0.00  0.00     0.177 HD
ENDBRANCH  92  93
ENDBRANCH  91  92
ENDBRANCH  90  91
ENDBRANCH  14  90
TORSDOF 18
ENDMDL
MODEL 7
REMARK VINA RESULT:      -6.8      8.718     13.636
REMARK  18 active torsions:
REMARK  status: ('A' for Active; 'I' for Inactive)
REMARK    1  A    between atoms: C_6  and  C_75 
REMARK    2  A    between atoms: C_10  and  C_68 
REMARK    3  A    between atoms: C_14  and  C_60 
REMARK    4  A    between atoms: C_18  and  C_50 
REMARK    5  A    between atoms: C_22  and  C_47 
REMARK    6  A    between atoms: C_27  and  N_31 
REMARK       I    between atoms: N_31  and  C_32 
REMARK    7  A    between atoms: C_32  and  C_34 
REMARK    8  A    between atoms: C_34  and  C_35 
REMARK    9  A    between atoms: C_34  and  N_43 
REMARK   10  A    between atoms: C_35  and  C_36 
REMARK   11  A    between atoms: C_36  and  C_37 
REMARK   12  A    between atoms: C_37  and  N_38 
REMARK       I    between atoms: N_38  and  C_39 
REMARK       I    between atoms: C_39  and  N_42 
REMARK       I    between atoms: N_43  and  C_44 
REMARK       I    between atoms: C_47  and  N_49 
REMARK   13  A    between atoms: C_50  and  C_51 
REMARK   14  A    between atoms: C_60  and  C_61 
REMARK   15  A    between atoms: C_61  and  C_62 
REMARK   16  A    between atoms: C_62  and  N_63 
REMARK       I    between atoms: N_63  and  C_64 
REMARK       I    between atoms: C_64  and  N_67 
REMARK   17  A    between atoms: C_68  and  C_69 
REMARK   18  A    between atoms: C_75  and  C_76 
ROOT
HETATM    1  C   UNK N   1      36.201   9.134  12.641  0.00  0.00     0.042 C 
HETATM    2  C   UNK N   1      34.984   9.735  11.963  0.00  0.00     0.172 C 
HETATM    3  C   UNK N   1      34.318  10.725  12.868  0.00  0.00     0.240 C 
HETATM    4  O   UNK N   1      33.768  10.329  13.886  0.00  0.00    -0.271 OA
HETATM    5  N   UNK N   1      34.268  12.044  12.577  0.00  0.00    -0.346 N 
HETATM    6  C   UNK N   1      35.064  12.727  11.580  0.00  0.00     0.182 C 
HETATM    7  C   UNK N   1      34.839  12.422  10.132  0.00  0.00     0.241 C 
HETATM    8  O   UNK N   1      35.425  11.495   9.602  0.00  0.00    -0.271 OA
HETATM    9  N   UNK N   1      34.227  13.389   9.405  0.00  0.00    -0.346 N 
HETATM   10  C   UNK N   1      34.347  13.737   7.992  0.00  0.00     0.180 C 
HETATM   11  C   UNK N   1      35.224  12.871   7.094  0.00  0.00     0.241 C 
HETATM   12  O   UNK N   1      35.061  11.665   7.077  0.00  0.00    -0.271 OA
HETATM   13  N   UNK N   1      36.134  13.453   6.254  0.00  0.00    -0.346 N 
HETATM   14  C   UNK N   1      36.953  12.704   5.325  0.00  0.00     0.176 C 
HETATM   15  C   UNK N   1      36.927  13.163   3.889  0.00  0.00     0.241 C 
HETATM   16  O   UNK N   1      37.915  13.681   3.395  0.00  0.00    -0.271 OA
HETATM   17  N   UNK N   1      35.825  13.013   3.121  0.00  0.00    -0.346 N 
HETATM   18  C   UNK N   1      34.577  12.421   3.560  0.00  0.00     0.181 C 
HETATM   19  C   UNK N   1      34.680  10.950   3.830  0.00  0.00     0.241 C 
HETATM   20  O   UNK N   1      35.160  10.195   2.998  0.00  0.00    -0.271 OA
HETATM   21  N   UNK N   1      34.109  10.468   4.962  0.00  0.00    -0.345 N 
HETATM   22  C   UNK N   1      33.914   9.064   5.261  0.00  0.00     0.186 C 
HETATM   23  C   UNK N   1      35.194   8.237   5.494  0.00  0.00     0.120 C 
HETATM   24  S   UNK N   1      36.586   9.223   6.153  0.00  0.00    -0.095 SA
HETATM   25  S   UNK N   1      36.597   8.781   8.269  0.00  0.00    -0.095 SA
HETATM   26  C   UNK N   1      34.954   8.044   8.454  0.00  0.00     0.120 C 
HETATM   27  C   UNK N   1      33.984   8.919   9.245  0.00  0.00     0.186 C 
HETATM   28  C   UNK N   1      33.497   8.335  10.560  0.00  0.00     0.241 C 
HETATM   29  O   UNK N   1      32.571   7.548  10.568  0.00  0.00    -0.271 OA
HETATM   30  N   UNK N   1      34.009   8.703  11.751  0.00  0.00    -0.346 N 
HETATM   31  H   UNK N   1      33.629  12.590  13.089  0.00  0.00     0.163 HD
HETATM   32  H   UNK N   1      33.599  13.949   9.914  0.00  0.00     0.163 HD
HETATM   33  H   UNK N   1      36.237  14.432   6.282  0.00  0.00     0.163 HD
HETATM   34  H   UNK N   1      35.875  13.330   2.191  0.00  0.00     0.163 HD
HETATM   35  H   UNK N   1      33.804  11.121   5.631  0.00  0.00     0.163 HD
HETATM   36  H   UNK N   1      33.686   8.222  12.547  0.00  0.00     0.163 HD
ENDROOT
BRANCH  27  37
HETATM   37  N   UNK N   1      32.884   9.377   8.418  0.00  0.00    -0.345 N 
HETATM   38  C   UNK N   1      31.848   8.661   7.870  0.00  0.00     0.241 C 
HETATM   39  O   UNK N   1      30.992   9.290   7.269  0.00  0.00    -0.271 OA
HETATM   40  H   UNK N   1      32.878  10.341   8.221  0.00  0.00     0.163 HD
BRANCH  38  41
HETATM   41  C   UNK N   1      31.645   7.135   7.972  0.00  0.00     0.176 C 
BRANCH  41  42
HETATM   42  C   UNK N   1      32.535   6.133   7.236  0.00  0.00     0.036 C 
BRANCH  42  43
HETATM   43  C   UNK N   1      32.466   4.728   7.800  0.00  0.00     0.023 C 
BRANCH  43  44
HETATM   44  C   UNK N   1      33.320   4.527   9.033  0.00  0.00     0.138 C 
BRANCH  44  45
HETATM   45  N   UNK N   1      32.503   4.345  10.213  0.00  0.00    -0.227 N 
HETATM   46  C   UNK N   1      32.996   4.492  11.540  0.00  0.00     0.665 C 
HETATM   47  N   UNK N   1      32.259   4.142  12.528  0.00  0.00    -0.235 N 
HETATM   48  N   UNK N   1      34.265   5.065  11.790  0.00  0.00    -0.235 N 
HETATM   49  H   UNK N   1      32.069   4.380  13.463  0.00  0.00     0.174 HD
ATOM     50  HN  UNK N   1      31.676   3.352  12.253  1.00  0.00     0.174 HD
HETATM   51  H   UNK N   1      34.739   5.707  11.214  0.00  0.00     0.174 HD
HETATM   52  H   UNK N   1      34.718   4.794  12.621  0.00  0.00     0.174 HD
HETATM   53  H   UNK N   1      31.556   4.107  10.091  0.00  0.00     0.177 HD
ENDBRANCH  44  45
ENDBRANCH  43  44
ENDBRANCH  42  43
ENDBRANCH  41  42
BRANCH  41  54
HETATM   54  N   UNK N   1      30.237   6.760   7.955  0.00  0.00    -0.348 N 
HETATM   55  C   UNK N   1      29.544   6.239   9.008  0.00  0.00     0.214 C 
HETATM   56  O   UNK N   1      30.086   6.019  10.082  0.00  0.00    -0.274 OA
HETATM   57  C   UNK N   1      28.105   5.904   8.842  0.00  0.00     0.117 C 
HETATM   58  H   UNK N   1      29.745   6.892   7.114  0.00  0.00     0.163 HD
ENDBRANCH  41  54
ENDBRANCH  38  41
ENDBRANCH  27  37
BRANCH  22  59
HETATM   59  C   UNK N   1      32.971   8.479   4.248  0.00  0.00     0.239 C 
HETATM   60  O   UNK N   1      31.833   8.912   4.165  0.00  0.00    -0.271 OA
HETATM   61  N   UNK N   1      33.405   7.572   3.349  0.00  0.00    -0.368 N 
HETATM   62  H   UNK N   1      33.356   6.590   3.297  0.00  0.00     0.159 HD
HETATM   63  H   UNK N   1      33.869   7.978   2.582  0.00  0.00     0.159 HD
ENDBRANCH  22  59
BRANCH   6  64
HETATM   64  C   UNK N   1      36.550  12.729  11.925  0.00  0.00     0.093 C 
BRANCH  64  65
HETATM   65  C   UNK N   1      36.778  13.342  13.260  0.00  0.00     0.028 A 
HETATM   66  C   UNK N   1      37.120  12.662  14.398  0.00  0.00     0.114 A 
HETATM   67  N   UNK N   1      37.193  13.557  15.400  0.00  0.00    -0.360 N 
HETATM   68  C   UNK N   1      36.892  14.753  14.851  0.00  0.00     0.180 A 
ATOM     69  HN  UNK N   1      37.427  13.370  16.374  1.00  0.00     0.166 HD
HETATM   70  N   UNK N   1      36.631  14.647  13.534  0.00  0.00    -0.354 N 
HETATM   71  H   UNK N   1      36.387  15.368  12.909  0.00  0.00     0.166 HD
ENDBRANCH  64  65
ENDBRANCH   6  64
BRANCH  18  72
HETATM   72  C   UNK N   1      33.449  12.693   2.556  0.00  0.00     0.075 C 
BRANCH  72  73
HETATM   73  C   UNK N   1      32.343  13.529   3.115  0.00  0.00    -0.028 A 
HETATM   74  C   UNK N   1      31.037  13.093   3.315  0.00  0.00     0.096 A 
HETATM   75  N   UNK N   1      30.305  14.088   3.867  0.00  0.00    -0.365 N 
HETATM   76  C   UNK N   1      31.144  15.136   4.012  0.00  0.00     0.042 A 
HETATM   77  H   UNK N   1      29.353  14.054   4.113  0.00  0.00     0.165 HD
HETATM   78  C   UNK N   1      32.394  14.823   3.558  0.00  0.00    -0.002 A 
HETATM   79  C   UNK N   1      30.838  16.378   4.547  0.00  0.00     0.030 A 
HETATM   80  C   UNK N   1      33.440  15.746   3.607  0.00  0.00     0.014 A 
HETATM   81  C   UNK N   1      33.165  17.018   4.141  0.00  0.00     0.001 A 
HETATM   82  C   UNK N   1      31.870  17.333   4.611  0.00  0.00     0.002 A 
ENDBRANCH  72  73
ENDBRANCH  18  72
BRANCH  10  83
HETATM   83  C   UNK N   1      34.908  15.169   7.996  0.00  0.00     0.073 C 
BRANCH  83  84
HETATM   84  C   UNK N   1      33.775  16.175   8.043  0.00  0.00    -0.056 A 
HETATM   85  C   UNK N   1      32.452  15.730   8.087  0.00  0.00     0.007 A 
HETATM   86  C   UNK N   1      31.406  16.653   8.202  0.00  0.00     0.001 A 
HETATM   87  C   UNK N   1      31.681  18.023   8.286  0.00  0.00     0.000 A 
HETATM   88  C   UNK N   1      33.000  18.471   8.261  0.00  0.00     0.001 A 
HETATM   89  C   UNK N   1      34.040  17.551   8.145  0.00  0.00     0.007 A 
ENDBRANCH  83  84
ENDBRANCH  10  83
BRANCH  14  90
HETATM   90  C   UNK N   1      38.190  11.996   5.887  0.00  0.00     0.036 C 
BRANCH  90  91
HETATM   91  C   UNK N   1      38.847  12.494   7.183  0.00  0.00     0.023 C 
BRANCH  91  92
HETATM   92  C   UNK N   1      39.505  13.863   7.155  0.00  0.00     0.138 C 
BRANCH  92  93
HETATM   93  N   UNK N   1      40.891  13.726   6.795  0.00  0.00    -0.227 N 
HETATM   94  C   UNK N   1      41.373  14.124   5.524  0.00  0.00     0.665 C 
HETATM   95  N   UNK N   1      42.615  13.987   5.246  0.00  0.00    -0.235 N 
HETATM   96  N   UNK N   1      40.489  14.634   4.546  0.00  0.00    -0.235 N 
HETATM   97  H   UNK N   1      43.028  13.524   4.481  0.00  0.00     0.174 HD
ATOM     98  HN  UNK N   1      43.264  14.416   5.905  1.00  0.00     0.174 HD
HETATM   99  H   UNK N   1      40.189  15.566   4.448  0.00  0.00     0.174 HD
HETATM  100  H   UNK N   1      40.135  13.986   3.894  0.00  0.00     0.174 HD
HETATM  101  H   UNK N   1      41.521  13.348   7.450  0.00  0.00     0.177 HD
ENDBRANCH  92  93
ENDBRANCH  91  92
ENDBRANCH  90  91
ENDBRANCH  14  90
TORSDOF 18
ENDMDL
MODEL 8
REMARK VINA RESULT:      -6.6      9.932     15.074
REMARK  18 active torsions:
REMARK  status: ('A' for Active; 'I' for Inactive)
REMARK    1  A    between atoms: C_6  and  C_75 
REMARK    2  A    between atoms: C_10  and  C_68 
REMARK    3  A    between atoms: C_14  and  C_60 
REMARK    4  A    between atoms: C_18  and  C_50 
REMARK    5  A    between atoms: C_22  and  C_47 
REMARK    6  A    between atoms: C_27  and  N_31 
REMARK       I    between atoms: N_31  and  C_32 
REMARK    7  A    between atoms: C_32  and  C_34 
REMARK    8  A    between atoms: C_34  and  C_35 
REMARK    9  A    between atoms: C_34  and  N_43 
REMARK   10  A    between atoms: C_35  and  C_36 
REMARK   11  A    between atoms: C_36  and  C_37 
REMARK   12  A    between atoms: C_37  and  N_38 
REMARK       I    between atoms: N_38  and  C_39 
REMARK       I    between atoms: C_39  and  N_42 
REMARK       I    between atoms: N_43  and  C_44 
REMARK       I    between atoms: C_47  and  N_49 
REMARK   13  A    between atoms: C_50  and  C_51 
REMARK   14  A    between atoms: C_60  and  C_61 
REMARK   15  A    between atoms: C_61  and  C_62 
REMARK   16  A    between atoms: C_62  and  N_63 
REMARK       I    between atoms: N_63  and  C_64 
REMARK       I    between atoms: C_64  and  N_67 
REMARK   17  A    between atoms: C_68  and  C_69 
REMARK   18  A    between atoms: C_75  and  C_76 
ROOT
HETATM    1  C   UNK N   1      34.383   7.470   4.046  0.00  0.00     0.042 C 
HETATM    2  C   UNK N   1      33.956   7.663   5.489  0.00  0.00     0.172 C 
HETATM    3  C   UNK N   1      34.049   6.368   6.237  0.00  0.00     0.240 C 
HETATM    4  O   UNK N   1      33.284   5.458   5.952  0.00  0.00    -0.271 OA
HETATM    5  N   UNK N   1      34.925   6.185   7.249  0.00  0.00    -0.346 N 
HETATM    6  C   UNK N   1      36.062   7.027   7.555  0.00  0.00     0.182 C 
HETATM    7  C   UNK N   1      35.827   8.422   8.043  0.00  0.00     0.241 C 
HETATM    8  O   UNK N   1      35.684   9.334   7.247  0.00  0.00    -0.271 OA
HETATM    9  N   UNK N   1      36.095   8.652   9.351  0.00  0.00    -0.346 N 
HETATM   10  C   UNK N   1      36.548   9.861  10.032  0.00  0.00     0.180 C 
HETATM   11  C   UNK N   1      36.694  11.147   9.226  0.00  0.00     0.241 C 
HETATM   12  O   UNK N   1      35.766  11.536   8.542  0.00  0.00    -0.271 OA
HETATM   13  N   UNK N   1      37.832  11.900   9.332  0.00  0.00    -0.346 N 
HETATM   14  C   UNK N   1      38.016  13.164   8.653  0.00  0.00     0.176 C 
HETATM   15  C   UNK N   1      38.440  14.329   9.510  0.00  0.00     0.241 C 
HETATM   16  O   UNK N   1      39.559  14.799   9.393  0.00  0.00    -0.271 OA
HETATM   17  N   UNK N   1      37.601  14.879  10.416  0.00  0.00    -0.346 N 
HETATM   18  C   UNK N   1      36.245  14.435  10.674  0.00  0.00     0.181 C 
HETATM   19  C   UNK N   1      35.307  14.699   9.536  0.00  0.00     0.241 C 
HETATM   20  O   UNK N   1      35.230  15.812   9.037  0.00  0.00    -0.271 OA
HETATM   21  N   UNK N   1      34.458  13.709   9.165  0.00  0.00    -0.345 N 
HETATM   22  C   UNK N   1      33.344  13.867   8.254  0.00  0.00     0.186 C 
HETATM   23  C   UNK N   1      33.706  14.173   6.787  0.00  0.00     0.120 C 
HETATM   24  S   UNK N   1      35.330  13.499   6.284  0.00  0.00    -0.095 SA
HETATM   25  S   UNK N   1      34.844  11.698   5.193  0.00  0.00    -0.095 SA
HETATM   26  C   UNK N   1      33.124  11.462   5.707  0.00  0.00     0.120 C 
HETATM   27  C   UNK N   1      32.926  10.254   6.619  0.00  0.00     0.186 C 
HETATM   28  C   UNK N   1      32.054   9.144   6.059  0.00  0.00     0.241 C 
HETATM   29  O   UNK N   1      30.844   9.224   6.140  0.00  0.00    -0.271 OA
HETATM   30  N   UNK N   1      32.567   8.019   5.522  0.00  0.00    -0.346 N 
HETATM   31  H   UNK N   1      34.776   5.407   7.833  0.00  0.00     0.163 HD
HETATM   32  H   UNK N   1      35.963   7.874   9.939  0.00  0.00     0.163 HD
HETATM   33  H   UNK N   1      38.563  11.564   9.901  0.00  0.00     0.163 HD
HETATM   34  H   UNK N   1      37.937  15.640  10.941  0.00  0.00     0.163 HD
HETATM   35  H   UNK N   1      34.611  12.814   9.545  0.00  0.00     0.163 HD
HETATM   36  H   UNK N   1      31.932   7.385   5.117  0.00  0.00     0.163 HD
ENDROOT
BRANCH  27  37
HETATM   37  N   UNK N   1      32.503  10.654   7.948  0.00  0.00    -0.345 N 
HETATM   38  C   UNK N   1      32.264   9.880   9.057  0.00  0.00     0.241 C 
HETATM   39  O   UNK N   1      31.990  10.462  10.094  0.00  0.00    -0.271 OA
HETATM   40  H   UNK N   1      32.369  11.621   8.074  0.00  0.00     0.163 HD
BRANCH  38  41
HETATM   41  C   UNK N   1      32.343   8.340   9.124  0.00  0.00     0.176 C 
BRANCH  41  42
HETATM   42  C   UNK N   1      31.158   7.439   8.781  0.00  0.00     0.036 C 
BRANCH  42  43
HETATM   43  C   UNK N   1      30.151   7.303   9.905  0.00  0.00     0.023 C 
BRANCH  43  44
HETATM   44  C   UNK N   1      29.295   6.058   9.805  0.00  0.00     0.138 C 
BRANCH  44  45
HETATM   45  N   UNK N   1      28.082   6.314   9.059  0.00  0.00    -0.227 N 
HETATM   46  C   UNK N   1      26.990   5.402   8.998  0.00  0.00     0.665 C 
HETATM   47  N   UNK N   1      26.032   5.621   8.177  0.00  0.00    -0.235 N 
HETATM   48  N   UNK N   1      26.921   4.285   9.864  0.00  0.00    -0.235 N 
HETATM   49  H   UNK N   1      25.061   5.492   8.081  0.00  0.00     0.174 HD
ATOM     50  HN  UNK N   1      26.397   6.082   7.344  1.00  0.00     0.174 HD
HETATM   51  H   UNK N   1      27.334   4.210  10.754  0.00  0.00     0.174 HD
HETATM   52  H   UNK N   1      26.410   3.507   9.544  0.00  0.00     0.174 HD
HETATM   53  H   UNK N   1      28.009   7.163   8.568  0.00  0.00     0.177 HD
ENDBRANCH  44  45
ENDBRANCH  43  44
ENDBRANCH  42  43
ENDBRANCH  41  42
BRANCH  41  54
HETATM   54  N   UNK N   1      33.092   7.873  10.283  0.00  0.00    -0.348 N 
HETATM   55  C   UNK N   1      33.555   6.604  10.467  0.00  0.00     0.214 C 
HETATM   56  O   UNK N   1      33.343   5.723   9.646  0.00  0.00    -0.274 OA
HETATM   57  C   UNK N   1      34.308   6.272  11.706  0.00  0.00     0.117 C 
HETATM   58  H   UNK N   1      33.280   8.528  10.993  0.00  0.00     0.163 HD
ENDBRANCH  41  54
ENDBRANCH  38  41
ENDBRANCH  27  37
BRANCH  22  59
HETATM   59  C   UNK N   1      32.352  14.818   8.861  0.00  0.00     0.239 C 
HETATM   60  O   UNK N   1      31.560  15.403   8.138  0.00  0.00    -0.271 OA
HETATM   61  N   UNK N   1      32.244  14.938  10.200  0.00  0.00    -0.368 N 
HETATM   62  H   UNK N   1      32.588  15.587  10.854  0.00  0.00     0.159 HD
HETATM   63  H   UNK N   1      31.706  14.222  10.610  0.00  0.00     0.159 HD
ENDBRANCH  22  59
BRANCH   6  64
HETATM   64  C   UNK N   1      37.122   6.991   6.459  0.00  0.00     0.093 C 
BRANCH  64  65
HETATM   65  C   UNK N   1      38.418   6.497   6.997  0.00  0.00     0.028 A 
HETATM   66  C   UNK N   1      39.230   5.576   6.392  0.00  0.00     0.114 A 
HETATM   67  N   UNK N   1      40.279   5.361   7.206  0.00  0.00    -0.360 N 
HETATM   68  C   UNK N   1      40.079   6.150   8.283  0.00  0.00     0.180 A 
ATOM     69  HN  UNK N   1      41.064   4.732   7.042  1.00  0.00     0.166 HD
HETATM   70  N   UNK N   1      38.939   6.859   8.179  0.00  0.00    -0.354 N 
HETATM   71  H   UNK N   1      38.569   7.501   8.827  0.00  0.00     0.166 HD
ENDBRANCH  64  65
ENDBRANCH   6  64
BRANCH  18  72
HETATM   72  C   UNK N   1      35.693  15.055  11.965  0.00  0.00     0.075 C 
BRANCH  72  73
HETATM   73  C   UNK N   1      35.804  14.154  13.153  0.00  0.00    -0.028 A 
HETATM   74  C   UNK N   1      36.437  14.485  14.347  0.00  0.00     0.096 A 
HETATM   75  N   UNK N   1      36.322  13.458  15.221  0.00  0.00    -0.365 N 
HETATM   76  C   UNK N   1      35.623  12.496  14.581  0.00  0.00     0.042 A 
HETATM   77  H   UNK N   1      36.676  13.421  16.138  0.00  0.00     0.165 HD
HETATM   78  C   UNK N   1      35.297  12.894  13.316  0.00  0.00    -0.002 A 
HETATM   79  C   UNK N   1      35.253  11.260  15.089  0.00  0.00     0.030 A 
HETATM   80  C   UNK N   1      34.567  12.069  12.457  0.00  0.00     0.014 A 
HETATM   81  C   UNK N   1      34.177  10.806  12.939  0.00  0.00     0.001 A 
HETATM   82  C   UNK N   1      34.516  10.403  14.250  0.00  0.00     0.002 A 
ENDBRANCH  72  73
ENDBRANCH  18  72
BRANCH  10  83
HETATM   83  C   UNK N   1      37.922   9.483  10.610  0.00  0.00     0.073 C 
BRANCH  83  84
HETATM   84  C   UNK N   1      37.822   9.278  12.109  0.00  0.00    -0.056 A 
HETATM   85  C   UNK N   1      37.332   8.071  12.613  0.00  0.00     0.007 A 
HETATM   86  C   UNK N   1      37.303   7.849  13.994  0.00  0.00     0.001 A 
HETATM   87  C   UNK N   1      37.774   8.829  14.876  0.00  0.00     0.000 A 
HETATM   88  C   UNK N   1      38.281  10.028  14.378  0.00  0.00     0.001 A 
HETATM   89  C   UNK N   1      38.308  10.247  13.002  0.00  0.00     0.007 A 
ENDBRANCH  83  84
ENDBRANCH  10  83
BRANCH  14  90
HETATM   90  C   UNK N   1      38.397  13.119   7.169  0.00  0.00     0.036 C 
BRANCH  90  91
HETATM   91  C   UNK N   1      38.837  11.798   6.521  0.00  0.00     0.023 C 
BRANCH  91  92
HETATM   92  C   UNK N   1      40.302  11.411   6.641  0.00  0.00     0.138 C 
BRANCH  92  93
HETATM   93  N   UNK N   1      40.440  10.322   7.569  0.00  0.00    -0.227 N 
HETATM   94  C   UNK N   1      41.430  10.330   8.583  0.00  0.00     0.665 C 
HETATM   95  N   UNK N   1      41.517   9.342   9.392  0.00  0.00    -0.235 N 
HETATM   96  N   UNK N   1      42.346  11.401   8.686  0.00  0.00    -0.235 N 
HETATM   97  H   UNK N   1      42.302   8.786   9.604  0.00  0.00     0.174 HD
ATOM     98  HN  UNK N   1      40.657   9.096   9.882  1.00  0.00     0.174 HD
HETATM   99  H   UNK N   1      42.210  12.254   9.159  0.00  0.00     0.174 HD
HETATM  100  H   UNK N   1      43.214  11.281   8.236  0.00  0.00     0.174 HD
HETATM  101  H   UNK N   1      39.831   9.552   7.500  0.00  0.00     0.177 HD
ENDBRANCH  92  93
ENDBRANCH  91  92
ENDBRANCH  90  91
ENDBRANCH  14  90
TORSDOF 18
ENDMDL
MODEL 9
REMARK VINA RESULT:      -6.6      8.612     12.902
REMARK  18 active torsions:
REMARK  status: ('A' for Active; 'I' for Inactive)
REMARK    1  A    between atoms: C_6  and  C_75 
REMARK    2  A    between atoms: C_10  and  C_68 
REMARK    3  A    between atoms: C_14  and  C_60 
REMARK    4  A    between atoms: C_18  and  C_50 
REMARK    5  A    between atoms: C_22  and  C_47 
REMARK    6  A    between atoms: C_27  and  N_31 
REMARK       I    between atoms: N_31  and  C_32 
REMARK    7  A    between atoms: C_32  and  C_34 
REMARK    8  A    between atoms: C_34  and  C_35 
REMARK    9  A    between atoms: C_34  and  N_43 
REMARK   10  A    between atoms: C_35  and  C_36 
REMARK   11  A    between atoms: C_36  and  C_37 
REMARK   12  A    between atoms: C_37  and  N_38 
REMARK       I    between atoms: N_38  and  C_39 
REMARK       I    between atoms: C_39  and  N_42 
REMARK       I    between atoms: N_43  and  C_44 
REMARK       I    between atoms: C_47  and  N_49 
REMARK   13  A    between atoms: C_50  and  C_51 
REMARK   14  A    between atoms: C_60  and  C_61 
REMARK   15  A    between atoms: C_61  and  C_62 
REMARK   16  A    between atoms: C_62  and  N_63 
REMARK       I    between atoms: N_63  and  C_64 
REMARK       I    between atoms: C_64  and  N_67 
REMARK   17  A    between atoms: C_68  and  C_69 
REMARK   18  A    between atoms: C_75  and  C_76 
ROOT
HETATM    1  C   UNK N   1      35.918   8.781  12.243  0.00  0.00     0.042 C 
HETATM    2  C   UNK N   1      34.742   9.477  11.585  0.00  0.00     0.172 C 
HETATM    3  C   UNK N   1      34.145  10.486  12.519  0.00  0.00     0.240 C 
HETATM    4  O   UNK N   1      33.573  10.100  13.528  0.00  0.00    -0.271 OA
HETATM    5  N   UNK N   1      34.181  11.812  12.261  0.00  0.00    -0.346 N 
HETATM    6  C   UNK N   1      35.018  12.467  11.279  0.00  0.00     0.182 C 
HETATM    7  C   UNK N   1      34.769  12.215   9.824  0.00  0.00     0.241 C 
HETATM    8  O   UNK N   1      35.292  11.265   9.268  0.00  0.00    -0.271 OA
HETATM    9  N   UNK N   1      34.221  13.238   9.125  0.00  0.00    -0.346 N 
HETATM   10  C   UNK N   1      34.360  13.614   7.721  0.00  0.00     0.180 C 
HETATM   11  C   UNK N   1      35.175  12.715   6.798  0.00  0.00     0.241 C 
HETATM   12  O   UNK N   1      34.934  11.524   6.751  0.00  0.00    -0.271 OA
HETATM   13  N   UNK N   1      36.120  13.258   5.968  0.00  0.00    -0.346 N 
HETATM   14  C   UNK N   1      36.885  12.481   5.017  0.00  0.00     0.176 C 
HETATM   15  C   UNK N   1      36.886  12.978   3.594  0.00  0.00     0.241 C 
HETATM   16  O   UNK N   1      37.905  13.442   3.109  0.00  0.00    -0.271 OA
HETATM   17  N   UNK N   1      35.775  12.920   2.827  0.00  0.00    -0.346 N 
HETATM   18  C   UNK N   1      34.491  12.400   3.256  0.00  0.00     0.181 C 
HETATM   19  C   UNK N   1      34.498  10.920   3.488  0.00  0.00     0.241 C 
HETATM   20  O   UNK N   1      34.925  10.157   2.634  0.00  0.00    -0.271 OA
HETATM   21  N   UNK N   1      33.899  10.447   4.609  0.00  0.00    -0.345 N 
HETATM   22  C   UNK N   1      33.613   9.052   4.873  0.00  0.00     0.186 C 
HETATM   23  C   UNK N   1      34.836   8.137   5.079  0.00  0.00     0.120 C 
HETATM   24  S   UNK N   1      36.293   9.012   5.758  0.00  0.00    -0.095 SA
HETATM   25  S   UNK N   1      36.279   8.515   7.861  0.00  0.00    -0.095 SA
HETATM   26  C   UNK N   1      34.592   7.883   8.035  0.00  0.00     0.120 C 
HETATM   27  C   UNK N   1      33.684   8.799   8.852  0.00  0.00     0.186 C 
HETATM   28  C   UNK N   1      33.163   8.215  10.154  0.00  0.00     0.241 C 
HETATM   29  O   UNK N   1      32.187   7.491  10.146  0.00  0.00    -0.271 OA
HETATM   30  N   UNK N   1      33.701   8.518  11.351  0.00  0.00    -0.346 N 
HETATM   31  H   UNK N   1      33.581  12.385  12.790  0.00  0.00     0.163 HD
HETATM   32  H   UNK N   1      33.632  13.825   9.651  0.00  0.00     0.163 HD
HETATM   33  H   UNK N   1      36.287  14.227   6.022  0.00  0.00     0.163 HD
HETATM   34  H   UNK N   1      35.843  13.257   1.905  0.00  0.00     0.163 HD
HETATM   35  H   UNK N   1      33.639  11.102   5.296  0.00  0.00     0.163 HD
HETATM   36  H   UNK N   1      33.349   8.038  12.136  0.00  0.00     0.163 HD
ENDROOT
BRANCH  27  37
HETATM   37  N   UNK N   1      32.614   9.349   8.041  0.00  0.00    -0.345 N 
HETATM   38  C   UNK N   1      31.534   8.717   7.476  0.00  0.00     0.241 C 
HETATM   39  O   UNK N   1      30.719   9.416   6.896  0.00  0.00    -0.271 OA
HETATM   40  H   UNK N   1      32.670  10.317   7.872  0.00  0.00     0.163 HD
BRANCH  38  41
HETATM   41  C   UNK N   1      31.233   7.205   7.537  0.00  0.00     0.176 C 
BRANCH  41  42
HETATM   42  C   UNK N   1      31.725   6.224   6.472  0.00  0.00     0.036 C 
BRANCH  42  43
HETATM   43  C   UNK N   1      30.665   5.848   5.455  0.00  0.00     0.023 C 
BRANCH  43  44
HETATM   44  C   UNK N   1      31.023   4.632   4.627  0.00  0.00     0.138 C 
BRANCH  44  45
HETATM   45  N   UNK N   1      31.657   5.013   3.385  0.00  0.00    -0.227 N 
HETATM   46  C   UNK N   1      32.682   4.247   2.759  0.00  0.00     0.665 C 
HETATM   47  N   UNK N   1      33.314   4.738   1.760  0.00  0.00    -0.235 N 
HETATM   48  N   UNK N   1      32.979   2.933   3.191  0.00  0.00    -0.235 N 
HETATM   49  H   UNK N   1      33.755   4.466   0.923  0.00  0.00     0.174 HD
ATOM     50  HN  UNK N   1      33.386   5.750   1.867  1.00  0.00     0.174 HD
HETATM   51  H   UNK N   1      32.361   2.311   3.637  0.00  0.00     0.174 HD
HETATM   52  H   UNK N   1      33.895   2.610   3.029  0.00  0.00     0.174 HD
HETATM   53  H   UNK N   1      31.365   5.845   2.949  0.00  0.00     0.177 HD
ENDBRANCH  44  45
ENDBRANCH  43  44
ENDBRANCH  42  43
ENDBRANCH  41  42
BRANCH  41  54
HETATM   54  N   UNK N   1      29.873   6.926   7.978  0.00  0.00    -0.348 N 
HETATM   55  C   UNK N   1      29.499   5.888   8.780  0.00  0.00     0.214 C 
HETATM   56  O   UNK N   1      30.312   5.068   9.182  0.00  0.00    -0.274 OA
HETATM   57  C   UNK N   1      28.068   5.729   9.150  0.00  0.00     0.117 C 
HETATM   58  H   UNK N   1      29.166   7.537   7.673  0.00  0.00     0.163 HD
ENDBRANCH  41  54
ENDBRANCH  38  41
ENDBRANCH  27  37
BRANCH  22  59
HETATM   59  C   UNK N   1      32.631   8.556   3.850  0.00  0.00     0.239 C 
HETATM   60  O   UNK N   1      32.950   7.643   3.104  0.00  0.00    -0.271 OA
HETATM   61  N   UNK N   1      31.365   9.020   3.830  0.00  0.00    -0.368 N 
HETATM   62  H   UNK N   1      30.898   9.698   3.291  0.00  0.00     0.159 HD
HETATM   63  H   UNK N   1      30.784   8.588   4.498  0.00  0.00     0.159 HD
ENDBRANCH  22  59
BRANCH   6  64
HETATM   64  C   UNK N   1      36.501  12.362  11.617  0.00  0.00     0.093 C 
BRANCH  64  65
HETATM   65  C   UNK N   1      36.773  12.919  12.969  0.00  0.00     0.028 A 
HETATM   66  C   UNK N   1      37.180  12.197  14.058  0.00  0.00     0.114 A 
HETATM   67  N   UNK N   1      37.274  13.046  15.097  0.00  0.00    -0.360 N 
HETATM   68  C   UNK N   1      36.919  14.258  14.619  0.00  0.00     0.180 A 
ATOM     69  HN  UNK N   1      37.556  12.821  16.051  1.00  0.00     0.166 HD
HETATM   70  N   UNK N   1      36.604  14.206  13.310  0.00  0.00    -0.354 N 
HETATM   71  H   UNK N   1      36.315  14.947  12.731  0.00  0.00     0.166 HD
ENDBRANCH  64  65
ENDBRANCH   6  64
BRANCH  18  72
HETATM   72  C   UNK N   1      33.381  12.772   2.264  0.00  0.00     0.075 C 
BRANCH  72  73
HETATM   73  C   UNK N   1      32.295  13.603   2.869  0.00  0.00    -0.028 A 
HETATM   74  C   UNK N   1      30.980  13.187   3.049  0.00  0.00     0.096 A 
HETATM   75  N   UNK N   1      30.272  14.169   3.654  0.00  0.00    -0.365 N 
HETATM   76  C   UNK N   1      31.135  15.188   3.851  0.00  0.00     0.042 A 
HETATM   77  H   UNK N   1      29.320  14.144   3.901  0.00  0.00     0.165 HD
HETATM   78  C   UNK N   1      32.377  14.870   3.379  0.00  0.00    -0.002 A 
HETATM   79  C   UNK N   1      30.859  16.407   4.451  0.00  0.00     0.030 A 
HETATM   80  C   UNK N   1      33.445  15.765   3.472  0.00  0.00     0.014 A 
HETATM   81  C   UNK N   1      33.200  17.014   4.073  0.00  0.00     0.001 A 
HETATM   82  C   UNK N   1      31.913  17.334   4.562  0.00  0.00     0.002 A 
ENDBRANCH  72  73
ENDBRANCH  18  72
BRANCH  10  83
HETATM   83  C   UNK N   1      35.014  15.005   7.759  0.00  0.00     0.073 C 
BRANCH  83  84
HETATM   84  C   UNK N   1      33.960  16.073   7.974  0.00  0.00    -0.056 A 
HETATM   85  C   UNK N   1      34.333  17.419   8.012  0.00  0.00     0.007 A 
HETATM   86  C   UNK N   1      33.356  18.413   8.141  0.00  0.00     0.001 A 
HETATM   87  C   UNK N   1      32.002  18.065   8.219  0.00  0.00     0.000 A 
HETATM   88  C   UNK N   1      31.623  16.725   8.164  0.00  0.00     0.001 A 
HETATM   89  C   UNK N   1      32.598  15.737   8.037  0.00  0.00     0.007 A 
ENDBRANCH  83  84
ENDBRANCH  10  83
BRANCH  14  90
HETATM   90  C   UNK N   1      38.075  11.679   5.556  0.00  0.00     0.036 C 
BRANCH  90  91
HETATM   91  C   UNK N   1      38.575  11.903   6.990  0.00  0.00     0.023 C 
BRANCH  91  92
HETATM   92  C   UNK N   1      39.449  13.119   7.247  0.00  0.00     0.138 C 
BRANCH  92  93
HETATM   93  N   UNK N   1      38.726  14.075   8.041  0.00  0.00    -0.227 N 
HETATM   94  C   UNK N   1      38.721  14.014   9.456  0.00  0.00     0.665 C 
HETATM   95  N   UNK N   1      38.067  14.888  10.125  0.00  0.00    -0.235 N 
HETATM   96  N   UNK N   1      39.398  12.976  10.135  0.00  0.00    -0.235 N 
HETATM   97  H   UNK N   1      37.376  14.747  10.814  0.00  0.00     0.174 HD
ATOM     98  HN  UNK N   1      38.290  15.861   9.917  1.00  0.00     0.174 HD
HETATM   99  H   UNK N   1      40.349  12.955  10.386  0.00  0.00     0.174 HD
HETATM  100  H   UNK N   1      38.860  12.189  10.382  0.00  0.00     0.174 HD
HETATM  101  H   UNK N   1      38.225  14.792   7.590  0.00  0.00     0.177 HD
ENDBRANCH  92  93
ENDBRANCH  91  92
ENDBRANCH  90  91
ENDBRANCH  14  90
TORSDOF 18
ENDMDL
