MODEL 1
REMARK VINA RESULT:      -7.1      0.000      0.000
REMARK  17 active torsions:
REMARK  status: ('A' for Active; 'I' for Inactive)
REMARK    1  A    between atoms: C_3  and  C_2 
REMARK    2  A    between atoms: C_11  and  C_81 
REMARK    3  A    between atoms: C_15  and  C_78 
REMARK    4  A    between atoms: C_19  and  C_73 
REMARK    5  A    between atoms: C_31  and  C_66 
REMARK    6  A    between atoms: C_35  and  C_61 
REMARK    7  A    between atoms: C_39  and  C_57 
REMARK    8  A    between atoms: C_43  and  C_47 
REMARK    9  A    between atoms: C_47  and  C_48 
REMARK   10  A    between atoms: C_47  and  O_55 
REMARK   11  A    between atoms: C_48  and  C_50 
REMARK   12  A    between atoms: C_50  and  C_51 
REMARK   13  A    between atoms: C_52  and  C_53 
REMARK   14  A    between atoms: C_61  and  C_62 
REMARK   15  A    between atoms: C_66  and  C_67 
REMARK   16  A    between atoms: C_73  and  C_74 
REMARK   17  A    between atoms: C_81  and  C_82 
ROOT
HETATM    1  C   UNK N   1      25.147  18.389   5.080  0.00  0.00     0.176 C 
HETATM    2  C   UNK N   1      24.200  17.659   4.134  0.00  0.00     0.242 C 
HETATM    3  O   UNK N   1      23.198  18.282   3.783  0.00  0.00    -0.271 OA
HETATM    4  N   UNK N   1      24.334  16.358   3.706  0.00  0.00    -0.346 N 
HETATM    5  C   UNK N   1      23.253  15.714   3.040  0.00  0.00     0.228 C 
HETATM    6  C   UNK N   1      22.099  15.574   3.996  0.00  0.00     0.238 C 
HETATM    7  O   UNK N   1      21.068  16.132   3.696  0.00  0.00    -0.272 OA
HETATM    8  N   UNK N   1      22.195  14.820   5.152  0.00  0.00    -0.342 N 
HETATM    9  C   UNK N   1      21.011  14.419   5.911  0.00  0.00     0.179 C 
HETATM   10  C   UNK N   1      20.389  13.305   5.158  0.00  0.00     0.241 C 
HETATM   11  O   UNK N   1      20.228  13.454   3.959  0.00  0.00    -0.271 OA
HETATM   12  N   UNK N   1      20.317  12.070   5.720  0.00  0.00    -0.346 N 
HETATM   13  C   UNK N   1      20.335  10.872   4.897  0.00  0.00     0.180 C 
HETATM   14  C   UNK N   1      21.710  10.870   4.197  0.00  0.00     0.243 C 
HETATM   15  O   UNK N   1      22.603  11.513   4.733  0.00  0.00    -0.271 OA
HETATM   16  N   UNK N   1      22.007  10.201   3.048  0.00  0.00    -0.341 N 
HETATM   17  C   UNK N   1      21.238   9.062   2.639  0.00  0.00     0.179 C 
HETATM   18  C   UNK N   1      21.870   7.789   3.026  0.00  0.00     0.241 C 
HETATM   19  O   UNK N   1      21.875   7.485   4.207  0.00  0.00    -0.271 OA
HETATM   20  N   UNK N   1      22.459   7.000   2.097  0.00  0.00    -0.346 N 
HETATM   21  C   UNK N   1      23.114   5.760   2.437  0.00  0.00     0.172 C 
HETATM   22  C   UNK N   1      24.352   5.975   3.253  0.00  0.00     0.240 C 
HETATM   23  O   UNK N   1      24.308   6.509   4.353  0.00  0.00    -0.271 OA
HETATM   24  N   UNK N   1      25.512   5.506   2.768  0.00  0.00    -0.346 N 
HETATM   25  C   UNK N   1      26.733   5.529   3.517  0.00  0.00     0.172 C 
HETATM   26  C   UNK N   1      27.480   6.838   3.525  0.00  0.00     0.242 C 
HETATM   27  O   UNK N   1      28.182   7.043   4.503  0.00  0.00    -0.271 OA
HETATM   28  N   UNK N   1      27.669   7.573   2.371  0.00  0.00    -0.341 N 
HETATM   29  C   UNK N   1      29.000   8.088   2.091  0.00  0.00     0.179 C 
HETATM   30  C   UNK N   1      29.425   9.505   2.330  0.00  0.00     0.243 C 
HETATM   31  O   UNK N   1      30.187   9.969   1.493  0.00  0.00    -0.271 OA
HETATM   32  N   UNK N   1      29.305  10.126   3.539  0.00  0.00    -0.341 N 
HETATM   33  C   UNK N   1      30.386  10.970   4.001  0.00  0.00     0.179 C 
HETATM   34  C   UNK N   1      30.263  12.443   4.112  0.00  0.00     0.243 C 
HETATM   35  O   UNK N   1      30.336  12.934   5.225  0.00  0.00    -0.271 OA
HETATM   36  N   UNK N   1      30.216  13.229   2.994  0.00  0.00    -0.341 N 
HETATM   37  C   UNK N   1      30.283  14.663   3.059  0.00  0.00     0.182 C 
HETATM   38  C   UNK N   1      29.032  15.289   3.571  0.00  0.00     0.243 C 
HETATM   39  O   UNK N   1      28.186  15.560   2.735  0.00  0.00    -0.271 OA
HETATM   40  N   UNK N   1      28.685  15.215   4.889  0.00  0.00    -0.339 N 
HETATM   41  C   UNK N   1      28.403  16.452   5.613  0.00  0.00     0.207 C 
HETATM   42  C   UNK N   1      27.328  17.288   4.980  0.00  0.00     0.243 C 
HETATM   43  O   UNK N   1      27.455  17.681   3.831  0.00  0.00    -0.271 OA
HETATM   44  N   UNK N   1      26.203  17.583   5.665  0.00  0.00    -0.346 N 
HETATM   45  C   UNK N   1      27.817  14.122   5.258  0.00  0.00     0.153 C 
HETATM   46  C   UNK N   1      30.138  12.661   1.678  0.00  0.00     0.153 C 
HETATM   47  C   UNK N   1      28.307   9.739   4.500  0.00  0.00     0.153 C 
HETATM   48  C   UNK N   1      26.830   7.369   1.217  0.00  0.00     0.153 C 
HETATM   49  C   UNK N   1      27.671   4.495   2.922  0.00  0.00     0.042 C 
HETATM   50  C   UNK N   1      22.156   4.800   3.128  0.00  0.00     0.042 C 
HETATM   51  C   UNK N   1      23.318  10.379   2.459  0.00  0.00     0.153 C 
HETATM   52  C   UNK N   1      23.420  14.144   5.489  0.00  0.00     0.153 C 
HETATM   53  C   UNK N   1      25.475  15.526   3.960  0.00  0.00     0.153 C 
HETATM   54  H   UNK N   1      20.251  11.986   6.698  0.00  0.00     0.163 HD
HETATM   55  H   UNK N   1      22.440   7.283   1.154  0.00  0.00     0.163 HD
HETATM   56  H   UNK N   1      25.526   5.128   1.860  0.00  0.00     0.163 HD
HETATM   57  H   UNK N   1      26.095  17.242   6.583  0.00  0.00     0.163 HD
ENDROOT
BRANCH  41  58
HETATM   58  C   UNK N   1      29.684  17.245   5.932  0.00  0.00     0.154 C 
BRANCH  58  59
HETATM   59  C   UNK N   1      30.380  16.795   7.231  0.00  0.00     0.016 C 
HETATM   60  C   UNK N   1      30.631  17.951   8.181  0.00  0.00     0.013 C 
BRANCH  59  61
HETATM   61  C   UNK N   1      31.737  16.198   6.889  0.00  0.00     0.034 C 
BRANCH  61  62
HETATM   62  C   UNK N   1      32.709  17.261   6.480  0.00  0.00    -0.026 C 
HETATM   63  C   UNK N   1      34.038  17.071   6.410  0.00  0.00    -0.005 C 
BRANCH  63  64
HETATM   64  C   UNK N   1      34.758  15.792   6.629  0.00  0.00    -0.011 C 
HETATM   65  C   UNK N   1      35.290  15.064   5.646  0.00  0.00     0.011 C 
ENDBRANCH  63  64
ENDBRANCH  61  62
ENDBRANCH  59  61
ENDBRANCH  58  59
BRANCH  58  66
HETATM   66  O   UNK N   1      29.375  18.607   5.944  0.00  0.00    -0.393 OA
HETATM   67  H   UNK N   1      29.568  19.309   5.302  0.00  0.00     0.210 HD
ENDBRANCH  58  66
ENDBRANCH  41  58
BRANCH  37  68
HETATM   68  C   UNK N   1      31.658  15.267   3.406  0.00  0.00     0.009 C 
HETATM   69  C   UNK N   1      31.717  16.710   2.945  0.00  0.00     0.012 C 
HETATM   70  C   UNK N   1      32.857  14.532   2.836  0.00  0.00     0.012 C 
ENDBRANCH  37  68
BRANCH   1  71
HETATM   71  C   UNK N   1      25.714  19.704   4.523  0.00  0.00     0.030 C 
HETATM   72  C   UNK N   1      26.238  20.632   5.600  0.00  0.00     0.007 C 
ENDBRANCH   1  71
BRANCH  33  73
HETATM   73  C   UNK N   1      31.794  10.370   4.000  0.00  0.00     0.039 C 
BRANCH  73  74
HETATM   74  C   UNK N   1      31.994   9.432   5.185  0.00  0.00    -0.020 C 
HETATM   75  C   UNK N   1      32.819   8.242   4.756  0.00  0.00     0.009 C 
HETATM   76  C   UNK N   1      32.675  10.131   6.344  0.00  0.00     0.009 C 
ENDBRANCH  73  74
ENDBRANCH  33  73
BRANCH  29  77
HETATM   77  C   UNK N   1      30.096   7.107   2.538  0.00  0.00     0.039 C 
BRANCH  77  78
HETATM   78  C   UNK N   1      31.047   6.695   1.438  0.00  0.00    -0.020 C 
HETATM   79  C   UNK N   1      31.934   5.587   1.960  0.00  0.00     0.009 C 
HETATM   80  C   UNK N   1      30.244   6.191   0.261  0.00  0.00     0.009 C 
ENDBRANCH  77  78
ENDBRANCH  29  77
BRANCH   9  81
HETATM   81  C   UNK N   1      20.074  15.537   6.400  0.00  0.00     0.039 C 
BRANCH  81  82
HETATM   82  C   UNK N   1      20.685  16.552   7.371  0.00  0.00    -0.020 C 
HETATM   83  C   UNK N   1      19.739  16.785   8.523  0.00  0.00     0.009 C 
HETATM   84  C   UNK N   1      21.007  17.880   6.710  0.00  0.00     0.009 C 
ENDBRANCH  81  82
ENDBRANCH   9  81
BRANCH  13  85
HETATM   85  C   UNK N   1      19.036  10.709   4.054  0.00  0.00     0.009 C 
HETATM   86  C   UNK N   1      18.155  11.932   3.843  0.00  0.00     0.012 C 
HETATM   87  C   UNK N   1      18.178   9.565   4.562  0.00  0.00     0.012 C 
ENDBRANCH  13  85
BRANCH  17  88
HETATM   88  C   UNK N   1      20.049   9.144   1.686  0.00  0.00     0.039 C 
BRANCH  88  89
HETATM   89  C   UNK N   1      20.371   9.983   0.433  0.00  0.00    -0.020 C 
HETATM   90  C   UNK N   1      19.949   9.260  -0.827  0.00  0.00     0.009 C 
HETATM   91  C   UNK N   1      19.749  11.378   0.442  0.00  0.00     0.009 C 
ENDBRANCH  88  89
ENDBRANCH  17  88
TORSDOF 17
ENDMDL
MODEL 2
REMARK VINA RESULT:      -6.7      1.326      2.063
REMARK  17 active torsions:
REMARK  status: ('A' for Active; 'I' for Inactive)
REMARK    1  A    between atoms: C_3  and  C_2 
REMARK    2  A    between atoms: C_11  and  C_81 
REMARK    3  A    between atoms: C_15  and  C_78 
REMARK    4  A    between atoms: C_19  and  C_73 
REMARK    5  A    between atoms: C_31  and  C_66 
REMARK    6  A    between atoms: C_35  and  C_61 
REMARK    7  A    between atoms: C_39  and  C_57 
REMARK    8  A    between atoms: C_43  and  C_47 
REMARK    9  A    between atoms: C_47  and  C_48 
REMARK   10  A    between atoms: C_47  and  O_55 
REMARK   11  A    between atoms: C_48  and  C_50 
REMARK   12  A    between atoms: C_50  and  C_51 
REMARK   13  A    between atoms: C_52  and  C_53 
REMARK   14  A    between atoms: C_61  and  C_62 
REMARK   15  A    between atoms: C_66  and  C_67 
REMARK   16  A    between atoms: C_73  and  C_74 
REMARK   17  A    between atoms: C_81  and  C_82 
ROOT
HETATM    1  C   UNK N   1      27.102  18.147   5.085  0.00  0.00     0.176 C 
HETATM    2  C   UNK N   1      25.999  17.548   4.218  0.00  0.00     0.242 C 
HETATM    3  O   UNK N   1      25.065  18.298   3.935  0.00  0.00    -0.271 OA
HETATM    4  N   UNK N   1      25.929  16.241   3.794  0.00  0.00    -0.346 N 
HETATM    5  C   UNK N   1      24.726  15.744   3.215  0.00  0.00     0.228 C 
HETATM    6  C   UNK N   1      23.638  15.758   4.255  0.00  0.00     0.238 C 
HETATM    7  O   UNK N   1      22.670  16.448   4.025  0.00  0.00    -0.272 OA
HETATM    8  N   UNK N   1      23.720  14.999   5.408  0.00  0.00    -0.342 N 
HETATM    9  C   UNK N   1      22.552  14.758   6.256  0.00  0.00     0.179 C 
HETATM   10  C   UNK N   1      21.735  13.736   5.561  0.00  0.00     0.241 C 
HETATM   11  O   UNK N   1      21.506  13.904   4.376  0.00  0.00    -0.271 OA
HETATM   12  N   UNK N   1      21.543  12.521   6.140  0.00  0.00    -0.346 N 
HETATM   13  C   UNK N   1      21.342  11.331   5.330  0.00  0.00     0.180 C 
HETATM   14  C   UNK N   1      22.649  11.147   4.531  0.00  0.00     0.243 C 
HETATM   15  O   UNK N   1      23.656  11.667   4.994  0.00  0.00    -0.271 OA
HETATM   16  N   UNK N   1      22.770  10.445   3.370  0.00  0.00    -0.341 N 
HETATM   17  C   UNK N   1      21.829   9.417   3.030  0.00  0.00     0.179 C 
HETATM   18  C   UNK N   1      22.315   8.072   3.382  0.00  0.00     0.241 C 
HETATM   19  O   UNK N   1      22.367   7.770   4.563  0.00  0.00    -0.271 OA
HETATM   20  N   UNK N   1      22.725   7.212   2.420  0.00  0.00    -0.346 N 
HETATM   21  C   UNK N   1      23.234   5.896   2.724  0.00  0.00     0.172 C 
HETATM   22  C   UNK N   1      24.547   5.945   3.445  0.00  0.00     0.240 C 
HETATM   23  O   UNK N   1      24.655   6.481   4.540  0.00  0.00    -0.271 OA
HETATM   24  N   UNK N   1      25.596   5.328   2.882  0.00  0.00    -0.346 N 
HETATM   25  C   UNK N   1      26.861   5.190   3.539  0.00  0.00     0.172 C 
HETATM   26  C   UNK N   1      27.772   6.388   3.479  0.00  0.00     0.242 C 
HETATM   27  O   UNK N   1      28.565   6.499   4.401  0.00  0.00    -0.271 OA
HETATM   28  N   UNK N   1      27.971   7.091   2.307  0.00  0.00    -0.341 N 
HETATM   29  C   UNK N   1      29.334   7.427   1.925  0.00  0.00     0.179 C 
HETATM   30  C   UNK N   1      29.958   8.775   2.118  0.00  0.00     0.243 C 
HETATM   31  O   UNK N   1      30.711   9.134   1.223  0.00  0.00    -0.271 OA
HETATM   32  N   UNK N   1      30.010   9.407   3.326  0.00  0.00    -0.341 N 
HETATM   33  C   UNK N   1      31.225  10.100   3.700  0.00  0.00     0.179 C 
HETATM   34  C   UNK N   1      31.305  11.577   3.804  0.00  0.00     0.243 C 
HETATM   35  O   UNK N   1      31.524  12.055   4.904  0.00  0.00    -0.271 OA
HETATM   36  N   UNK N   1      31.279  12.362   2.685  0.00  0.00    -0.341 N 
HETATM   37  C   UNK N   1      31.539  13.775   2.730  0.00  0.00     0.182 C 
HETATM   38  C   UNK N   1      30.422  14.560   3.326  0.00  0.00     0.243 C 
HETATM   39  O   UNK N   1      29.561  14.941   2.551  0.00  0.00    -0.271 OA
HETATM   40  N   UNK N   1      30.167  14.534   4.666  0.00  0.00    -0.339 N 
HETATM   41  C   UNK N   1      30.105  15.797   5.397  0.00  0.00     0.207 C 
HETATM   42  C   UNK N   1      29.105  16.768   4.836  0.00  0.00     0.243 C 
HETATM   43  O   UNK N   1      29.198  17.140   3.677  0.00  0.00    -0.271 OA
HETATM   44  N   UNK N   1      28.083  17.209   5.599  0.00  0.00    -0.346 N 
HETATM   45  C   UNK N   1      29.193  13.565   5.109  0.00  0.00     0.153 C 
HETATM   46  C   UNK N   1      31.030  11.809   1.384  0.00  0.00     0.153 C 
HETATM   47  C   UNK N   1      29.044   9.155   4.362  0.00  0.00     0.153 C 
HETATM   48  C   UNK N   1      27.030   7.000   1.220  0.00  0.00     0.153 C 
HETATM   49  C   UNK N   1      27.608   4.040   2.887  0.00  0.00     0.042 C 
HETATM   50  C   UNK N   1      22.212   5.071   3.493  0.00  0.00     0.042 C 
HETATM   51  C   UNK N   1      24.046  10.448   2.685  0.00  0.00     0.153 C 
HETATM   52  C   UNK N   1      24.866  14.167   5.661  0.00  0.00     0.153 C 
HETATM   53  C   UNK N   1      26.966  15.265   3.972  0.00  0.00     0.153 C 
HETATM   54  H   UNK N   1      21.539  12.447   7.120  0.00  0.00     0.163 HD
HETATM   55  H   UNK N   1      22.673   7.495   1.479  0.00  0.00     0.163 HD
HETATM   56  H   UNK N   1      25.492   4.951   1.978  0.00  0.00     0.163 HD
HETATM   57  H   UNK N   1      27.999  16.886   6.525  0.00  0.00     0.163 HD
ENDROOT
BRANCH  41  58
HETATM   58  C   UNK N   1      31.499  16.414   5.614  0.00  0.00     0.154 C 
BRANCH  58  59
HETATM   59  C   UNK N   1      32.059  16.190   7.031  0.00  0.00     0.016 C 
HETATM   60  C   UNK N   1      32.487  14.752   7.260  0.00  0.00     0.013 C 
BRANCH  59  61
HETATM   61  C   UNK N   1      30.974  16.499   8.052  0.00  0.00     0.034 C 
BRANCH  61  62
HETATM   62  C   UNK N   1      31.259  17.781   8.773  0.00  0.00    -0.026 C 
HETATM   63  C   UNK N   1      30.344  18.744   8.972  0.00  0.00    -0.005 C 
BRANCH  63  64
HETATM   64  C   UNK N   1      28.906  18.684   8.608  0.00  0.00    -0.011 C 
HETATM   65  C   UNK N   1      28.018  17.905   9.228  0.00  0.00     0.011 C 
ENDBRANCH  63  64
ENDBRANCH  61  62
ENDBRANCH  59  61
ENDBRANCH  58  59
BRANCH  58  66
HETATM   66  O   UNK N   1      31.446  17.768   5.276  0.00  0.00    -0.393 OA
HETATM   67  H   UNK N   1      30.944  18.502   5.664  0.00  0.00     0.210 HD
ENDBRANCH  58  66
ENDBRANCH  41  58
BRANCH  37  68
HETATM   68  C   UNK N   1      33.004  14.192   2.969  0.00  0.00     0.009 C 
HETATM   69  C   UNK N   1      33.130  15.699   2.880  0.00  0.00     0.012 C 
HETATM   70  C   UNK N   1      34.021  13.569   2.033  0.00  0.00     0.012 C 
ENDBRANCH  37  68
BRANCH   1  71
HETATM   71  C   UNK N   1      27.794  19.376   4.474  0.00  0.00     0.030 C 
HETATM   72  C   UNK N   1      27.677  20.616   5.337  0.00  0.00     0.007 C 
ENDBRANCH   1  71
BRANCH  33  73
HETATM   73  C   UNK N   1      32.537   9.320   3.601  0.00  0.00     0.039 C 
BRANCH  73  74
HETATM   74  C   UNK N   1      33.660  10.200   3.062  0.00  0.00    -0.020 C 
HETATM   75  C   UNK N   1      34.794  10.241   4.059  0.00  0.00     0.009 C 
HETATM   76  C   UNK N   1      34.174   9.696   1.728  0.00  0.00     0.009 C 
ENDBRANCH  73  74
ENDBRANCH  33  73
BRANCH  29  77
HETATM   77  C   UNK N   1      30.321   6.309   2.301  0.00  0.00     0.039 C 
BRANCH  77  78
HETATM   78  C   UNK N   1      30.954   5.617   1.116  0.00  0.00    -0.020 C 
HETATM   79  C   UNK N   1      30.158   5.961  -0.123  0.00  0.00     0.009 C 
HETATM   80  C   UNK N   1      32.374   6.112   0.961  0.00  0.00     0.009 C 
ENDBRANCH  77  78
ENDBRANCH  29  77
BRANCH   9  81
HETATM   81  C   UNK N   1      21.809  15.990   6.801  0.00  0.00     0.039 C 
BRANCH  81  82
HETATM   82  C   UNK N   1      20.635  15.707   7.743  0.00  0.00    -0.020 C 
HETATM   83  C   UNK N   1      19.965  17.005   8.123  0.00  0.00     0.009 C 
HETATM   84  C   UNK N   1      21.055  14.972   9.004  0.00  0.00     0.009 C 
ENDBRANCH  81  82
ENDBRANCH   9  81
BRANCH  13  85
HETATM   85  C   UNK N   1      19.974  11.340   4.586  0.00  0.00     0.009 C 
HETATM   86  C   UNK N   1      19.147  12.619   4.613  0.00  0.00     0.012 C 
HETATM   87  C   UNK N   1      19.097  10.177   5.011  0.00  0.00     0.012 C 
ENDBRANCH  13  85
BRANCH  17  88
HETATM   88  C   UNK N   1      20.594   9.655   2.166  0.00  0.00     0.039 C 
BRANCH  88  89
HETATM   89  C   UNK N   1      20.887  10.612   0.992  0.00  0.00    -0.020 C 
HETATM   90  C   UNK N   1      21.557   9.879  -0.150  0.00  0.00     0.009 C 
HETATM   91  C   UNK N   1      19.655  11.343   0.464  0.00  0.00     0.009 C 
ENDBRANCH  88  89
ENDBRANCH  17  88
TORSDOF 17
ENDMDL
MODEL 3
REMARK VINA RESULT:      -6.6      3.268      9.761
REMARK  17 active torsions:
REMARK  status: ('A' for Active; 'I' for Inactive)
REMARK    1  A    between atoms: C_3  and  C_2 
REMARK    2  A    between atoms: C_11  and  C_81 
REMARK    3  A    between atoms: C_15  and  C_78 
REMARK    4  A    between atoms: C_19  and  C_73 
REMARK    5  A    between atoms: C_31  and  C_66 
REMARK    6  A    between atoms: C_35  and  C_61 
REMARK    7  A    between atoms: C_39  and  C_57 
REMARK    8  A    between atoms: C_43  and  C_47 
REMARK    9  A    between atoms: C_47  and  C_48 
REMARK   10  A    between atoms: C_47  and  O_55 
REMARK   11  A    between atoms: C_48  and  C_50 
REMARK   12  A    between atoms: C_50  and  C_51 
REMARK   13  A    between atoms: C_52  and  C_53 
REMARK   14  A    between atoms: C_61  and  C_62 
REMARK   15  A    between atoms: C_66  and  C_67 
REMARK   16  A    between atoms: C_73  and  C_74 
REMARK   17  A    between atoms: C_81  and  C_82 
ROOT
HETATM    1  C   UNK N   1      32.167  15.337   3.248  0.00  0.00     0.176 C 
HETATM    2  C   UNK N   1      32.431  13.855   3.001  0.00  0.00     0.242 C 
HETATM    3  O   UNK N   1      33.609  13.500   3.040  0.00  0.00    -0.271 OA
HETATM    4  N   UNK N   1      31.483  12.913   2.674  0.00  0.00    -0.346 N 
HETATM    5  C   UNK N   1      31.888  11.626   2.215  0.00  0.00     0.228 C 
HETATM    6  C   UNK N   1      32.598  11.776   0.897  0.00  0.00     0.238 C 
HETATM    7  O   UNK N   1      33.752  11.411   0.852  0.00  0.00    -0.272 OA
HETATM    8  N   UNK N   1      31.962  12.277  -0.224  0.00  0.00    -0.342 N 
HETATM    9  C   UNK N   1      32.531  12.130  -1.564  0.00  0.00     0.179 C 
HETATM   10  C   UNK N   1      32.285  10.727  -1.970  0.00  0.00     0.241 C 
HETATM   11  O   UNK N   1      32.568   9.849  -1.173  0.00  0.00    -0.271 OA
HETATM   12  N   UNK N   1      31.483  10.466  -3.035  0.00  0.00    -0.346 N 
HETATM   13  C   UNK N   1      30.710   9.236  -3.105  0.00  0.00     0.180 C 
HETATM   14  C   UNK N   1      29.727   9.295  -1.918  0.00  0.00     0.243 C 
HETATM   15  O   UNK N   1      29.468  10.406  -1.471  0.00  0.00    -0.271 OA
HETATM   16  N   UNK N   1      29.120   8.219  -1.344  0.00  0.00    -0.341 N 
HETATM   17  C   UNK N   1      28.948   6.995  -2.072  0.00  0.00     0.179 C 
HETATM   18  C   UNK N   1      27.608   6.881  -2.671  0.00  0.00     0.241 C 
HETATM   19  O   UNK N   1      27.338   7.598  -3.620  0.00  0.00    -0.271 OA
HETATM   20  N   UNK N   1      26.692   6.028  -2.155  0.00  0.00    -0.346 N 
HETATM   21  C   UNK N   1      25.358   5.905  -2.694  0.00  0.00     0.172 C 
HETATM   22  C   UNK N   1      24.542   7.143  -2.479  0.00  0.00     0.240 C 
HETATM   23  O   UNK N   1      24.874   8.219  -2.958  0.00  0.00    -0.271 OA
HETATM   24  N   UNK N   1      23.394   7.027  -1.794  0.00  0.00    -0.346 N 
HETATM   25  C   UNK N   1      22.466   8.108  -1.645  0.00  0.00     0.172 C 
HETATM   26  C   UNK N   1      22.788   9.113  -0.570  0.00  0.00     0.242 C 
HETATM   27  O   UNK N   1      22.353  10.240  -0.751  0.00  0.00    -0.271 OA
HETATM   28  N   UNK N   1      23.201   8.724   0.689  0.00  0.00    -0.341 N 
HETATM   29  C   UNK N   1      22.574   9.347   1.844  0.00  0.00     0.179 C 
HETATM   30  C   UNK N   1      23.195  10.445   2.652  0.00  0.00     0.243 C 
HETATM   31  O   UNK N   1      22.985  10.389   3.856  0.00  0.00    -0.271 OA
HETATM   32  N   UNK N   1      23.636  11.615   2.106  0.00  0.00    -0.341 N 
HETATM   33  C   UNK N   1      23.375  12.855   2.806  0.00  0.00     0.179 C 
HETATM   34  C   UNK N   1      24.448  13.657   3.443  0.00  0.00     0.243 C 
HETATM   35  O   UNK N   1      24.663  14.769   2.995  0.00  0.00    -0.271 OA
HETATM   36  N   UNK N   1      25.067  13.221   4.582  0.00  0.00    -0.341 N 
HETATM   37  C   UNK N   1      25.975  14.048   5.328  0.00  0.00     0.182 C 
HETATM   38  C   UNK N   1      27.293  14.229   4.660  0.00  0.00     0.243 C 
HETATM   39  O   UNK N   1      28.146  13.396   4.921  0.00  0.00    -0.271 OA
HETATM   40  N   UNK N   1      27.432  15.020   3.557  0.00  0.00    -0.339 N 
HETATM   41  C   UNK N   1      28.430  16.086   3.574  0.00  0.00     0.207 C 
HETATM   42  C   UNK N   1      29.821  15.603   3.877  0.00  0.00     0.243 C 
HETATM   43  O   UNK N   1      30.049  15.012   4.920  0.00  0.00    -0.271 OA
HETATM   44  N   UNK N   1      30.815  15.791   2.984  0.00  0.00    -0.346 N 
HETATM   45  C   UNK N   1      27.323  14.356   2.279  0.00  0.00     0.153 C 
HETATM   46  C   UNK N   1      24.814  11.916   5.124  0.00  0.00     0.153 C 
HETATM   47  C   UNK N   1      24.066  11.704   0.736  0.00  0.00     0.153 C 
HETATM   48  C   UNK N   1      23.746   7.409   0.916  0.00  0.00     0.153 C 
HETATM   49  C   UNK N   1      21.109   7.519  -1.300  0.00  0.00     0.042 C 
HETATM   50  C   UNK N   1      25.389   5.511  -4.163  0.00  0.00     0.042 C 
HETATM   51  C   UNK N   1      28.298   8.428  -0.170  0.00  0.00     0.153 C 
HETATM   52  C   UNK N   1      30.584  12.688  -0.165  0.00  0.00     0.153 C 
HETATM   53  C   UNK N   1      30.067  13.144   2.662  0.00  0.00     0.153 C 
HETATM   54  H   UNK N   1      31.423  11.118  -3.769  0.00  0.00     0.163 HD
HETATM   55  H   UNK N   1      26.946   5.470  -1.385  0.00  0.00     0.163 HD
HETATM   56  H   UNK N   1      23.179   6.162  -1.377  0.00  0.00     0.163 HD
HETATM   57  H   UNK N   1      30.618  16.247   2.133  0.00  0.00     0.163 HD
ENDROOT
BRANCH  41  58
HETATM   58  C   UNK N   1      27.995  17.277   4.449  0.00  0.00     0.154 C 
BRANCH  58  59
HETATM   59  C   UNK N   1      27.300  18.401   3.657  0.00  0.00     0.016 C 
HETATM   60  C   UNK N   1      27.378  19.739   4.368  0.00  0.00     0.013 C 
BRANCH  59  61
HETATM   61  C   UNK N   1      25.824  18.065   3.503  0.00  0.00     0.034 C 
BRANCH  61  62
HETATM   62  C   UNK N   1      25.039  18.511   4.698  0.00  0.00    -0.026 C 
HETATM   63  C   UNK N   1      23.716  18.323   4.834  0.00  0.00    -0.005 C 
BRANCH  63  64
HETATM   64  C   UNK N   1      22.830  17.582   3.902  0.00  0.00    -0.011 C 
HETATM   65  C   UNK N   1      21.916  16.694   4.297  0.00  0.00     0.011 C 
ENDBRANCH  63  64
ENDBRANCH  61  62
ENDBRANCH  59  61
ENDBRANCH  58  59
BRANCH  58  66
HETATM   66  O   UNK N   1      29.106  17.741   5.158  0.00  0.00    -0.393 OA
HETATM   67  H   UNK N   1      29.638  18.546   5.053  0.00  0.00     0.210 HD
ENDBRANCH  58  66
ENDBRANCH  41  58
BRANCH  37  68
HETATM   68  C   UNK N   1      25.341  15.201   6.133  0.00  0.00     0.009 C 
HETATM   69  C   UNK N   1      26.316  15.687   7.187  0.00  0.00     0.012 C 
HETATM   70  C   UNK N   1      24.024  14.877   6.812  0.00  0.00     0.012 C 
ENDBRANCH  37  68
BRANCH   1  71
HETATM   71  C   UNK N   1      32.658  15.852   4.610  0.00  0.00     0.030 C 
HETATM   72  C   UNK N   1      33.062  17.312   4.586  0.00  0.00     0.007 C 
ENDBRANCH   1  71
BRANCH  33  73
HETATM   73  C   UNK N   1      21.931  13.132   3.229  0.00  0.00     0.039 C 
BRANCH  73  74
HETATM   74  C   UNK N   1      21.049  13.418   2.018  0.00  0.00    -0.020 C 
HETATM   75  C   UNK N   1      19.649  13.746   2.478  0.00  0.00     0.009 C 
HETATM   76  C   UNK N   1      21.593  14.562   1.188  0.00  0.00     0.009 C 
ENDBRANCH  73  74
ENDBRANCH  33  73
BRANCH  29  77
HETATM   77  C   UNK N   1      21.081   9.624   1.601  0.00  0.00     0.039 C 
BRANCH  77  78
HETATM   78  C   UNK N   1      20.150   8.817   2.476  0.00  0.00    -0.020 C 
HETATM   79  C   UNK N   1      20.940   7.696   3.112  0.00  0.00     0.009 C 
HETATM   80  C   UNK N   1      19.587   9.717   3.552  0.00  0.00     0.009 C 
ENDBRANCH  77  78
ENDBRANCH  29  77
BRANCH   9  81
HETATM   81  C   UNK N   1      33.948  12.684  -1.793  0.00  0.00     0.039 C 
BRANCH  81  82
HETATM   82  C   UNK N   1      34.188  13.387  -3.132  0.00  0.00    -0.020 C 
HETATM   83  C   UNK N   1      34.943  12.467  -4.060  0.00  0.00     0.009 C 
HETATM   84  C   UNK N   1      34.954  14.690  -2.986  0.00  0.00     0.009 C 
ENDBRANCH  81  82
ENDBRANCH   9  81
BRANCH  13  85
HETATM   85  C   UNK N   1      31.608   7.980  -3.306  0.00  0.00     0.009 C 
HETATM   86  C   UNK N   1      33.111   8.130  -3.117  0.00  0.00     0.012 C 
HETATM   87  C   UNK N   1      31.344   7.310  -4.642  0.00  0.00     0.012 C 
ENDBRANCH  13  85
BRANCH  17  88
HETATM   88  C   UNK N   1      29.935   5.833  -2.013  0.00  0.00     0.039 C 
BRANCH  88  89
HETATM   89  C   UNK N   1      30.598   5.710  -0.626  0.00  0.00    -0.020 C 
HETATM   90  C   UNK N   1      29.755   4.867   0.305  0.00  0.00     0.009 C 
HETATM   91  C   UNK N   1      32.017   5.146  -0.664  0.00  0.00     0.009 C 
ENDBRANCH  88  89
ENDBRANCH  17  88
TORSDOF 17
ENDMDL
MODEL 4
REMARK VINA RESULT:      -6.5      2.650      9.788
REMARK  17 active torsions:
REMARK  status: ('A' for Active; 'I' for Inactive)
REMARK    1  A    between atoms: C_3  and  C_2 
REMARK    2  A    between atoms: C_11  and  C_81 
REMARK    3  A    between atoms: C_15  and  C_78 
REMARK    4  A    between atoms: C_19  and  C_73 
REMARK    5  A    between atoms: C_31  and  C_66 
REMARK    6  A    between atoms: C_35  and  C_61 
REMARK    7  A    between atoms: C_39  and  C_57 
REMARK    8  A    between atoms: C_43  and  C_47 
REMARK    9  A    between atoms: C_47  and  C_48 
REMARK   10  A    between atoms: C_47  and  O_55 
REMARK   11  A    between atoms: C_48  and  C_50 
REMARK   12  A    between atoms: C_50  and  C_51 
REMARK   13  A    between atoms: C_52  and  C_53 
REMARK   14  A    between atoms: C_61  and  C_62 
REMARK   15  A    between atoms: C_66  and  C_67 
REMARK   16  A    between atoms: C_73  and  C_74 
REMARK   17  A    between atoms: C_81  and  C_82 
ROOT
HETATM    1  C   UNK N   1      22.508  14.317   5.319  0.00  0.00     0.176 C 
HETATM    2  C   UNK N   1      23.831  14.259   6.076  0.00  0.00     0.242 C 
HETATM    3  O   UNK N   1      23.874  14.876   7.140  0.00  0.00    -0.271 OA
HETATM    4  N   UNK N   1      24.982  13.646   5.638  0.00  0.00    -0.346 N 
HETATM    5  C   UNK N   1      26.215  13.885   6.309  0.00  0.00     0.228 C 
HETATM    6  C   UNK N   1      26.592  15.333   6.144  0.00  0.00     0.238 C 
HETATM    7  O   UNK N   1      26.689  15.993   7.154  0.00  0.00    -0.272 OA
HETATM    8  N   UNK N   1      26.846  15.884   4.901  0.00  0.00    -0.342 N 
HETATM    9  C   UNK N   1      27.513  17.178   4.754  0.00  0.00     0.179 C 
HETATM   10  C   UNK N   1      28.951  16.939   5.016  0.00  0.00     0.241 C 
HETATM   11  O   UNK N   1      29.247  16.298   6.010  0.00  0.00    -0.271 OA
HETATM   12  N   UNK N   1      29.858  17.138   4.024  0.00  0.00    -0.346 N 
HETATM   13  C   UNK N   1      31.091  16.369   3.972  0.00  0.00     0.180 C 
HETATM   14  C   UNK N   1      30.657  14.902   3.775  0.00  0.00     0.243 C 
HETATM   15  O   UNK N   1      29.549  14.715   3.288  0.00  0.00    -0.271 OA
HETATM   16  N   UNK N   1      31.410  13.810   4.085  0.00  0.00    -0.341 N 
HETATM   17  C   UNK N   1      32.839  13.900   4.167  0.00  0.00     0.179 C 
HETATM   18  C   UNK N   1      33.501  13.461   2.927  0.00  0.00     0.241 C 
HETATM   19  O   UNK N   1      33.414  14.177   1.944  0.00  0.00    -0.271 OA
HETATM   20  N   UNK N   1      34.157  12.278   2.876  0.00  0.00    -0.346 N 
HETATM   21  C   UNK N   1      34.795  11.797   1.673  0.00  0.00     0.172 C 
HETATM   22  C   UNK N   1      33.807  11.463   0.599  0.00  0.00     0.240 C 
HETATM   23  O   UNK N   1      33.063  12.313   0.128  0.00  0.00    -0.271 OA
HETATM   24  N   UNK N   1      33.801  10.210   0.118  0.00  0.00    -0.346 N 
HETATM   25  C   UNK N   1      33.000   9.811  -1.000  0.00  0.00     0.172 C 
HETATM   26  C   UNK N   1      31.555   9.504  -0.703  0.00  0.00     0.242 C 
HETATM   27  O   UNK N   1      30.777   9.668  -1.630  0.00  0.00    -0.271 OA
HETATM   28  N   UNK N   1      31.184   8.741   0.386  0.00  0.00    -0.341 N 
HETATM   29  C   UNK N   1      30.215   7.675   0.185  0.00  0.00     0.179 C 
HETATM   30  C   UNK N   1      28.762   7.775   0.536  0.00  0.00     0.243 C 
HETATM   31  O   UNK N   1      28.261   6.751   0.980  0.00  0.00    -0.271 OA
HETATM   32  N   UNK N   1      27.949   8.768   0.072  0.00  0.00    -0.341 N 
HETATM   33  C   UNK N   1      26.608   8.431  -0.355  0.00  0.00     0.179 C 
HETATM   34  C   UNK N   1      25.399   8.859   0.388  0.00  0.00     0.243 C 
HETATM   35  O   UNK N   1      24.632   9.624  -0.173  0.00  0.00    -0.271 OA
HETATM   36  N   UNK N   1      25.083   8.302   1.596  0.00  0.00    -0.341 N 
HETATM   37  C   UNK N   1      23.832   8.554   2.257  0.00  0.00     0.182 C 
HETATM   38  C   UNK N   1      23.740   9.920   2.843  0.00  0.00     0.243 C 
HETATM   39  O   UNK N   1      24.145  10.040   3.988  0.00  0.00    -0.271 OA
HETATM   40  N   UNK N   1      23.583  11.025   2.059  0.00  0.00    -0.339 N 
HETATM   41  C   UNK N   1      22.469  11.930   2.329  0.00  0.00     0.207 C 
HETATM   42  C   UNK N   1      22.449  12.454   3.738  0.00  0.00     0.243 C 
HETATM   43  O   UNK N   1      22.391  11.678   4.678  0.00  0.00    -0.271 OA
HETATM   44  N   UNK N   1      22.526  13.781   3.971  0.00  0.00    -0.346 N 
HETATM   45  C   UNK N   1      24.795  11.706   1.670  0.00  0.00     0.153 C 
HETATM   46  C   UNK N   1      25.974   7.394   2.261  0.00  0.00     0.153 C 
HETATM   47  C   UNK N   1      28.460  10.060  -0.302  0.00  0.00     0.153 C 
HETATM   48  C   UNK N   1      32.075   8.563   1.504  0.00  0.00     0.153 C 
HETATM   49  C   UNK N   1      33.604   8.546  -1.584  0.00  0.00     0.042 C 
HETATM   50  C   UNK N   1      35.844  12.779   1.174  0.00  0.00     0.042 C 
HETATM   51  C   UNK N   1      30.823  12.494   3.935  0.00  0.00     0.153 C 
HETATM   52  C   UNK N   1      26.748  15.086   3.708  0.00  0.00     0.153 C 
HETATM   53  C   UNK N   1      25.078  12.826   4.464  0.00  0.00     0.153 C 
HETATM   54  H   UNK N   1      29.677  17.812   3.330  0.00  0.00     0.163 HD
HETATM   55  H   UNK N   1      34.200  11.725   3.689  0.00  0.00     0.163 HD
HETATM   56  H   UNK N   1      34.373   9.536   0.551  0.00  0.00     0.163 HD
HETATM   57  H   UNK N   1      22.597  14.400   3.209  0.00  0.00     0.163 HD
ENDROOT
BRANCH  41  58
HETATM   58  C   UNK N   1      21.119  11.343   1.878  0.00  0.00     0.154 C 
BRANCH  58  59
HETATM   59  C   UNK N   1      20.128  12.404   1.360  0.00  0.00     0.016 C 
HETATM   60  C   UNK N   1      19.221  11.861   0.271  0.00  0.00     0.013 C 
BRANCH  59  61
HETATM   61  C   UNK N   1      20.908  13.561   0.755  0.00  0.00     0.034 C 
BRANCH  61  62
HETATM   62  C   UNK N   1      19.998  14.693   0.386  0.00  0.00    -0.026 C 
HETATM   63  C   UNK N   1      19.964  15.866   1.041  0.00  0.00    -0.005 C 
BRANCH  63  64
HETATM   64  C   UNK N   1      20.853  16.281   2.154  0.00  0.00    -0.011 C 
HETATM   65  C   UNK N   1      20.411  16.792   3.304  0.00  0.00     0.011 C 
ENDBRANCH  63  64
ENDBRANCH  61  62
ENDBRANCH  59  61
ENDBRANCH  58  59
BRANCH  58  66
HETATM   66  O   UNK N   1      20.585  10.590   2.927  0.00  0.00    -0.393 OA
HETATM   67  H   UNK N   1      19.668  10.469   3.221  0.00  0.00     0.210 HD
ENDBRANCH  58  66
ENDBRANCH  41  58
BRANCH  37  68
HETATM   68  C   UNK N   1      22.589   7.882   1.640  0.00  0.00     0.009 C 
HETATM   69  C   UNK N   1      21.668   7.397   2.742  0.00  0.00     0.012 C 
HETATM   70  C   UNK N   1      22.869   6.722   0.705  0.00  0.00     0.012 C 
ENDBRANCH  37  68
BRANCH   1  71
HETATM   71  C   UNK N   1      21.303  13.773   6.104  0.00  0.00     0.030 C 
HETATM   72  C   UNK N   1      20.285  14.841   6.450  0.00  0.00     0.007 C 
ENDBRANCH   1  71
BRANCH  33  73
HETATM   73  C   UNK N   1      26.458   7.290  -1.363  0.00  0.00     0.039 C 
BRANCH  73  74
HETATM   74  C   UNK N   1      26.690   7.780  -2.788  0.00  0.00    -0.020 C 
HETATM   75  C   UNK N   1      27.484   6.750  -3.556  0.00  0.00     0.009 C 
HETATM   76  C   UNK N   1      25.384   8.053  -3.505  0.00  0.00     0.009 C 
ENDBRANCH  73  74
ENDBRANCH  33  73
BRANCH  29  77
HETATM   77  C   UNK N   1      30.401   6.987  -1.178  0.00  0.00     0.039 C 
BRANCH  77  78
HETATM   78  C   UNK N   1      30.868   5.553  -1.091  0.00  0.00    -0.020 C 
HETATM   79  C   UNK N   1      29.691   4.647  -1.374  0.00  0.00     0.009 C 
HETATM   80  C   UNK N   1      31.945   5.325  -2.127  0.00  0.00     0.009 C 
ENDBRANCH  77  78
ENDBRANCH  29  77
BRANCH   9  81
HETATM   81  C   UNK N   1      26.870  18.388   5.455  0.00  0.00     0.039 C 
BRANCH  81  82
HETATM   82  C   UNK N   1      27.835  19.451   5.986  0.00  0.00    -0.020 C 
HETATM   83  C   UNK N   1      27.943  19.333   7.487  0.00  0.00     0.009 C 
HETATM   84  C   UNK N   1      27.413  20.864   5.624  0.00  0.00     0.009 C 
ENDBRANCH  81  82
ENDBRANCH   9  81
BRANCH  13  85
HETATM   85  C   UNK N   1      32.072  16.739   5.123  0.00  0.00     0.009 C 
HETATM   86  C   UNK N   1      31.492  17.310   6.410  0.00  0.00     0.012 C 
HETATM   87  C   UNK N   1      33.186  17.649   4.638  0.00  0.00     0.012 C 
ENDBRANCH  13  85
BRANCH  17  88
HETATM   88  C   UNK N   1      33.596  14.162   5.466  0.00  0.00     0.039 C 
BRANCH  88  89
HETATM   89  C   UNK N   1      32.911  13.494   6.676  0.00  0.00    -0.020 C 
HETATM   90  C   UNK N   1      33.387  12.069   6.849  0.00  0.00     0.009 C 
HETATM   91  C   UNK N   1      33.100  14.248   7.991  0.00  0.00     0.009 C 
ENDBRANCH  88  89
ENDBRANCH  17  88
TORSDOF 17
ENDMDL
MODEL 5
REMARK VINA RESULT:      -6.5      6.723     11.120
REMARK  17 active torsions:
REMARK  status: ('A' for Active; 'I' for Inactive)
REMARK    1  A    between atoms: C_3  and  C_2 
REMARK    2  A    between atoms: C_11  and  C_81 
REMARK    3  A    between atoms: C_15  and  C_78 
REMARK    4  A    between atoms: C_19  and  C_73 
REMARK    5  A    between atoms: C_31  and  C_66 
REMARK    6  A    between atoms: C_35  and  C_61 
REMARK    7  A    between atoms: C_39  and  C_57 
REMARK    8  A    between atoms: C_43  and  C_47 
REMARK    9  A    between atoms: C_47  and  C_48 
REMARK   10  A    between atoms: C_47  and  O_55 
REMARK   11  A    between atoms: C_48  and  C_50 
REMARK   12  A    between atoms: C_50  and  C_51 
REMARK   13  A    between atoms: C_52  and  C_53 
REMARK   14  A    between atoms: C_61  and  C_62 
REMARK   15  A    between atoms: C_66  and  C_67 
REMARK   16  A    between atoms: C_73  and  C_74 
REMARK   17  A    between atoms: C_81  and  C_82 
ROOT
HETATM    1  C   UNK N   1      35.606  14.813  12.190  0.00  0.00     0.176 C 
HETATM    2  C   UNK N   1      35.798  15.101  10.704  0.00  0.00     0.242 C 
HETATM    3  O   UNK N   1      36.031  16.271  10.404  0.00  0.00    -0.271 OA
HETATM    4  N   UNK N   1      35.661  14.188   9.683  0.00  0.00    -0.346 N 
HETATM    5  C   UNK N   1      35.607  14.635   8.332  0.00  0.00     0.228 C 
HETATM    6  C   UNK N   1      34.364  15.459   8.136  0.00  0.00     0.238 C 
HETATM    7  O   UNK N   1      34.518  16.613   7.804  0.00  0.00    -0.272 OA
HETATM    8  N   UNK N   1      33.099  14.923   8.296  0.00  0.00    -0.342 N 
HETATM    9  C   UNK N   1      31.903  15.608   7.806  0.00  0.00     0.179 C 
HETATM   10  C   UNK N   1      31.876  15.403   6.339  0.00  0.00     0.241 C 
HETATM   11  O   UNK N   1      32.904  15.617   5.719  0.00  0.00    -0.271 OA
HETATM   12  N   UNK N   1      30.860  14.698   5.777  0.00  0.00    -0.346 N 
HETATM   13  C   UNK N   1      31.064  13.938   4.554  0.00  0.00     0.180 C 
HETATM   14  C   UNK N   1      32.102  12.854   4.908  0.00  0.00     0.243 C 
HETATM   15  O   UNK N   1      32.206  12.553   6.090  0.00  0.00    -0.271 OA
HETATM   16  N   UNK N   1      32.895  12.201   4.012  0.00  0.00    -0.341 N 
HETATM   17  C   UNK N   1      32.518  12.098   2.633  0.00  0.00     0.179 C 
HETATM   18  C   UNK N   1      31.862  10.816   2.324  0.00  0.00     0.241 C 
HETATM   19  O   UNK N   1      30.734  10.629   2.749  0.00  0.00    -0.271 OA
HETATM   20  N   UNK N   1      32.512   9.860   1.619  0.00  0.00    -0.346 N 
HETATM   21  C   UNK N   1      31.918   8.579   1.319  0.00  0.00     0.172 C 
HETATM   22  C   UNK N   1      31.716   7.744   2.546  0.00  0.00     0.240 C 
HETATM   23  O   UNK N   1      30.991   8.114   3.460  0.00  0.00    -0.271 OA
HETATM   24  N   UNK N   1      32.307   6.540   2.591  0.00  0.00    -0.346 N 
HETATM   25  C   UNK N   1      32.077   5.600   3.646  0.00  0.00     0.172 C 
HETATM   26  C   UNK N   1      32.859   5.823   4.914  0.00  0.00     0.242 C 
HETATM   27  O   UNK N   1      32.341   5.403   5.938  0.00  0.00    -0.271 OA
HETATM   28  N   UNK N   1      34.206   6.124   4.893  0.00  0.00    -0.341 N 
HETATM   29  C   UNK N   1      35.090   5.397   5.790  0.00  0.00     0.179 C 
HETATM   30  C   UNK N   1      35.617   5.941   7.083  0.00  0.00     0.243 C 
HETATM   31  O   UNK N   1      36.768   5.625   7.351  0.00  0.00    -0.271 OA
HETATM   32  N   UNK N   1      34.811   6.425   8.072  0.00  0.00    -0.341 N 
HETATM   33  C   UNK N   1      35.121   6.101   9.448  0.00  0.00     0.179 C 
HETATM   34  C   UNK N   1      35.603   7.110  10.421  0.00  0.00     0.243 C 
HETATM   35  O   UNK N   1      34.886   7.362  11.375  0.00  0.00    -0.271 OA
HETATM   36  N   UNK N   1      36.864   7.628  10.328  0.00  0.00    -0.341 N 
HETATM   37  C   UNK N   1      37.430   8.464  11.351  0.00  0.00     0.182 C 
HETATM   38  C   UNK N   1      36.851   9.836  11.378  0.00  0.00     0.243 C 
HETATM   39  O   UNK N   1      37.401  10.664  10.671  0.00  0.00    -0.271 OA
HETATM   40  N   UNK N   1      35.590  10.069  11.843  0.00  0.00    -0.339 N 
HETATM   41  C   UNK N   1      35.400  11.059  12.900  0.00  0.00     0.207 C 
HETATM   42  C   UNK N   1      35.938  12.419  12.554  0.00  0.00     0.243 C 
HETATM   43  O   UNK N   1      37.119  12.556  12.276  0.00  0.00    -0.271 OA
HETATM   44  N   UNK N   1      35.115  13.488  12.519  0.00  0.00    -0.346 N 
HETATM   45  C   UNK N   1      34.538  10.075  10.853  0.00  0.00     0.153 C 
HETATM   46  C   UNK N   1      37.720   7.331   9.214  0.00  0.00     0.153 C 
HETATM   47  C   UNK N   1      33.510   6.974   7.796  0.00  0.00     0.153 C 
HETATM   48  C   UNK N   1      34.829   6.651   3.705  0.00  0.00     0.153 C 
HETATM   49  C   UNK N   1      32.454   4.220   3.138  0.00  0.00     0.042 C 
HETATM   50  C   UNK N   1      30.620   8.741   0.541  0.00  0.00     0.042 C 
HETATM   51  C   UNK N   1      33.894  11.278   4.511  0.00  0.00     0.153 C 
HETATM   52  C   UNK N   1      32.927  13.543   8.671  0.00  0.00     0.153 C 
HETATM   53  C   UNK N   1      35.468  12.778   9.865  0.00  0.00     0.153 C 
HETATM   54  H   UNK N   1      29.974  14.702   6.203  0.00  0.00     0.163 HD
HETATM   55  H   UNK N   1      33.424  10.046   1.299  0.00  0.00     0.163 HD
HETATM   56  H   UNK N   1      32.925   6.292   1.866  0.00  0.00     0.163 HD
HETATM   57  H   UNK N   1      34.159  13.366  12.721  0.00  0.00     0.163 HD
ENDROOT
BRANCH  41  58
HETATM   58  C   UNK N   1      35.875  10.546  14.272  0.00  0.00     0.154 C 
BRANCH  58  59
HETATM   59  C   UNK N   1      34.833  10.728  15.393  0.00  0.00     0.016 C 
HETATM   60  C   UNK N   1      33.418  10.813  14.854  0.00  0.00     0.013 C 
BRANCH  59  61
HETATM   61  C   UNK N   1      35.110  12.032  16.125  0.00  0.00     0.034 C 
BRANCH  61  62
HETATM   62  C   UNK N   1      35.305  11.798  17.592  0.00  0.00    -0.026 C 
HETATM   63  C   UNK N   1      35.313  12.781  18.509  0.00  0.00    -0.005 C 
BRANCH  63  64
HETATM   64  C   UNK N   1      35.049  14.220  18.262  0.00  0.00    -0.011 C 
HETATM   65  C   UNK N   1      36.008  15.125  18.064  0.00  0.00     0.011 C 
ENDBRANCH  63  64
ENDBRANCH  61  62
ENDBRANCH  59  61
ENDBRANCH  58  59
BRANCH  58  66
HETATM   66  O   UNK N   1      37.094  11.155  14.580  0.00  0.00    -0.393 OA
HETATM   67  H   UNK N   1      37.984  11.018  14.218  0.00  0.00     0.210 HD
ENDBRANCH  58  66
ENDBRANCH  41  58
BRANCH  37  68
HETATM   68  C   UNK N   1      37.833   7.758  12.662  0.00  0.00     0.009 C 
HETATM   69  C   UNK N   1      38.945   8.533  13.341  0.00  0.00     0.012 C 
HETATM   70  C   UNK N   1      38.274   6.314  12.518  0.00  0.00     0.012 C 
ENDBRANCH  37  68
BRANCH   1  71
HETATM   71  C   UNK N   1      36.812  15.180  13.069  0.00  0.00     0.030 C 
HETATM   72  C   UNK N   1      36.561  14.961  14.547  0.00  0.00     0.007 C 
ENDBRANCH   1  71
BRANCH  33  73
HETATM   73  C   UNK N   1      35.328   4.624   9.791  0.00  0.00     0.039 C 
BRANCH  73  74
HETATM   74  C   UNK N   1      34.008   3.862   9.761  0.00  0.00    -0.020 C 
HETATM   75  C   UNK N   1      34.280   2.380   9.650  0.00  0.00     0.009 C 
HETATM   76  C   UNK N   1      33.177   4.134  10.998  0.00  0.00     0.009 C 
ENDBRANCH  73  74
ENDBRANCH  33  73
BRANCH  29  77
HETATM   77  C   UNK N   1      34.656   3.930   5.951  0.00  0.00     0.039 C 
BRANCH  77  78
HETATM   78  C   UNK N   1      35.609   2.930   5.339  0.00  0.00    -0.020 C 
HETATM   79  C   UNK N   1      36.593   3.677   4.467  0.00  0.00     0.009 C 
HETATM   80  C   UNK N   1      36.350   2.218   6.447  0.00  0.00     0.009 C 
ENDBRANCH  77  78
ENDBRANCH  29  77
BRANCH   9  81
HETATM   81  C   UNK N   1      31.651  17.038   8.314  0.00  0.00     0.039 C 
BRANCH  81  82
HETATM   82  C   UNK N   1      30.195  17.397   8.623  0.00  0.00    -0.020 C 
HETATM   83  C   UNK N   1      29.424  17.545   7.334  0.00  0.00     0.009 C 
HETATM   84  C   UNK N   1      30.061  18.673   9.436  0.00  0.00     0.009 C 
ENDBRANCH  81  82
ENDBRANCH   9  81
BRANCH  13  85
HETATM   85  C   UNK N   1      31.290  14.854   3.315  0.00  0.00     0.009 C 
HETATM   86  C   UNK N   1      32.542  15.719   3.277  0.00  0.00     0.012 C 
HETATM   87  C   UNK N   1      30.080  15.724   3.032  0.00  0.00     0.012 C 
ENDBRANCH  13  85
BRANCH  17  88
HETATM   88  C   UNK N   1      32.975  13.078   1.557  0.00  0.00     0.039 C 
BRANCH  88  89
HETATM   89  C   UNK N   1      34.455  12.868   1.177  0.00  0.00    -0.020 C 
HETATM   90  C   UNK N   1      34.582  12.308  -0.223  0.00  0.00     0.009 C 
HETATM   91  C   UNK N   1      35.311  14.127   1.292  0.00  0.00     0.009 C 
ENDBRANCH  88  89
ENDBRANCH  17  88
TORSDOF 17
ENDMDL
MODEL 6
REMARK VINA RESULT:      -6.4      2.179      9.620
REMARK  17 active torsions:
REMARK  status: ('A' for Active; 'I' for Inactive)
REMARK    1  A    between atoms: C_3  and  C_2 
REMARK    2  A    between atoms: C_11  and  C_81 
REMARK    3  A    between atoms: C_15  and  C_78 
REMARK    4  A    between atoms: C_19  and  C_73 
REMARK    5  A    between atoms: C_31  and  C_66 
REMARK    6  A    between atoms: C_35  and  C_61 
REMARK    7  A    between atoms: C_39  and  C_57 
REMARK    8  A    between atoms: C_43  and  C_47 
REMARK    9  A    between atoms: C_47  and  C_48 
REMARK   10  A    between atoms: C_47  and  O_55 
REMARK   11  A    between atoms: C_48  and  C_50 
REMARK   12  A    between atoms: C_50  and  C_51 
REMARK   13  A    between atoms: C_52  and  C_53 
REMARK   14  A    between atoms: C_61  and  C_62 
REMARK   15  A    between atoms: C_66  and  C_67 
REMARK   16  A    between atoms: C_73  and  C_74 
REMARK   17  A    between atoms: C_81  and  C_82 
ROOT
HETATM    1  C   UNK N   1      19.866  13.243   3.493  0.00  0.00     0.176 C 
HETATM    2  C   UNK N   1      20.637  13.929   4.616  0.00  0.00     0.242 C 
HETATM    3  O   UNK N   1      19.970  14.612   5.393  0.00  0.00    -0.271 OA
HETATM    4  N   UNK N   1      22.002  13.905   4.786  0.00  0.00    -0.346 N 
HETATM    5  C   UNK N   1      22.619  14.793   5.713  0.00  0.00     0.228 C 
HETATM    6  C   UNK N   1      22.422  16.209   5.242  0.00  0.00     0.238 C 
HETATM    7  O   UNK N   1      21.805  16.949   5.976  0.00  0.00    -0.272 OA
HETATM    8  N   UNK N   1      22.944  16.660   4.044  0.00  0.00    -0.342 N 
HETATM    9  C   UNK N   1      23.036  18.087   3.732  0.00  0.00     0.179 C 
HETATM   10  C   UNK N   1      24.185  18.611   4.505  0.00  0.00     0.241 C 
HETATM   11  O   UNK N   1      24.251  18.320   5.687  0.00  0.00    -0.271 OA
HETATM   12  N   UNK N   1      25.268  19.104   3.850  0.00  0.00    -0.346 N 
HETATM   13  C   UNK N   1      26.595  19.032   4.439  0.00  0.00     0.180 C 
HETATM   14  C   UNK N   1      26.909  17.528   4.573  0.00  0.00     0.243 C 
HETATM   15  O   UNK N   1      26.294  16.768   3.835  0.00  0.00    -0.271 OA
HETATM   16  N   UNK N   1      27.820  16.987   5.430  0.00  0.00    -0.341 N 
HETATM   17  C   UNK N   1      28.908  17.770   5.938  0.00  0.00     0.179 C 
HETATM   18  C   UNK N   1      30.153  17.563   5.178  0.00  0.00     0.241 C 
HETATM   19  O   UNK N   1      30.221  18.021   4.050  0.00  0.00    -0.271 OA
HETATM   20  N   UNK N   1      31.175  16.852   5.708  0.00  0.00    -0.346 N 
HETATM   21  C   UNK N   1      32.400  16.601   4.987  0.00  0.00     0.172 C 
HETATM   22  C   UNK N   1      32.193  15.701   3.807  0.00  0.00     0.240 C 
HETATM   23  O   UNK N   1      31.455  16.018   2.884  0.00  0.00    -0.271 OA
HETATM   24  N   UNK N   1      32.891  14.556   3.759  0.00  0.00    -0.346 N 
HETATM   25  C   UNK N   1      32.880  13.686   2.622  0.00  0.00     0.172 C 
HETATM   26  C   UNK N   1      31.702  12.754   2.514  0.00  0.00     0.242 C 
HETATM   27  O   UNK N   1      31.403  12.405   1.382  0.00  0.00    -0.271 OA
HETATM   28  N   UNK N   1      31.234  12.044   3.602  0.00  0.00    -0.341 N 
HETATM   29  C   UNK N   1      30.957  10.626   3.435  0.00  0.00     0.179 C 
HETATM   30  C   UNK N   1      29.587  10.049   3.247  0.00  0.00     0.243 C 
HETATM   31  O   UNK N   1      29.396   8.972   3.797  0.00  0.00    -0.271 OA
HETATM   32  N   UNK N   1      28.735  10.456   2.264  0.00  0.00    -0.341 N 
HETATM   33  C   UNK N   1      27.963   9.460   1.551  0.00  0.00     0.179 C 
HETATM   34  C   UNK N   1      26.493   9.333   1.692  0.00  0.00     0.243 C 
HETATM   35  O   UNK N   1      25.809   9.554   0.707  0.00  0.00    -0.271 OA
HETATM   36  N   UNK N   1      25.939   8.843   2.842  0.00  0.00    -0.341 N 
HETATM   37  C   UNK N   1      24.540   8.532   2.950  0.00  0.00     0.182 C 
HETATM   38  C   UNK N   1      23.672   9.740   3.026  0.00  0.00     0.243 C 
HETATM   39  O   UNK N   1      23.461  10.179   4.145  0.00  0.00    -0.271 OA
HETATM   40  N   UNK N   1      23.444  10.525   1.934  0.00  0.00    -0.339 N 
HETATM   41  C   UNK N   1      22.065  10.799   1.538  0.00  0.00     0.207 C 
HETATM   42  C   UNK N   1      21.235  11.412   2.630  0.00  0.00     0.243 C 
HETATM   43  O   UNK N   1      21.092  10.826   3.691  0.00  0.00    -0.271 OA
HETATM   44  N   UNK N   1      20.672  12.626   2.457  0.00  0.00    -0.346 N 
HETATM   45  C   UNK N   1      24.325  11.657   1.770  0.00  0.00     0.153 C 
HETATM   46  C   UNK N   1      26.735   8.570   4.005  0.00  0.00     0.153 C 
HETATM   47  C   UNK N   1      28.797  11.778   1.698  0.00  0.00     0.153 C 
HETATM   48  C   UNK N   1      31.548  12.458   4.946  0.00  0.00     0.153 C 
HETATM   49  C   UNK N   1      34.122  12.815   2.683  0.00  0.00     0.042 C 
HETATM   50  C   UNK N   1      33.077  17.901   4.578  0.00  0.00     0.042 C 
HETATM   51  C   UNK N   1      27.929  15.545   5.509  0.00  0.00     0.153 C 
HETATM   52  C   UNK N   1      23.694  15.777   3.190  0.00  0.00     0.153 C 
HETATM   53  C   UNK N   1      22.909  13.101   4.019  0.00  0.00     0.153 C 
HETATM   54  H   UNK N   1      25.152  19.516   2.964  0.00  0.00     0.163 HD
HETATM   55  H   UNK N   1      31.080  16.492   6.620  0.00  0.00     0.163 HD
HETATM   56  H   UNK N   1      33.436  14.304   4.539  0.00  0.00     0.163 HD
HETATM   57  H   UNK N   1      20.812  13.105   1.608  0.00  0.00     0.163 HD
ENDROOT
BRANCH  41  58
HETATM   58  C   UNK N   1      21.396   9.580   0.876  0.00  0.00     0.154 C 
BRANCH  58  59
HETATM   59  C   UNK N   1      21.481   9.589  -0.662  0.00  0.00     0.016 C 
HETATM   60  C   UNK N   1      20.541   8.582  -1.297  0.00  0.00     0.013 C 
BRANCH  59  61
HETATM   61  C   UNK N   1      22.892   9.210  -1.087  0.00  0.00     0.034 C 
BRANCH  61  62
HETATM   62  C   UNK N   1      23.031   7.727  -1.242  0.00  0.00    -0.026 C 
HETATM   63  C   UNK N   1      24.138   7.126  -1.710  0.00  0.00    -0.005 C 
BRANCH  63  64
HETATM   64  C   UNK N   1      25.419   7.788  -2.063  0.00  0.00    -0.011 C 
HETATM   65  C   UNK N   1      25.925   7.809  -3.297  0.00  0.00     0.011 C 
ENDBRANCH  63  64
ENDBRANCH  61  62
ENDBRANCH  59  61
ENDBRANCH  58  59
BRANCH  58  66
HETATM   66  O   UNK N   1      20.078   9.490   1.331  0.00  0.00    -0.393 OA
HETATM   67  H   UNK N   1      19.537   8.720   1.566  0.00  0.00     0.210 HD
ENDBRANCH  58  66
ENDBRANCH  41  58
BRANCH  37  68
HETATM   68  C   UNK N   1      24.062   7.271   2.202  0.00  0.00     0.009 C 
HETATM   69  C   UNK N   1      22.744   6.798   2.783  0.00  0.00     0.012 C 
HETATM   70  C   UNK N   1      25.032   6.105   2.201  0.00  0.00     0.012 C 
ENDBRANCH  37  68
BRANCH   1  71
HETATM   71  C   UNK N   1      18.767  12.282   3.972  0.00  0.00     0.030 C 
HETATM   72  C   UNK N   1      17.806  11.879   2.871  0.00  0.00     0.007 C 
ENDBRANCH   1  71
BRANCH  33  73
HETATM   73  C   UNK N   1      28.727   8.279   0.951  0.00  0.00     0.039 C 
BRANCH  73  74
HETATM   74  C   UNK N   1      28.934   8.461  -0.549  0.00  0.00    -0.020 C 
HETATM   75  C   UNK N   1      30.186   9.270  -0.793  0.00  0.00     0.009 C 
HETATM   76  C   UNK N   1      29.040   7.131  -1.266  0.00  0.00     0.009 C 
ENDBRANCH  73  74
ENDBRANCH  33  73
BRANCH  29  77
HETATM   77  C   UNK N   1      31.967   9.958   2.487  0.00  0.00     0.039 C 
BRANCH  77  78
HETATM   78  C   UNK N   1      32.755   8.831   3.114  0.00  0.00    -0.020 C 
HETATM   79  C   UNK N   1      33.561   8.149   2.031  0.00  0.00     0.009 C 
HETATM   80  C   UNK N   1      33.687   9.407   4.155  0.00  0.00     0.009 C 
ENDBRANCH  77  78
ENDBRANCH  29  77
BRANCH   9  81
HETATM   81  C   UNK N   1      21.734  18.904   3.778  0.00  0.00     0.039 C 
BRANCH  81  82
HETATM   82  C   UNK N   1      20.781  18.722   2.593  0.00  0.00    -0.020 C 
HETATM   83  C   UNK N   1      20.330  20.073   2.093  0.00  0.00     0.009 C 
HETATM   84  C   UNK N   1      19.562  17.885   2.940  0.00  0.00     0.009 C 
ENDBRANCH  81  82
ENDBRANCH   9  81
BRANCH  13  85
HETATM   85  C   UNK N   1      26.750  19.969   5.674  0.00  0.00     0.009 C 
HETATM   86  C   UNK N   1      25.562  20.830   6.079  0.00  0.00     0.012 C 
HETATM   87  C   UNK N   1      27.981  20.850   5.558  0.00  0.00     0.012 C 
ENDBRANCH  13  85
BRANCH  17  88
HETATM   88  C   UNK N   1      28.860  18.521   7.265  0.00  0.00     0.039 C 
BRANCH  88  89
HETATM   89  C   UNK N   1      29.302  17.634   8.447  0.00  0.00    -0.020 C 
HETATM   90  C   UNK N   1      30.461  18.260   9.191  0.00  0.00     0.009 C 
HETATM   91  C   UNK N   1      28.185  17.316   9.437  0.00  0.00     0.009 C 
ENDBRANCH  88  89
ENDBRANCH  17  88
TORSDOF 17
ENDMDL
MODEL 7
REMARK VINA RESULT:      -6.2      2.469      9.279
REMARK  17 active torsions:
REMARK  status: ('A' for Active; 'I' for Inactive)
REMARK    1  A    between atoms: C_3  and  C_2 
REMARK    2  A    between atoms: C_11  and  C_81 
REMARK    3  A    between atoms: C_15  and  C_78 
REMARK    4  A    between atoms: C_19  and  C_73 
REMARK    5  A    between atoms: C_31  and  C_66 
REMARK    6  A    between atoms: C_35  and  C_61 
REMARK    7  A    between atoms: C_39  and  C_57 
REMARK    8  A    between atoms: C_43  and  C_47 
REMARK    9  A    between atoms: C_47  and  C_48 
REMARK   10  A    between atoms: C_47  and  O_55 
REMARK   11  A    between atoms: C_48  and  C_50 
REMARK   12  A    between atoms: C_50  and  C_51 
REMARK   13  A    between atoms: C_52  and  C_53 
REMARK   14  A    between atoms: C_61  and  C_62 
REMARK   15  A    between atoms: C_66  and  C_67 
REMARK   16  A    between atoms: C_73  and  C_74 
REMARK   17  A    between atoms: C_81  and  C_82 
ROOT
HETATM    1  C   UNK N   1      27.536   6.600  -0.482  0.00  0.00     0.176 C 
HETATM    2  C   UNK N   1      26.471   6.837   0.584  0.00  0.00     0.242 C 
HETATM    3  O   UNK N   1      25.595   5.977   0.675  0.00  0.00    -0.271 OA
HETATM    4  N   UNK N   1      26.369   7.949   1.387  0.00  0.00    -0.346 N 
HETATM    5  C   UNK N   1      25.188   8.168   2.152  0.00  0.00     0.228 C 
HETATM    6  C   UNK N   1      24.031   8.395   1.217  0.00  0.00     0.238 C 
HETATM    7  O   UNK N   1      23.115   7.606   1.278  0.00  0.00    -0.272 OA
HETATM    8  N   UNK N   1      23.995   9.468   0.346  0.00  0.00    -0.342 N 
HETATM    9  C   UNK N   1      22.760   9.875  -0.325  0.00  0.00     0.179 C 
HETATM   10  C   UNK N   1      21.948  10.585   0.689  0.00  0.00     0.241 C 
HETATM   11  O   UNK N   1      21.811  10.054   1.778  0.00  0.00    -0.271 OA
HETATM   12  N   UNK N   1      21.658  11.902   0.517  0.00  0.00    -0.346 N 
HETATM   13  C   UNK N   1      21.459  12.778   1.659  0.00  0.00     0.180 C 
HETATM   14  C   UNK N   1      22.809  12.801   2.406  0.00  0.00     0.243 C 
HETATM   15  O   UNK N   1      23.805  12.511   1.754  0.00  0.00    -0.271 OA
HETATM   16  N   UNK N   1      22.979  13.129   3.717  0.00  0.00    -0.341 N 
HETATM   17  C   UNK N   1      22.017  13.943   4.403  0.00  0.00     0.179 C 
HETATM   18  C   UNK N   1      22.413  15.361   4.449  0.00  0.00     0.241 C 
HETATM   19  O   UNK N   1      22.367  16.005   3.415  0.00  0.00    -0.271 OA
HETATM   20  N   UNK N   1      22.849  15.918   5.603  0.00  0.00    -0.346 N 
HETATM   21  C   UNK N   1      23.274  17.296   5.686  0.00  0.00     0.172 C 
HETATM   22  C   UNK N   1      24.532  17.551   4.916  0.00  0.00     0.240 C 
HETATM   23  O   UNK N   1      24.588  17.377   3.706  0.00  0.00    -0.271 OA
HETATM   24  N   UNK N   1      25.589  18.040   5.583  0.00  0.00    -0.346 N 
HETATM   25  C   UNK N   1      26.796  18.452   4.932  0.00  0.00     0.172 C 
HETATM   26  C   UNK N   1      27.764  17.353   4.578  0.00  0.00     0.242 C 
HETATM   27  O   UNK N   1      28.495  17.577   3.625  0.00  0.00    -0.271 OA
HETATM   28  N   UNK N   1      28.078  16.346   5.469  0.00  0.00    -0.341 N 
HETATM   29  C   UNK N   1      29.479  16.003   5.657  0.00  0.00     0.179 C 
HETATM   30  C   UNK N   1      30.151  14.818   5.031  0.00  0.00     0.243 C 
HETATM   31  O   UNK N   1      30.981  14.259   5.735  0.00  0.00    -0.271 OA
HETATM   32  N   UNK N   1      30.147  14.583   3.688  0.00  0.00    -0.341 N 
HETATM   33  C   UNK N   1      31.363  14.115   3.058  0.00  0.00     0.179 C 
HETATM   34  C   UNK N   1      31.505  12.746   2.506  0.00  0.00     0.243 C 
HETATM   35  O   UNK N   1      31.669  12.636   1.303  0.00  0.00    -0.271 OA
HETATM   36  N   UNK N   1      31.596  11.662   3.334  0.00  0.00    -0.341 N 
HETATM   37  C   UNK N   1      31.918  10.348   2.849  0.00  0.00     0.182 C 
HETATM   38  C   UNK N   1      30.800   9.706   2.103  0.00  0.00     0.243 C 
HETATM   39  O   UNK N   1      30.014   9.054   2.770  0.00  0.00    -0.271 OA
HETATM   40  N   UNK N   1      30.450  10.116   0.849  0.00  0.00    -0.339 N 
HETATM   41  C   UNK N   1      30.396   9.129  -0.226  0.00  0.00     0.207 C 
HETATM   42  C   UNK N   1      29.485   7.970   0.067  0.00  0.00     0.243 C 
HETATM   43  O   UNK N   1      29.677   7.275   1.052  0.00  0.00    -0.271 OA
HETATM   44  N   UNK N   1      28.433   7.711  -0.738  0.00  0.00    -0.346 N 
HETATM   45  C   UNK N   1      29.402  11.106   0.774  0.00  0.00     0.153 C 
HETATM   46  C   UNK N   1      31.414  11.782   4.753  0.00  0.00     0.153 C 
HETATM   47  C   UNK N   1      29.099  15.069   2.830  0.00  0.00     0.153 C 
HETATM   48  C   UNK N   1      27.213  16.045   6.581  0.00  0.00     0.153 C 
HETATM   49  C   UNK N   1      27.533  19.400   5.862  0.00  0.00     0.042 C 
HETATM   50  C   UNK N   1      22.162  18.243   5.260  0.00  0.00     0.042 C 
HETATM   51  C   UNK N   1      24.299  13.005   4.300  0.00  0.00     0.153 C 
HETATM   52  C   UNK N   1      25.080  10.412   0.296  0.00  0.00     0.153 C 
HETATM   53  C   UNK N   1      27.344   9.000   1.458  0.00  0.00     0.153 C 
HETATM   54  H   UNK N   1      21.581  12.266  -0.393  0.00  0.00     0.163 HD
HETATM   55  H   UNK N   1      22.878  15.363   6.416  0.00  0.00     0.163 HD
HETATM   56  H   UNK N   1      25.532  18.120   6.562  0.00  0.00     0.163 HD
HETATM   57  H   UNK N   1      28.269   8.291  -1.517  0.00  0.00     0.163 HD
ENDROOT
BRANCH  41  58
HETATM   58  C   UNK N   1      31.798   8.698  -0.693  0.00  0.00     0.154 C 
BRANCH  58  59
HETATM   59  C   UNK N   1      32.423   9.654  -1.728  0.00  0.00     0.016 C 
HETATM   60  C   UNK N   1      33.561  10.471  -1.144  0.00  0.00     0.013 C 
BRANCH  59  61
HETATM   61  C   UNK N   1      31.365  10.638  -2.202  0.00  0.00     0.034 C 
BRANCH  61  62
HETATM   62  C   UNK N   1      31.283  10.668  -3.697  0.00  0.00    -0.026 C 
HETATM   63  C   UNK N   1      30.449   9.896  -4.414  0.00  0.00    -0.005 C 
BRANCH  63  64
HETATM   64  C   UNK N   1      29.423   8.969  -3.875  0.00  0.00    -0.011 C 
HETATM   65  C   UNK N   1      29.320   7.689  -4.234  0.00  0.00     0.011 C 
ENDBRANCH  63  64
ENDBRANCH  61  62
ENDBRANCH  59  61
ENDBRANCH  58  59
BRANCH  58  66
HETATM   66  O   UNK N   1      31.731   7.384  -1.162  0.00  0.00    -0.393 OA
HETATM   67  H   UNK N   1      31.101   6.954  -1.762  0.00  0.00     0.210 HD
ENDBRANCH  58  66
ENDBRANCH  41  58
BRANCH  37  68
HETATM   68  C   UNK N   1      33.380  10.120   2.417  0.00  0.00     0.009 C 
HETATM   69  C   UNK N   1      33.608   8.649   2.132  0.00  0.00     0.012 C 
HETATM   70  C   UNK N   1      34.433  10.586   3.404  0.00  0.00     0.012 C 
ENDBRANCH  37  68
BRANCH   1  71
HETATM   71  C   UNK N   1      28.327   5.293  -0.310  0.00  0.00     0.030 C 
HETATM   72  C   UNK N   1      28.824   4.720  -1.622  0.00  0.00     0.007 C 
ENDBRANCH   1  71
BRANCH  33  73
HETATM   73  C   UNK N   1      32.641  14.915   3.318  0.00  0.00     0.039 C 
BRANCH  73  74
HETATM   74  C   UNK N   1      33.849  13.993   3.452  0.00  0.00    -0.020 C 
HETATM   75  C   UNK N   1      34.765  14.185   2.266  0.00  0.00     0.009 C 
HETATM   76  C   UNK N   1      34.614  14.256   4.732  0.00  0.00     0.009 C 
ENDBRANCH  73  74
ENDBRANCH  33  73
BRANCH  29  77
HETATM   77  C   UNK N   1      30.384  17.244   5.587  0.00  0.00     0.039 C 
BRANCH  77  78
HETATM   78  C   UNK N   1      31.103  17.563   6.877  0.00  0.00    -0.020 C 
HETATM   79  C   UNK N   1      30.426  16.810   8.002  0.00  0.00     0.009 C 
HETATM   80  C   UNK N   1      32.541  17.114   6.760  0.00  0.00     0.009 C 
ENDBRANCH  77  78
ENDBRANCH  29  77
BRANCH   9  81
HETATM   81  C   UNK N   1      22.039   8.816  -1.179  0.00  0.00     0.039 C 
BRANCH  81  82
HETATM   82  C   UNK N   1      20.510   8.819  -1.105  0.00  0.00    -0.020 C 
HETATM   83  C   UNK N   1      20.042   7.683  -0.228  0.00  0.00     0.009 C 
HETATM   84  C   UNK N   1      19.854   8.701  -2.470  0.00  0.00     0.009 C 
ENDBRANCH  81  82
ENDBRANCH   9  81
BRANCH  13  85
HETATM   85  C   UNK N   1      20.149  12.456   2.437  0.00  0.00     0.009 C 
HETATM   86  C   UNK N   1      19.458  11.127   2.166  0.00  0.00     0.012 C 
HETATM   87  C   UNK N   1      19.132  13.575   2.311  0.00  0.00     0.012 C 
ENDBRANCH  13  85
BRANCH  17  88
HETATM   88  C   UNK N   1      20.859  13.376   5.218  0.00  0.00     0.039 C 
BRANCH  88  89
HETATM   89  C   UNK N   1      21.326  12.281   6.199  0.00  0.00    -0.020 C 
HETATM   90  C   UNK N   1      21.063  12.689   7.632  0.00  0.00     0.009 C 
HETATM   91  C   UNK N   1      20.701  10.911   5.946  0.00  0.00     0.009 C 
ENDBRANCH  88  89
ENDBRANCH  17  88
TORSDOF 17
ENDMDL
MODEL 8
REMARK VINA RESULT:      -6.2      5.024      9.560
REMARK  17 active torsions:
REMARK  status: ('A' for Active; 'I' for Inactive)
REMARK    1  A    between atoms: C_3  and  C_2 
REMARK    2  A    between atoms: C_11  and  C_81 
REMARK    3  A    between atoms: C_15  and  C_78 
REMARK    4  A    between atoms: C_19  and  C_73 
REMARK    5  A    between atoms: C_31  and  C_66 
REMARK    6  A    between atoms: C_35  and  C_61 
REMARK    7  A    between atoms: C_39  and  C_57 
REMARK    8  A    between atoms: C_43  and  C_47 
REMARK    9  A    between atoms: C_47  and  C_48 
REMARK   10  A    between atoms: C_47  and  O_55 
REMARK   11  A    between atoms: C_48  and  C_50 
REMARK   12  A    between atoms: C_50  and  C_51 
REMARK   13  A    between atoms: C_52  and  C_53 
REMARK   14  A    between atoms: C_61  and  C_62 
REMARK   15  A    between atoms: C_66  and  C_67 
REMARK   16  A    between atoms: C_73  and  C_74 
REMARK   17  A    between atoms: C_81  and  C_82 
ROOT
HETATM    1  C   UNK N   1      36.682  13.876   8.243  0.00  0.00     0.176 C 
HETATM    2  C   UNK N   1      36.157  13.794   6.814  0.00  0.00     0.242 C 
HETATM    3  O   UNK N   1      36.547  14.670   6.042  0.00  0.00    -0.271 OA
HETATM    4  N   UNK N   1      35.242  12.880   6.344  0.00  0.00    -0.346 N 
HETATM    5  C   UNK N   1      34.638  13.070   5.068  0.00  0.00     0.228 C 
HETATM    6  C   UNK N   1      33.794  14.315   5.104  0.00  0.00     0.238 C 
HETATM    7  O   UNK N   1      34.098  15.206   4.343  0.00  0.00    -0.272 OA
HETATM    8  N   UNK N   1      32.701  14.432   5.943  0.00  0.00    -0.342 N 
HETATM    9  C   UNK N   1      31.700  15.484   5.763  0.00  0.00     0.179 C 
HETATM   10  C   UNK N   1      30.859  15.069   4.617  0.00  0.00     0.241 C 
HETATM   11  O   UNK N   1      31.427  14.696   3.604  0.00  0.00    -0.271 OA
HETATM   12  N   UNK N   1      29.540  14.806   4.810  0.00  0.00    -0.346 N 
HETATM   13  C   UNK N   1      28.840  13.841   3.978  0.00  0.00     0.180 C 
HETATM   14  C   UNK N   1      29.522  12.485   4.251  0.00  0.00     0.243 C 
HETATM   15  O   UNK N   1      30.123  12.373   5.313  0.00  0.00    -0.271 OA
HETATM   16  N   UNK N   1      29.495  11.407   3.418  0.00  0.00    -0.341 N 
HETATM   17  C   UNK N   1      28.449  11.253   2.449  0.00  0.00     0.179 C 
HETATM   18  C   UNK N   1      27.374  10.364   2.920  0.00  0.00     0.241 C 
HETATM   19  O   UNK N   1      26.633  10.773   3.799  0.00  0.00    -0.271 OA
HETATM   20  N   UNK N   1      27.238   9.116   2.414  0.00  0.00    -0.346 N 
HETATM   21  C   UNK N   1      26.216   8.202   2.868  0.00  0.00     0.172 C 
HETATM   22  C   UNK N   1      26.432   7.764   4.284  0.00  0.00     0.240 C 
HETATM   23  O   UNK N   1      26.437   8.566   5.208  0.00  0.00    -0.271 OA
HETATM   24  N   UNK N   1      26.561   6.449   4.521  0.00  0.00    -0.346 N 
HETATM   25  C   UNK N   1      26.633   5.902   5.843  0.00  0.00     0.172 C 
HETATM   26  C   UNK N   1      27.982   5.964   6.511  0.00  0.00     0.242 C 
HETATM   27  O   UNK N   1      27.968   5.997   7.732  0.00  0.00    -0.271 OA
HETATM   28  N   UNK N   1      29.141   5.626   5.842  0.00  0.00    -0.341 N 
HETATM   29  C   UNK N   1      30.089   4.744   6.504  0.00  0.00     0.179 C 
HETATM   30  C   UNK N   1      31.344   5.206   7.180  0.00  0.00     0.243 C 
HETATM   31  O   UNK N   1      32.307   4.462   7.056  0.00  0.00    -0.271 OA
HETATM   32  N   UNK N   1      31.357   6.157   8.158  0.00  0.00    -0.341 N 
HETATM   33  C   UNK N   1      32.216   5.965   9.307  0.00  0.00     0.179 C 
HETATM   34  C   UNK N   1      33.412   6.803   9.563  0.00  0.00     0.243 C 
HETATM   35  O   UNK N   1      33.409   7.503  10.561  0.00  0.00    -0.271 OA
HETATM   36  N   UNK N   1      34.533   6.682   8.789  0.00  0.00    -0.341 N 
HETATM   37  C   UNK N   1      35.769   7.338   9.116  0.00  0.00     0.182 C 
HETATM   38  C   UNK N   1      35.739   8.807   8.873  0.00  0.00     0.243 C 
HETATM   39  O   UNK N   1      36.067   9.172   7.756  0.00  0.00    -0.271 OA
HETATM   40  N   UNK N   1      35.040   9.651   9.686  0.00  0.00    -0.339 N 
HETATM   41  C   UNK N   1      35.736  10.784  10.290  0.00  0.00     0.207 C 
HETATM   42  C   UNK N   1      36.405  11.683   9.287  0.00  0.00     0.243 C 
HETATM   43  O   UNK N   1      37.247  11.232   8.528  0.00  0.00    -0.271 OA
HETATM   44  N   UNK N   1      36.055  12.984   9.200  0.00  0.00    -0.346 N 
HETATM   45  C   UNK N   1      33.690   9.958   9.275  0.00  0.00     0.153 C 
HETATM   46  C   UNK N   1      34.551   5.853   7.616  0.00  0.00     0.153 C 
HETATM   47  C   UNK N   1      30.341   7.172   8.250  0.00  0.00     0.153 C 
HETATM   48  C   UNK N   1      29.187   5.613   4.401  0.00  0.00     0.153 C 
HETATM   49  C   UNK N   1      26.251   4.435   5.766  0.00  0.00     0.042 C 
HETATM   50  C   UNK N   1      24.826   8.790   2.678  0.00  0.00     0.042 C 
HETATM   51  C   UNK N   1      30.270  10.236   3.770  0.00  0.00     0.153 C 
HETATM   52  C   UNK N   1      32.335  13.358   6.829  0.00  0.00     0.153 C 
HETATM   53  C   UNK N   1      34.750  11.756   7.088  0.00  0.00     0.153 C 
HETATM   54  H   UNK N   1      29.052  15.276   5.523  0.00  0.00     0.163 HD
HETATM   55  H   UNK N   1      27.859   8.820   1.710  0.00  0.00     0.163 HD
HETATM   56  H   UNK N   1      26.605   5.834   3.754  0.00  0.00     0.163 HD
HETATM   57  H   UNK N   1      35.356  13.335   9.799  0.00  0.00     0.163 HD
ENDROOT
BRANCH  41  58
HETATM   58  C   UNK N   1      36.668  10.352  11.437  0.00  0.00     0.154 C 
BRANCH  58  59
HETATM   59  C   UNK N   1      35.959  10.251  12.801  0.00  0.00     0.016 C 
HETATM   60  C   UNK N   1      35.494   8.839  13.105  0.00  0.00     0.013 C 
BRANCH  59  61
HETATM   61  C   UNK N   1      34.720  11.134  12.787  0.00  0.00     0.034 C 
BRANCH  61  62
HETATM   62  C   UNK N   1      33.812  10.812  13.934  0.00  0.00    -0.026 C 
HETATM   63  C   UNK N   1      33.813  11.484  15.098  0.00  0.00    -0.005 C 
BRANCH  63  64
HETATM   64  C   UNK N   1      34.620  12.687  15.421  0.00  0.00    -0.011 C 
HETATM   65  C   UNK N   1      34.938  13.052  16.664  0.00  0.00     0.011 C 
ENDBRANCH  63  64
ENDBRANCH  61  62
ENDBRANCH  59  61
ENDBRANCH  58  59
BRANCH  58  66
HETATM   66  O   UNK N   1      37.763  11.218  11.475  0.00  0.00    -0.393 OA
HETATM   67  H   UNK N   1      38.320  11.509  12.215  0.00  0.00     0.210 HD
ENDBRANCH  58  66
ENDBRANCH  41  58
BRANCH  37  68
HETATM   68  C   UNK N   1      36.552   6.759  10.311  0.00  0.00     0.009 C 
HETATM   69  C   UNK N   1      37.996   7.214  10.248  0.00  0.00     0.012 C 
HETATM   70  C   UNK N   1      36.531   5.247  10.436  0.00  0.00     0.012 C 
ENDBRANCH  37  68
BRANCH   1  71
HETATM   71  C   UNK N   1      38.213  13.810   8.362  0.00  0.00     0.030 C 
HETATM   72  C   UNK N   1      38.722  14.204   9.734  0.00  0.00     0.007 C 
ENDBRANCH   1  71
BRANCH  33  73
HETATM   73  C   UNK N   1      32.108   4.631  10.049  0.00  0.00     0.039 C 
BRANCH  73  74
HETATM   74  C   UNK N   1      31.241   4.765  11.296  0.00  0.00    -0.020 C 
HETATM   75  C   UNK N   1      29.830   4.327  10.982  0.00  0.00     0.009 C 
HETATM   76  C   UNK N   1      31.784   3.942  12.446  0.00  0.00     0.009 C 
ENDBRANCH  73  74
ENDBRANCH  33  73
BRANCH  29  77
HETATM   77  C   UNK N   1      29.377   3.674   7.348  0.00  0.00     0.039 C 
BRANCH  77  78
HETATM   78  C   UNK N   1      29.780   2.255   7.021  0.00  0.00    -0.020 C 
HETATM   79  C   UNK N   1      30.177   1.561   8.305  0.00  0.00     0.009 C 
HETATM   80  C   UNK N   1      28.602   1.541   6.401  0.00  0.00     0.009 C 
ENDBRANCH  77  78
ENDBRANCH  29  77
BRANCH   9  81
HETATM   81  C   UNK N   1      32.198  16.940   5.771  0.00  0.00     0.039 C 
BRANCH  81  82
HETATM   82  C   UNK N   1      32.525  17.533   7.144  0.00  0.00    -0.020 C 
HETATM   83  C   UNK N   1      34.010  17.435   7.398  0.00  0.00     0.009 C 
HETATM   84  C   UNK N   1      31.777  16.849   8.275  0.00  0.00     0.009 C 
ENDBRANCH  81  82
ENDBRANCH   9  81
BRANCH  13  85
HETATM   85  C   UNK N   1      28.662  14.337   2.512  0.00  0.00     0.009 C 
HETATM   86  C   UNK N   1      29.334  15.641   2.106  0.00  0.00     0.012 C 
HETATM   87  C   UNK N   1      27.198  14.391   2.113  0.00  0.00     0.012 C 
ENDBRANCH  13  85
BRANCH  17  88
HETATM   88  C   UNK N   1      28.560  11.731   1.004  0.00  0.00     0.039 C 
BRANCH  88  89
HETATM   89  C   UNK N   1      29.715  11.037   0.254  0.00  0.00    -0.020 C 
HETATM   90  C   UNK N   1      29.229   9.794  -0.460  0.00  0.00     0.009 C 
HETATM   91  C   UNK N   1      30.437  11.938  -0.746  0.00  0.00     0.009 C 
ENDBRANCH  88  89
ENDBRANCH  17  88
TORSDOF 17
ENDMDL
MODEL 9
REMARK VINA RESULT:      -6.0      2.398      6.697
REMARK  17 active torsions:
REMARK  status: ('A' for Active; 'I' for Inactive)
REMARK    1  A    between atoms: C_3  and  C_2 
REMARK    2  A    between atoms: C_11  and  C_81 
REMARK    3  A    between atoms: C_15  and  C_78 
REMARK    4  A    between atoms: C_19  and  C_73 
REMARK    5  A    between atoms: C_31  and  C_66 
REMARK    6  A    between atoms: C_35  and  C_61 
REMARK    7  A    between atoms: C_39  and  C_57 
REMARK    8  A    between atoms: C_43  and  C_47 
REMARK    9  A    between atoms: C_47  and  C_48 
REMARK   10  A    between atoms: C_47  and  O_55 
REMARK   11  A    between atoms: C_48  and  C_50 
REMARK   12  A    between atoms: C_50  and  C_51 
REMARK   13  A    between atoms: C_52  and  C_53 
REMARK   14  A    between atoms: C_61  and  C_62 
REMARK   15  A    between atoms: C_66  and  C_67 
REMARK   16  A    between atoms: C_73  and  C_74 
REMARK   17  A    between atoms: C_81  and  C_82 
ROOT
HETATM    1  C   UNK N   1      32.458  15.157   4.785  0.00  0.00     0.176 C 
HETATM    2  C   UNK N   1      31.353  15.951   4.095  0.00  0.00     0.242 C 
HETATM    3  O   UNK N   1      31.444  17.177   4.161  0.00  0.00    -0.271 OA
HETATM    4  N   UNK N   1      30.245  15.419   3.479  0.00  0.00    -0.346 N 
HETATM    5  C   UNK N   1      29.163  16.266   3.105  0.00  0.00     0.228 C 
HETATM    6  C   UNK N   1      28.539  16.843   4.347  0.00  0.00     0.238 C 
HETATM    7  O   UNK N   1      28.560  18.049   4.461  0.00  0.00    -0.272 OA
HETATM    8  N   UNK N   1      27.941  16.044   5.304  0.00  0.00    -0.342 N 
HETATM    9  C   UNK N   1      27.066  16.601   6.335  0.00  0.00     0.179 C 
HETATM   10  C   UNK N   1      25.772  16.890   5.674  0.00  0.00     0.241 C 
HETATM   11  O   UNK N   1      25.801  17.496   4.616  0.00  0.00    -0.271 OA
HETATM   12  N   UNK N   1      24.654  16.223   6.062  0.00  0.00    -0.346 N 
HETATM   13  C   UNK N   1      23.574  15.965   5.124  0.00  0.00     0.180 C 
HETATM   14  C   UNK N   1      24.178  15.054   4.035  0.00  0.00     0.243 C 
HETATM   15  O   UNK N   1      25.170  14.407   4.345  0.00  0.00    -0.271 OA
HETATM   16  N   UNK N   1      23.688  14.905   2.772  0.00  0.00    -0.341 N 
HETATM   17  C   UNK N   1      22.313  15.190   2.477  0.00  0.00     0.179 C 
HETATM   18  C   UNK N   1      21.477  13.978   2.475  0.00  0.00     0.241 C 
HETATM   19  O   UNK N   1      21.238  13.442   3.544  0.00  0.00    -0.271 OA
HETATM   20  N   UNK N   1      21.017  13.458   1.313  0.00  0.00    -0.346 N 
HETATM   21  C   UNK N   1      20.218  12.256   1.263  0.00  0.00     0.172 C 
HETATM   22  C   UNK N   1      20.993  11.041   1.672  0.00  0.00     0.240 C 
HETATM   23  O   UNK N   1      21.477  10.937   2.791  0.00  0.00    -0.271 OA
HETATM   24  N   UNK N   1      21.090  10.033   0.791  0.00  0.00    -0.346 N 
HETATM   25  C   UNK N   1      21.684   8.771   1.117  0.00  0.00     0.172 C 
HETATM   26  C   UNK N   1      23.188   8.715   1.063  0.00  0.00     0.242 C 
HETATM   27  O   UNK N   1      23.714   7.887   1.791  0.00  0.00    -0.271 OA
HETATM   28  N   UNK N   1      23.899   9.267   0.016  0.00  0.00    -0.341 N 
HETATM   29  C   UNK N   1      24.955   8.476  -0.595  0.00  0.00     0.179 C 
HETATM   30  C   UNK N   1      26.416   8.657  -0.316  0.00  0.00     0.243 C 
HETATM   31  O   UNK N   1      27.153   8.506  -1.281  0.00  0.00    -0.271 OA
HETATM   32  N   UNK N   1      26.946   8.617   0.941  0.00  0.00    -0.341 N 
HETATM   33  C   UNK N   1      28.200   7.925   1.149  0.00  0.00     0.179 C 
HETATM   34  C   UNK N   1      29.459   8.632   1.487  0.00  0.00     0.243 C 
HETATM   35  O   UNK N   1      29.958   8.407   2.576  0.00  0.00    -0.271 OA
HETATM   36  N   UNK N   1      30.109   9.391   0.554  0.00  0.00    -0.341 N 
HETATM   37  C   UNK N   1      31.418   9.938   0.783  0.00  0.00     0.182 C 
HETATM   38  C   UNK N   1      31.421  11.079   1.740  0.00  0.00     0.243 C 
HETATM   39  O   UNK N   1      31.258  12.186   1.253  0.00  0.00    -0.271 OA
HETATM   40  N   UNK N   1      31.232  10.891   3.078  0.00  0.00    -0.339 N 
HETATM   41  C   UNK N   1      32.224  11.418   4.011  0.00  0.00     0.207 C 
HETATM   42  C   UNK N   1      32.465  12.894   3.863  0.00  0.00     0.243 C 
HETATM   43  O   UNK N   1      32.843  13.347   2.794  0.00  0.00    -0.271 OA
HETATM   44  N   UNK N   1      32.234  13.728   4.898  0.00  0.00    -0.346 N 
HETATM   45  C   UNK N   1      29.874  11.014   3.552  0.00  0.00     0.153 C 
HETATM   46  C   UNK N   1      29.534   9.655  -0.735  0.00  0.00     0.153 C 
HETATM   47  C   UNK N   1      26.172   8.956   2.106  0.00  0.00     0.153 C 
HETATM   48  C   UNK N   1      23.307  10.269  -0.834  0.00  0.00     0.153 C 
HETATM   49  C   UNK N   1      21.173   7.740   0.126  0.00  0.00     0.042 C 
HETATM   50  C   UNK N   1      18.947  12.404   2.086  0.00  0.00     0.042 C 
HETATM   51  C   UNK N   1      24.426  14.088   1.832  0.00  0.00     0.153 C 
HETATM   52  C   UNK N   1      27.903  14.614   5.148  0.00  0.00     0.153 C 
HETATM   53  C   UNK N   1      30.028  14.019   3.250  0.00  0.00     0.153 C 
HETATM   54  H   UNK N   1      24.575  15.910   6.991  0.00  0.00     0.163 HD
HETATM   55  H   UNK N   1      21.236  13.917   0.470  0.00  0.00     0.163 HD
HETATM   56  H   UNK N   1      20.736  10.166  -0.118  0.00  0.00     0.163 HD
HETATM   57  H   UNK N   1      31.905  13.359   5.750  0.00  0.00     0.163 HD
ENDROOT
BRANCH  41  58
HETATM   58  C   UNK N   1      33.520  10.586   4.015  0.00  0.00     0.154 C 
BRANCH  58  59
HETATM   59  C   UNK N   1      33.504   9.425   5.028  0.00  0.00     0.016 C 
HETATM   60  C   UNK N   1      33.037   8.123   4.404  0.00  0.00     0.013 C 
BRANCH  59  61
HETATM   61  C   UNK N   1      32.531   9.755   6.150  0.00  0.00     0.034 C 
BRANCH  61  62
HETATM   62  C   UNK N   1      33.204   9.690   7.487  0.00  0.00    -0.026 C 
HETATM   63  C   UNK N   1      33.753  10.755   8.098  0.00  0.00    -0.005 C 
BRANCH  63  64
HETATM   64  C   UNK N   1      33.716  12.160   7.623  0.00  0.00    -0.011 C 
HETATM   65  C   UNK N   1      34.089  13.203   8.367  0.00  0.00     0.011 C 
ENDBRANCH  63  64
ENDBRANCH  61  62
ENDBRANCH  59  61
ENDBRANCH  58  59
BRANCH  58  66
HETATM   66  O   UNK N   1      34.603  11.446   4.215  0.00  0.00    -0.393 OA
HETATM   67  H   UNK N   1      35.400  11.599   3.684  0.00  0.00     0.210 HD
ENDBRANCH  58  66
ENDBRANCH  41  58
BRANCH  37  68
HETATM   68  C   UNK N   1      32.589   8.935   0.760  0.00  0.00     0.009 C 
HETATM   69  C   UNK N   1      33.895   9.675   0.549  0.00  0.00     0.012 C 
HETATM   70  C   UNK N   1      32.487   7.836  -0.281  0.00  0.00     0.012 C 
ENDBRANCH  37  68
BRANCH   1  71
HETATM   71  C   UNK N   1      33.872  15.446   4.258  0.00  0.00     0.030 C 
HETATM   72  C   UNK N   1      34.945  15.310   5.320  0.00  0.00     0.007 C 
ENDBRANCH   1  71
BRANCH  33  73
HETATM   73  C   UNK N   1      28.305   6.491   0.628  0.00  0.00     0.039 C 
BRANCH  73  74
HETATM   74  C   UNK N   1      27.547   5.521   1.528  0.00  0.00    -0.020 C 
HETATM   75  C   UNK N   1      26.956   4.411   0.692  0.00  0.00     0.009 C 
HETATM   76  C   UNK N   1      28.444   4.931   2.596  0.00  0.00     0.009 C 
ENDBRANCH  73  74
ENDBRANCH  33  73
BRANCH  29  77
HETATM   77  C   UNK N   1      24.590   6.983  -0.648  0.00  0.00     0.039 C 
BRANCH  77  78
HETATM   78  C   UNK N   1      24.453   6.426  -2.046  0.00  0.00    -0.020 C 
HETATM   79  C   UNK N   1      23.286   5.465  -2.068  0.00  0.00     0.009 C 
HETATM   80  C   UNK N   1      24.191   7.566  -3.003  0.00  0.00     0.009 C 
ENDBRANCH  77  78
ENDBRANCH  29  77
BRANCH   9  81
HETATM   81  C   UNK N   1      27.649  17.703   7.237  0.00  0.00     0.039 C 
BRANCH  81  82
HETATM   82  C   UNK N   1      28.764  17.271   8.194  0.00  0.00    -0.020 C 
HETATM   83  C   UNK N   1      28.590  17.966   9.522  0.00  0.00     0.009 C 
HETATM   84  C   UNK N   1      30.152  17.564   7.653  0.00  0.00     0.009 C 
ENDBRANCH  81  82
ENDBRANCH   9  81
BRANCH  13  85
HETATM   85  C   UNK N   1      22.817  17.264   4.716  0.00  0.00     0.009 C 
HETATM   86  C   UNK N   1      23.613  18.389   4.068  0.00  0.00     0.012 C 
HETATM   87  C   UNK N   1      22.012  17.830   5.871  0.00  0.00     0.012 C 
ENDBRANCH  13  85
BRANCH  17  88
HETATM   88  C   UNK N   1      21.822  16.540   1.965  0.00  0.00     0.039 C 
BRANCH  88  89
HETATM   89  C   UNK N   1      20.283  16.604   1.893  0.00  0.00    -0.020 C 
HETATM   90  C   UNK N   1      19.745  17.723   2.758  0.00  0.00     0.009 C 
HETATM   91  C   UNK N   1      19.733  16.758   0.476  0.00  0.00     0.009 C 
ENDBRANCH  88  89
ENDBRANCH  17  88
TORSDOF 17
ENDMDL
