MODEL 1
REMARK VINA RESULT:      -8.4      0.000      0.000
REMARK  8 active torsions:
REMARK  status: ('A' for Active; 'I' for Inactive)
REMARK    1  A    between atoms: C_14  and  C_11 
REMARK    2  A    between atoms: O_32  and  C_11 
REMARK    3  A    between atoms: C_15  and  N_28 
REMARK    4  A    between atoms: C_18  and  N_27 
REMARK    5  A    between atoms: C_19  and  O_29 
REMARK    6  A    between atoms: N_27  and  C_20 
REMARK    7  A    between atoms: S_33  and  N_22 
REMARK    8  A    between atoms: S_33  and  O_32 
ROOT
HETATM    1  C   UNK N   1      29.341  17.612   5.178  0.00  0.00     0.036 A 
HETATM    2  C   UNK N   1      28.208  18.199   4.604  0.00  0.00     0.094 A 
HETATM    3  C   UNK N   1      28.405  18.454   9.059  0.00  0.00     0.183 A 
HETATM    4  C   UNK N   1      29.196  17.800   6.537  0.00  0.00     0.053 A 
HETATM    5  C   UNK N   1      30.002  17.453   7.610  0.00  0.00     0.116 A 
HETATM    6  C   UNK N   1      28.038  18.470   6.744  0.00  0.00     0.122 A 
HETATM    7  N   UNK N   1      29.592  17.794   8.867  0.00  0.00    -0.338 N 
ATOM      8  HN  UNK N   1      30.172  17.555   9.670  1.00  0.00     0.168 HD
HETATM    9  N   UNK N   1      27.626  18.803   7.991  0.00  0.00    -0.338 N 
ATOM     10  HN  UNK N   1      26.750  19.305   8.131  1.00  0.00     0.168 HD
HETATM   11  N   UNK N   1      27.416  18.726   5.574  0.00  0.00    -0.338 N 
ENDROOT
BRANCH  11  12
HETATM   12  C   UNK N   1      26.164  19.455   5.301  0.00  0.00     0.094 C 
HETATM   13  C   UNK N   1      25.161  18.542   4.597  0.00  0.00     0.035 C 
HETATM   14  C   UNK N   1      24.734  19.243   3.316  0.00  0.00     0.042 C 
HETATM   15  C   UNK N   1      25.864  20.231   3.032  0.00  0.00     0.126 C 
HETATM   16  C   UNK N   1      26.343  20.683   4.403  0.00  0.00     0.057 C 
BRANCH  14  17
HETATM   17  C   UNK N   1      23.339  19.878   3.447  0.00  0.00     0.199 C 
BRANCH  17  18
HETATM   18  O   UNK N   1      22.915  20.507   2.275  0.00  0.00    -0.259 OA
BRANCH  18  19
HETATM   19  S   UNK N   1      21.219  20.267   2.198  0.00  0.00     0.355 S 
HETATM   20  O   UNK N   1      20.881  18.773   2.309  0.00  0.00    -0.176 OA
HETATM   21  O   UNK N   1      20.581  20.903   3.441  0.00  0.00    -0.176 OA
BRANCH  19  22
HETATM   22  N   UNK N   1      20.423  20.954   0.778  0.00  0.00    -0.306 N 
HETATM   23  H   UNK N   1      19.495  21.040   0.365  0.00  0.00     0.171 HD
HETATM   24  H   UNK N   1      21.112  21.410   0.180  0.00  0.00     0.171 HD
ENDBRANCH  19  22
ENDBRANCH  18  19
ENDBRANCH  17  18
ENDBRANCH  14  17
BRANCH  15  25
HETATM   25  O   UNK N   1      25.470  21.300   2.226  0.00  0.00    -0.395 OA
HETATM   26  H   UNK N   1      24.561  21.641   2.255  0.00  0.00     0.210 HD
ENDBRANCH  15  25
ENDBRANCH  11  12
BRANCH   5  27
HETATM   27  N   UNK N   1      31.211  16.753   7.397  0.00  0.00    -0.367 N 
HETATM   28  H   UNK N   1      31.185  15.770   7.383  0.00  0.00     0.161 HD
BRANCH  27  29
HETATM   29  C   UNK N   1      32.480  17.409   7.201  0.00  0.00     0.117 A 
HETATM   30  C   UNK N   1      33.294  17.433   8.511  0.00  0.00     0.034 A 
HETATM   31  C   UNK N   1      34.545  16.548   8.324  0.00  0.00     0.041 A 
HETATM   32  C   UNK N   1      34.404  16.062   6.941  0.00  0.00    -0.050 A 
HETATM   33  C   UNK N   1      35.267  15.176   6.292  0.00  0.00     0.007 A 
HETATM   34  C   UNK N   1      33.290  16.545   6.320  0.00  0.00    -0.029 A 
HETATM   35  C   UNK N   1      34.969  14.785   4.977  0.00  0.00     0.001 A 
HETATM   36  C   UNK N   1      33.821  15.283   4.336  0.00  0.00     0.001 A 
HETATM   37  C   UNK N   1      32.970  16.171   5.011  0.00  0.00     0.010 A 
ENDBRANCH  27  29
ENDBRANCH   5  27
TORSDOF 8
ENDMDL
MODEL 2
REMARK VINA RESULT:      -8.2      6.363     10.664
REMARK  8 active torsions:
REMARK  status: ('A' for Active; 'I' for Inactive)
REMARK    1  A    between atoms: C_14  and  C_11 
REMARK    2  A    between atoms: O_32  and  C_11 
REMARK    3  A    between atoms: C_15  and  N_28 
REMARK    4  A    between atoms: C_18  and  N_27 
REMARK    5  A    between atoms: C_19  and  O_29 
REMARK    6  A    between atoms: N_27  and  C_20 
REMARK    7  A    between atoms: S_33  and  N_22 
REMARK    8  A    between atoms: S_33  and  O_32 
ROOT
HETATM    1  C   UNK N   1      29.051  17.415   6.746  0.00  0.00     0.036 A 
HETATM    2  C   UNK N   1      30.262  17.185   7.408  0.00  0.00     0.094 A 
HETATM    3  C   UNK N   1      30.387  16.551   2.989  0.00  0.00     0.183 A 
HETATM    4  C   UNK N   1      29.314  17.160   5.416  0.00  0.00     0.053 A 
HETATM    5  C   UNK N   1      28.514  17.232   4.286  0.00  0.00     0.116 A 
HETATM    6  C   UNK N   1      30.615  16.806   5.308  0.00  0.00     0.122 A 
HETATM    7  N   UNK N   1      29.071  16.928   3.077  0.00  0.00    -0.338 N 
ATOM      8  HN  UNK N   1      28.504  16.981   2.231  1.00  0.00     0.168 HD
HETATM    9  N   UNK N   1      31.168  16.497   4.110  0.00  0.00    -0.338 N 
ATOM     10  HN  UNK N   1      32.149  16.228   4.046  1.00  0.00     0.168 HD
HETATM   11  N   UNK N   1      31.217  16.814   6.516  0.00  0.00    -0.338 N 
ENDROOT
BRANCH  11  12
HETATM   12  C   UNK N   1      32.618  16.540   6.884  0.00  0.00     0.094 C 
HETATM   13  C   UNK N   1      32.709  16.130   8.353  0.00  0.00     0.035 C 
HETATM   14  C   UNK N   1      33.712  17.060   9.020  0.00  0.00     0.042 C 
HETATM   15  C   UNK N   1      33.751  18.287   8.111  0.00  0.00     0.126 C 
HETATM   16  C   UNK N   1      33.553  17.740   6.706  0.00  0.00     0.057 C 
BRANCH  14  17
HETATM   17  C   UNK N   1      35.072  16.374   9.239  0.00  0.00     0.199 C 
BRANCH  17  18
HETATM   18  O   UNK N   1      35.643  16.681  10.476  0.00  0.00    -0.259 OA
BRANCH  18  19
HETATM   19  S   UNK N   1      35.905  15.178  11.259  0.00  0.00     0.355 S 
HETATM   20  O   UNK N   1      34.670  14.276  11.121  0.00  0.00    -0.176 OA
HETATM   21  O   UNK N   1      37.019  14.430  10.514  0.00  0.00    -0.176 OA
BRANCH  19  22
HETATM   22  N   UNK N   1      36.376  15.285  12.958  0.00  0.00    -0.306 N 
HETATM   23  H   UNK N   1      36.220  15.870  13.779  0.00  0.00     0.171 HD
HETATM   24  H   UNK N   1      37.006  14.518  13.193  0.00  0.00     0.171 HD
ENDBRANCH  19  22
ENDBRANCH  18  19
ENDBRANCH  17  18
ENDBRANCH  14  17
BRANCH  15  25
HETATM   25  O   UNK N   1      34.929  19.026   8.235  0.00  0.00    -0.395 OA
HETATM   26  H   UNK N   1      35.122  19.530   9.042  0.00  0.00     0.210 HD
ENDBRANCH  15  25
ENDBRANCH  11  12
BRANCH   5  27
HETATM   27  N   UNK N   1      27.155  17.601   4.395  0.00  0.00    -0.367 N 
HETATM   28  H   UNK N   1      26.469  16.932   4.172  0.00  0.00     0.161 HD
BRANCH  27  29
HETATM   29  C   UNK N   1      26.723  18.911   4.817  0.00  0.00     0.117 A 
HETATM   30  C   UNK N   1      27.391  20.011   3.966  0.00  0.00     0.034 A 
HETATM   31  C   UNK N   1      26.300  20.715   3.134  0.00  0.00     0.041 A 
HETATM   32  C   UNK N   1      25.070  20.008   3.532  0.00  0.00    -0.050 A 
HETATM   33  C   UNK N   1      23.790  20.240   3.024  0.00  0.00     0.007 A 
HETATM   34  C   UNK N   1      25.295  19.038   4.463  0.00  0.00    -0.029 A 
HETATM   35  C   UNK N   1      22.727  19.451   3.488  0.00  0.00     0.001 A 
HETATM   36  C   UNK N   1      22.957  18.451   4.448  0.00  0.00     0.001 A 
HETATM   37  C   UNK N   1      24.253  18.237   4.943  0.00  0.00     0.010 A 
ENDBRANCH  27  29
ENDBRANCH   5  27
TORSDOF 8
ENDMDL
MODEL 3
REMARK VINA RESULT:      -8.2      6.506     10.485
REMARK  8 active torsions:
REMARK  status: ('A' for Active; 'I' for Inactive)
REMARK    1  A    between atoms: C_14  and  C_11 
REMARK    2  A    between atoms: O_32  and  C_11 
REMARK    3  A    between atoms: C_15  and  N_28 
REMARK    4  A    between atoms: C_18  and  N_27 
REMARK    5  A    between atoms: C_19  and  O_29 
REMARK    6  A    between atoms: N_27  and  C_20 
REMARK    7  A    between atoms: S_33  and  N_22 
REMARK    8  A    between atoms: S_33  and  O_32 
ROOT
HETATM    1  C   UNK N   1      29.438  17.187   6.716  0.00  0.00     0.036 A 
HETATM    2  C   UNK N   1      30.622  16.981   7.432  0.00  0.00     0.094 A 
HETATM    3  C   UNK N   1      30.997  16.531   3.004  0.00  0.00     0.183 A 
HETATM    4  C   UNK N   1      29.778  16.997   5.393  0.00  0.00     0.053 A 
HETATM    5  C   UNK N   1      29.034  17.082   4.226  0.00  0.00     0.116 A 
HETATM    6  C   UNK N   1      31.097  16.701   5.340  0.00  0.00     0.122 A 
HETATM    7  N   UNK N   1      29.664  16.850   3.037  0.00  0.00    -0.338 N 
ATOM      8  HN  UNK N   1      29.138  16.914   2.166  1.00  0.00     0.168 HD
HETATM    9  N   UNK N   1      31.723  16.464   4.161  0.00  0.00    -0.338 N 
ATOM     10  HN  UNK N   1      32.717  16.239   4.138  1.00  0.00     0.168 HD
HETATM   11  N   UNK N   1      31.636  16.685   6.577  0.00  0.00    -0.338 N 
ENDROOT
BRANCH  11  12
HETATM   12  C   UNK N   1      33.028  16.455   7.006  0.00  0.00     0.094 C 
HETATM   13  C   UNK N   1      33.067  16.047   8.479  0.00  0.00     0.035 C 
HETATM   14  C   UNK N   1      34.010  17.007   9.188  0.00  0.00     0.042 C 
HETATM   15  C   UNK N   1      34.051  18.235   8.281  0.00  0.00     0.126 C 
HETATM   16  C   UNK N   1      33.932  17.683   6.869  0.00  0.00     0.057 C 
BRANCH  14  17
HETATM   17  C   UNK N   1      35.380  16.363   9.467  0.00  0.00     0.199 C 
BRANCH  17  18
HETATM   18  O   UNK N   1      35.857  16.636  10.750  0.00  0.00    -0.259 OA
BRANCH  18  19
HETATM   19  S   UNK N   1      35.776  15.154  11.609  0.00  0.00     0.355 S 
HETATM   20  O   UNK N   1      34.326  14.657  11.690  0.00  0.00    -0.176 OA
HETATM   21  O   UNK N   1      36.511  14.081  10.794  0.00  0.00    -0.176 OA
BRANCH  19  22
HETATM   22  N   UNK N   1      36.489  15.178  13.226  0.00  0.00    -0.306 N 
HETATM   23  H   UNK N   1      36.757  14.539  13.973  0.00  0.00     0.171 HD
HETATM   24  H   UNK N   1      36.698  16.139  13.498  0.00  0.00     0.171 HD
ENDBRANCH  19  22
ENDBRANCH  18  19
ENDBRANCH  17  18
ENDBRANCH  14  17
BRANCH  15  25
HETATM   25  O   UNK N   1      35.199  19.010   8.456  0.00  0.00    -0.395 OA
HETATM   26  H   UNK N   1      35.147  19.907   8.823  0.00  0.00     0.210 HD
ENDBRANCH  15  25
ENDBRANCH  11  12
BRANCH   5  27
HETATM   27  N   UNK N   1      27.656  17.390   4.279  0.00  0.00    -0.367 N 
HETATM   28  H   UNK N   1      27.062  16.791   4.785  0.00  0.00     0.161 HD
BRANCH  27  29
HETATM   29  C   UNK N   1      27.078  18.540   3.628  0.00  0.00     0.117 A 
HETATM   30  C   UNK N   1      25.586  18.301   3.316  0.00  0.00     0.034 A 
HETATM   31  C   UNK N   1      24.747  19.272   4.173  0.00  0.00     0.041 A 
HETATM   32  C   UNK N   1      25.769  20.018   4.928  0.00  0.00    -0.050 A 
HETATM   33  C   UNK N   1      25.523  20.998   5.891  0.00  0.00     0.007 A 
HETATM   34  C   UNK N   1      27.041  19.634   4.619  0.00  0.00    -0.029 A 
HETATM   35  C   UNK N   1      26.615  21.589   6.545  0.00  0.00     0.001 A 
HETATM   36  C   UNK N   1      27.926  21.196   6.227  0.00  0.00     0.001 A 
HETATM   37  C   UNK N   1      28.146  20.207   5.256  0.00  0.00     0.010 A 
ENDBRANCH  27  29
ENDBRANCH   5  27
TORSDOF 8
ENDMDL
MODEL 4
REMARK VINA RESULT:      -8.1      8.561     12.204
REMARK  8 active torsions:
REMARK  status: ('A' for Active; 'I' for Inactive)
REMARK    1  A    between atoms: C_14  and  C_11 
REMARK    2  A    between atoms: O_32  and  C_11 
REMARK    3  A    between atoms: C_15  and  N_28 
REMARK    4  A    between atoms: C_18  and  N_27 
REMARK    5  A    between atoms: C_19  and  O_29 
REMARK    6  A    between atoms: N_27  and  C_20 
REMARK    7  A    between atoms: S_33  and  N_22 
REMARK    8  A    between atoms: S_33  and  O_32 
ROOT
HETATM    1  C   UNK N   1      36.033  14.167  13.714  0.00  0.00     0.036 A 
HETATM    2  C   UNK N   1      35.798  15.048  12.653  0.00  0.00     0.094 A 
HETATM    3  C   UNK N   1      37.764  11.204  11.508  0.00  0.00     0.183 A 
HETATM    4  C   UNK N   1      36.640  13.067  13.144  0.00  0.00     0.053 A 
HETATM    5  C   UNK N   1      37.088  11.874  13.687  0.00  0.00     0.116 A 
HETATM    6  C   UNK N   1      36.747  13.294  11.814  0.00  0.00     0.122 A 
HETATM    7  N   UNK N   1      37.645  10.949  12.850  0.00  0.00    -0.338 N 
ATOM      8  HN  UNK N   1      37.975  10.061  13.227  1.00  0.00     0.168 HD
HETATM    9  N   UNK N   1      37.305  12.381  10.983  0.00  0.00    -0.338 N 
ATOM     10  HN  UNK N   1      37.382  12.567   9.984  1.00  0.00     0.168 HD
HETATM   11  N   UNK N   1      36.238  14.501  11.490  0.00  0.00    -0.338 N 
ENDROOT
BRANCH  11  12
HETATM   12  C   UNK N   1      36.101  15.154  10.175  0.00  0.00     0.094 C 
HETATM   13  C   UNK N   1      35.449  16.528  10.332  0.00  0.00     0.035 C 
HETATM   14  C   UNK N   1      34.237  16.560   9.413  0.00  0.00     0.042 C 
HETATM   15  C   UNK N   1      33.896  15.088   9.185  0.00  0.00     0.126 C 
HETATM   16  C   UNK N   1      35.239  14.372   9.180  0.00  0.00     0.057 C 
BRANCH  14  17
HETATM   17  C   UNK N   1      34.511  17.366   8.131  0.00  0.00     0.199 C 
BRANCH  17  18
HETATM   18  O   UNK N   1      33.342  17.771   7.483  0.00  0.00    -0.259 OA
BRANCH  18  19
HETATM   19  S   UNK N   1      33.420  17.100   5.907  0.00  0.00     0.355 S 
HETATM   20  O   UNK N   1      33.531  18.211   4.853  0.00  0.00    -0.176 OA
HETATM   21  O   UNK N   1      34.729  16.310   5.780  0.00  0.00    -0.176 OA
BRANCH  19  22
HETATM   22  N   UNK N   1      32.094  16.010   5.486  0.00  0.00    -0.306 N 
HETATM   23  H   UNK N   1      31.938  15.056   5.160  0.00  0.00     0.171 HD
HETATM   24  H   UNK N   1      31.201  16.486   5.607  0.00  0.00     0.171 HD
ENDBRANCH  19  22
ENDBRANCH  18  19
ENDBRANCH  17  18
ENDBRANCH  14  17
BRANCH  15  25
HETATM   25  O   UNK N   1      33.169  14.867   8.015  0.00  0.00    -0.395 OA
HETATM   26  H   UNK N   1      32.816  13.988   7.804  0.00  0.00     0.210 HD
ENDBRANCH  15  25
ENDBRANCH  11  12
BRANCH   5  27
HETATM   27  N   UNK N   1      36.977  11.635  15.075  0.00  0.00    -0.367 N 
HETATM   28  H   UNK N   1      37.717  11.919  15.659  0.00  0.00     0.161 HD
BRANCH  27  29
HETATM   29  C   UNK N   1      35.835  10.995  15.679  0.00  0.00     0.117 A 
HETATM   30  C   UNK N   1      36.179   9.557  16.119  0.00  0.00     0.034 A 
HETATM   31  C   UNK N   1      36.117   9.490  17.659  0.00  0.00     0.041 A 
HETATM   32  C   UNK N   1      35.745  10.865  18.037  0.00  0.00    -0.050 A 
HETATM   33  C   UNK N   1      35.602  11.346  19.340  0.00  0.00     0.007 A 
HETATM   34  C   UNK N   1      35.572  11.682  16.959  0.00  0.00    -0.029 A 
HETATM   35  C   UNK N   1      35.275  12.699  19.527  0.00  0.00     0.001 A 
HETATM   36  C   UNK N   1      35.095  13.541  18.417  0.00  0.00     0.001 A 
HETATM   37  C   UNK N   1      35.245  13.033  17.118  0.00  0.00     0.010 A 
ENDBRANCH  27  29
ENDBRANCH   5  27
TORSDOF 8
ENDMDL
MODEL 5
REMARK VINA RESULT:      -8.0      2.403      4.075
REMARK  8 active torsions:
REMARK  status: ('A' for Active; 'I' for Inactive)
REMARK    1  A    between atoms: C_14  and  C_11 
REMARK    2  A    between atoms: O_32  and  C_11 
REMARK    3  A    between atoms: C_15  and  N_28 
REMARK    4  A    between atoms: C_18  and  N_27 
REMARK    5  A    between atoms: C_19  and  O_29 
REMARK    6  A    between atoms: N_27  and  C_20 
REMARK    7  A    between atoms: S_33  and  N_22 
REMARK    8  A    between atoms: S_33  and  O_32 
ROOT
HETATM    1  C   UNK N   1      27.944  18.336   4.569  0.00  0.00     0.036 A 
HETATM    2  C   UNK N   1      26.551  18.463   4.572  0.00  0.00     0.094 A 
HETATM    3  C   UNK N   1      28.124  15.058   2.147  0.00  0.00     0.183 A 
HETATM    4  C   UNK N   1      28.205  17.243   3.769  0.00  0.00     0.053 A 
HETATM    5  C   UNK N   1      29.392  16.627   3.406  0.00  0.00     0.116 A 
HETATM    6  C   UNK N   1      27.021  16.753   3.334  0.00  0.00     0.122 A 
HETATM    7  N   UNK N   1      29.331  15.528   2.596  0.00  0.00    -0.338 N 
ATOM      8  HN  UNK N   1      30.191  15.054   2.322  1.00  0.00     0.168 HD
HETATM    9  N   UNK N   1      26.959  15.667   2.525  0.00  0.00    -0.338 N 
ATOM     10  HN  UNK N   1      26.060  15.312   2.202  1.00  0.00     0.168 HD
HETATM   11  N   UNK N   1      25.993  17.484   3.813  0.00  0.00    -0.338 N 
ENDROOT
BRANCH  11  12
HETATM   12  C   UNK N   1      24.539  17.308   3.643  0.00  0.00     0.094 C 
HETATM   13  C   UNK N   1      23.798  18.570   4.081  0.00  0.00     0.035 C 
HETATM   14  C   UNK N   1      22.768  18.152   5.119  0.00  0.00     0.042 C 
HETATM   15  C   UNK N   1      23.290  16.819   5.654  0.00  0.00     0.126 C 
HETATM   16  C   UNK N   1      23.954  16.151   4.459  0.00  0.00     0.057 C 
BRANCH  14  17
HETATM   17  C   UNK N   1      21.348  18.099   4.529  0.00  0.00     0.199 C 
BRANCH  17  18
HETATM   18  O   UNK N   1      21.336  18.155   3.134  0.00  0.00    -0.259 OA
BRANCH  18  19
HETATM   19  S   UNK N   1      20.265  19.428   2.722  0.00  0.00     0.355 S 
HETATM   20  O   UNK N   1      20.270  20.511   3.811  0.00  0.00    -0.176 OA
HETATM   21  O   UNK N   1      20.805  20.133   1.470  0.00  0.00    -0.176 OA
BRANCH  19  22
HETATM   22  N   UNK N   1      18.602  18.935   2.381  0.00  0.00    -0.306 N 
HETATM   23  H   UNK N   1      17.903  18.266   2.701  0.00  0.00     0.171 HD
HETATM   24  H   UNK N   1      18.221  19.500   1.622  0.00  0.00     0.171 HD
ENDBRANCH  19  22
ENDBRANCH  18  19
ENDBRANCH  17  18
ENDBRANCH  14  17
BRANCH  15  25
HETATM   25  O   UNK N   1      22.293  16.026   6.222  0.00  0.00    -0.395 OA
HETATM   26  H   UNK N   1      22.061  16.108   7.161  0.00  0.00     0.210 HD
ENDBRANCH  15  25
ENDBRANCH  11  12
BRANCH   5  27
HETATM   27  N   UNK N   1      30.629  17.136   3.859  0.00  0.00    -0.367 N 
HETATM   28  H   UNK N   1      30.862  18.066   3.635  0.00  0.00     0.161 HD
BRANCH  27  29
HETATM   29  C   UNK N   1      31.568  16.362   4.632  0.00  0.00     0.117 A 
HETATM   30  C   UNK N   1      33.020  16.731   4.264  0.00  0.00     0.034 A 
HETATM   31  C   UNK N   1      33.678  17.404   5.487  0.00  0.00     0.041 A 
HETATM   32  C   UNK N   1      32.601  17.392   6.492  0.00  0.00    -0.050 A 
HETATM   33  C   UNK N   1      32.673  17.934   7.777  0.00  0.00     0.007 A 
HETATM   34  C   UNK N   1      31.456  16.808   6.035  0.00  0.00    -0.029 A 
HETATM   35  C   UNK N   1      31.539  17.870   8.601  0.00  0.00     0.001 A 
HETATM   36  C   UNK N   1      30.359  17.267   8.132  0.00  0.00     0.001 A 
HETATM   37  C   UNK N   1      30.312  16.731   6.836  0.00  0.00     0.010 A 
ENDBRANCH  27  29
ENDBRANCH   5  27
TORSDOF 8
ENDMDL
MODEL 6
REMARK VINA RESULT:      -7.8      7.641     11.442
REMARK  8 active torsions:
REMARK  status: ('A' for Active; 'I' for Inactive)
REMARK    1  A    between atoms: C_14  and  C_11 
REMARK    2  A    between atoms: O_32  and  C_11 
REMARK    3  A    between atoms: C_15  and  N_28 
REMARK    4  A    between atoms: C_18  and  N_27 
REMARK    5  A    between atoms: C_19  and  O_29 
REMARK    6  A    between atoms: N_27  and  C_20 
REMARK    7  A    between atoms: S_33  and  N_22 
REMARK    8  A    between atoms: S_33  and  O_32 
ROOT
HETATM    1  C   UNK N   1      31.543  17.724   8.005  0.00  0.00     0.036 A 
HETATM    2  C   UNK N   1      32.569  17.167   8.777  0.00  0.00     0.094 A 
HETATM    3  C   UNK N   1      30.757  14.400   5.775  0.00  0.00     0.183 A 
HETATM    4  C   UNK N   1      31.133  16.711   7.163  0.00  0.00     0.053 A 
HETATM    5  C   UNK N   1      30.168  16.670   6.169  0.00  0.00     0.116 A 
HETATM    6  C   UNK N   1      31.888  15.620   7.427  0.00  0.00     0.122 A 
HETATM    7  N   UNK N   1      29.998  15.503   5.480  0.00  0.00    -0.338 N 
ATOM      8  HN  UNK N   1      29.298  15.451   4.739  1.00  0.00     0.168 HD
HETATM    9  N   UNK N   1      31.716  14.459   6.748  0.00  0.00    -0.338 N 
ATOM     10  HN  UNK N   1      32.290  13.644   6.961  1.00  0.00     0.168 HD
HETATM   11  N   UNK N   1      32.775  15.874   8.412  0.00  0.00    -0.338 N 
ENDROOT
BRANCH  11  12
HETATM   12  C   UNK N   1      33.817  15.014   9.002  0.00  0.00     0.094 C 
HETATM   13  C   UNK N   1      33.478  14.693  10.456  0.00  0.00     0.035 C 
HETATM   14  C   UNK N   1      34.676  15.101  11.300  0.00  0.00     0.042 C 
HETATM   15  C   UNK N   1      35.416  16.121  10.437  0.00  0.00     0.126 C 
HETATM   16  C   UNK N   1      35.213  15.644   9.006  0.00  0.00     0.057 C 
BRANCH  14  17
HETATM   17  C   UNK N   1      35.517  13.884  11.727  0.00  0.00     0.199 C 
BRANCH  17  18
HETATM   18  O   UNK N   1      36.558  14.221  12.595  0.00  0.00    -0.259 OA
BRANCH  18  19
HETATM   19  S   UNK N   1      36.254  13.365  14.049  0.00  0.00     0.355 S 
HETATM   20  O   UNK N   1      36.634  14.219  15.267  0.00  0.00    -0.176 OA
HETATM   21  O   UNK N   1      34.739  13.153  14.180  0.00  0.00    -0.176 OA
BRANCH  19  22
HETATM   22  N   UNK N   1      37.027  11.780  14.168  0.00  0.00    -0.306 N 
HETATM   23  H   UNK N   1      37.530  11.203  14.841  0.00  0.00     0.171 HD
HETATM   24  H   UNK N   1      36.942  11.285  13.281  0.00  0.00     0.171 HD
ENDBRANCH  19  22
ENDBRANCH  18  19
ENDBRANCH  17  18
ENDBRANCH  14  17
BRANCH  15  25
HETATM   25  O   UNK N   1      36.766  16.247  10.770  0.00  0.00    -0.395 OA
HETATM   26  H   UNK N   1      37.259  15.503  11.150  0.00  0.00     0.210 HD
ENDBRANCH  15  25
ENDBRANCH  11  12
BRANCH   5  27
HETATM   27  N   UNK N   1      29.379  17.808   5.892  0.00  0.00    -0.367 N 
HETATM   28  H   UNK N   1      29.716  18.463   5.239  0.00  0.00     0.161 HD
BRANCH  27  29
HETATM   29  C   UNK N   1      28.104  18.058   6.518  0.00  0.00     0.117 A 
HETATM   30  C   UNK N   1      28.167  19.315   7.410  0.00  0.00     0.034 A 
HETATM   31  C   UNK N   1      27.258  20.398   6.791  0.00  0.00     0.041 A 
HETATM   32  C   UNK N   1      26.716  19.732   5.594  0.00  0.00    -0.050 A 
HETATM   33  C   UNK N   1      25.862  20.309   4.652  0.00  0.00     0.007 A 
HETATM   34  C   UNK N   1      27.160  18.451   5.453  0.00  0.00    -0.029 A 
HETATM   35  C   UNK N   1      25.464  19.544   3.544  0.00  0.00     0.001 A 
HETATM   36  C   UNK N   1      25.921  18.223   3.399  0.00  0.00     0.001 A 
HETATM   37  C   UNK N   1      26.779  17.667   4.359  0.00  0.00     0.010 A 
ENDBRANCH  27  29
ENDBRANCH   5  27
TORSDOF 8
ENDMDL
MODEL 7
REMARK VINA RESULT:      -7.7      7.405     10.863
REMARK  8 active torsions:
REMARK  status: ('A' for Active; 'I' for Inactive)
REMARK    1  A    between atoms: C_14  and  C_11 
REMARK    2  A    between atoms: O_32  and  C_11 
REMARK    3  A    between atoms: C_15  and  N_28 
REMARK    4  A    between atoms: C_18  and  N_27 
REMARK    5  A    between atoms: C_19  and  O_29 
REMARK    6  A    between atoms: N_27  and  C_20 
REMARK    7  A    between atoms: S_33  and  N_22 
REMARK    8  A    between atoms: S_33  and  O_32 
ROOT
HETATM    1  C   UNK N   1      34.855  13.991  12.061  0.00  0.00     0.036 A 
HETATM    2  C   UNK N   1      34.145  14.609  11.026  0.00  0.00     0.094 A 
HETATM    3  C   UNK N   1      38.353  13.503  10.020  0.00  0.00     0.183 A 
HETATM    4  C   UNK N   1      36.109  13.745  11.542  0.00  0.00     0.053 A 
HETATM    5  C   UNK N   1      37.233  13.143  12.086  0.00  0.00     0.116 A 
HETATM    6  C   UNK N   1      36.126  14.192  10.264  0.00  0.00     0.122 A 
HETATM    7  N   UNK N   1      38.347  13.026  11.306  0.00  0.00    -0.338 N 
ATOM      8  HN  UNK N   1      39.184  12.580  11.683  1.00  0.00     0.168 HD
HETATM    9  N   UNK N   1      37.233  14.083   9.491  0.00  0.00    -0.338 N 
ATOM     10  HN  UNK N   1      37.232  14.427   8.532  1.00  0.00     0.168 HD
HETATM   11  N   UNK N   1      34.934  14.725   9.926  0.00  0.00    -0.338 N 
ENDROOT
BRANCH  11  12
HETATM   12  C   UNK N   1      34.474  15.295   8.646  0.00  0.00     0.094 C 
HETATM   13  C   UNK N   1      34.680  16.809   8.635  0.00  0.00     0.035 C 
HETATM   14  C   UNK N   1      33.337  17.445   8.310  0.00  0.00     0.042 C 
HETATM   15  C   UNK N   1      32.312  16.375   8.684  0.00  0.00     0.126 C 
HETATM   16  C   UNK N   1      32.989  15.053   8.356  0.00  0.00     0.057 C 
BRANCH  14  17
HETATM   17  C   UNK N   1      33.268  17.923   6.848  0.00  0.00     0.199 C 
BRANCH  17  18
HETATM   18  O   UNK N   1      34.229  17.322   6.033  0.00  0.00    -0.259 OA
BRANCH  18  19
HETATM   19  S   UNK N   1      33.358  16.493   4.811  0.00  0.00     0.355 S 
HETATM   20  O   UNK N   1      31.941  16.151   5.296  0.00  0.00    -0.176 OA
HETATM   21  O   UNK N   1      33.145  17.451   3.631  0.00  0.00    -0.176 OA
BRANCH  19  22
HETATM   22  N   UNK N   1      34.139  15.037   4.184  0.00  0.00    -0.306 N 
HETATM   23  H   UNK N   1      33.907  14.174   3.693  0.00  0.00     0.171 HD
HETATM   24  H   UNK N   1      35.140  15.072   4.373  0.00  0.00     0.171 HD
ENDBRANCH  19  22
ENDBRANCH  18  19
ENDBRANCH  17  18
ENDBRANCH  14  17
BRANCH  15  25
HETATM   25  O   UNK N   1      31.092  16.527   8.023  0.00  0.00    -0.395 OA
HETATM   26  H   UNK N   1      30.903  16.043   7.203  0.00  0.00     0.210 HD
ENDBRANCH  15  25
ENDBRANCH  11  12
BRANCH   5  27
HETATM   27  N   UNK N   1      37.218  12.676  13.419  0.00  0.00    -0.367 N 
HETATM   28  H   UNK N   1      37.775  13.141  14.083  0.00  0.00     0.161 HD
BRANCH  27  29
HETATM   29  C   UNK N   1      36.426  11.552  13.854  0.00  0.00     0.117 A 
HETATM   30  C   UNK N   1      37.317  10.318  14.109  0.00  0.00     0.034 A 
HETATM   31  C   UNK N   1      37.286   9.997  15.618  0.00  0.00     0.041 A 
HETATM   32  C   UNK N   1      36.393  11.036  16.161  0.00  0.00    -0.050 A 
HETATM   33  C   UNK N   1      36.068  11.215  17.506  0.00  0.00     0.007 A 
HETATM   34  C   UNK N   1      35.909  11.873  15.199  0.00  0.00    -0.029 A 
HETATM   35  C   UNK N   1      35.226  12.281  17.861  0.00  0.00     0.001 A 
HETATM   36  C   UNK N   1      34.725  13.143  16.871  0.00  0.00     0.001 A 
HETATM   37  C   UNK N   1      35.068  12.942  15.525  0.00  0.00     0.010 A 
ENDBRANCH  27  29
ENDBRANCH   5  27
TORSDOF 8
ENDMDL
MODEL 8
REMARK VINA RESULT:      -7.7      7.136     11.094
REMARK  8 active torsions:
REMARK  status: ('A' for Active; 'I' for Inactive)
REMARK    1  A    between atoms: C_14  and  C_11 
REMARK    2  A    between atoms: O_32  and  C_11 
REMARK    3  A    between atoms: C_15  and  N_28 
REMARK    4  A    between atoms: C_18  and  N_27 
REMARK    5  A    between atoms: C_19  and  O_29 
REMARK    6  A    between atoms: N_27  and  C_20 
REMARK    7  A    between atoms: S_33  and  N_22 
REMARK    8  A    between atoms: S_33  and  O_32 
ROOT
HETATM    1  C   UNK N   1      30.260  16.920   7.292  0.00  0.00     0.036 A 
HETATM    2  C   UNK N   1      31.434  16.772   8.039  0.00  0.00     0.094 A 
HETATM    3  C   UNK N   1      30.981  13.890   4.658  0.00  0.00     0.183 A 
HETATM    4  C   UNK N   1      30.325  15.943   6.321  0.00  0.00     0.053 A 
HETATM    5  C   UNK N   1      29.465  15.610   5.286  0.00  0.00     0.116 A 
HETATM    6  C   UNK N   1      31.483  15.264   6.490  0.00  0.00     0.122 A 
HETATM    7  N   UNK N   1      29.814  14.581   4.459  0.00  0.00    -0.338 N 
ATOM      8  HN  UNK N   1      29.200  14.323   3.686  1.00  0.00     0.168 HD
HETATM    9  N   UNK N   1      31.828  14.238   5.674  0.00  0.00    -0.338 N 
ATOM     10  HN  UNK N   1      32.702  13.733   5.817  1.00  0.00     0.168 HD
HETATM   11  N   UNK N   1      32.179  15.754   7.537  0.00  0.00    -0.338 N 
ENDROOT
BRANCH  11  12
HETATM   12  C   UNK N   1      33.498  15.365   8.070  0.00  0.00     0.094 C 
HETATM   13  C   UNK N   1      33.341  14.688   9.430  0.00  0.00     0.035 C 
HETATM   14  C   UNK N   1      34.224  15.441  10.414  0.00  0.00     0.042 C 
HETATM   15  C   UNK N   1      34.421  16.813   9.771  0.00  0.00     0.126 C 
HETATM   16  C   UNK N   1      34.457  16.542   8.275  0.00  0.00     0.057 C 
BRANCH  14  17
HETATM   17  C   UNK N   1      35.525  14.677  10.718  0.00  0.00     0.199 C 
BRANCH  17  18
HETATM   18  O   UNK N   1      36.267  15.255  11.749  0.00  0.00    -0.259 OA
BRANCH  18  19
HETATM   19  S   UNK N   1      36.229  14.131  13.044  0.00  0.00     0.355 S 
HETATM   20  O   UNK N   1      34.794  13.647  13.296  0.00  0.00    -0.176 OA
HETATM   21  O   UNK N   1      36.996  12.872  12.616  0.00  0.00    -0.176 OA
BRANCH  19  22
HETATM   22  N   UNK N   1      36.940  14.700  14.558  0.00  0.00    -0.306 N 
HETATM   23  H   UNK N   1      37.637  14.422  15.249  0.00  0.00     0.171 HD
HETATM   24  H   UNK N   1      36.519  15.588  14.827  0.00  0.00     0.171 HD
ENDBRANCH  19  22
ENDBRANCH  18  19
ENDBRANCH  17  18
ENDBRANCH  14  17
BRANCH  15  25
HETATM   25  O   UNK N   1      35.566  17.472  10.221  0.00  0.00    -0.395 OA
HETATM   26  H   UNK N   1      36.403  17.412   9.732  0.00  0.00     0.210 HD
ENDBRANCH  15  25
ENDBRANCH  11  12
BRANCH   5  27
HETATM   27  N   UNK N   1      28.256  16.318   5.107  0.00  0.00    -0.367 N 
HETATM   28  H   UNK N   1      27.606  16.328   5.847  0.00  0.00     0.161 HD
BRANCH  27  29
HETATM   29  C   UNK N   1      27.925  17.025   3.895  0.00  0.00     0.117 A 
HETATM   30  C   UNK N   1      26.670  16.421   3.232  0.00  0.00     0.034 A 
HETATM   31  C   UNK N   1      25.536  17.466   3.290  0.00  0.00     0.041 A 
HETATM   32  C   UNK N   1      26.171  18.609   3.969  0.00  0.00    -0.050 A 
HETATM   33  C   UNK N   1      25.547  19.809   4.311  0.00  0.00     0.007 A 
HETATM   34  C   UNK N   1      27.478  18.378   4.283  0.00  0.00    -0.029 A 
HETATM   35  C   UNK N   1      26.290  20.787   4.990  0.00  0.00     0.001 A 
HETATM   36  C   UNK N   1      27.638  20.551   5.313  0.00  0.00     0.001 A 
HETATM   37  C   UNK N   1      28.242  19.336   4.959  0.00  0.00     0.010 A 
ENDBRANCH  27  29
ENDBRANCH   5  27
TORSDOF 8
ENDMDL
MODEL 9
REMARK VINA RESULT:      -7.7      9.426     12.890
REMARK  8 active torsions:
REMARK  status: ('A' for Active; 'I' for Inactive)
REMARK    1  A    between atoms: C_14  and  C_11 
REMARK    2  A    between atoms: O_32  and  C_11 
REMARK    3  A    between atoms: C_15  and  N_28 
REMARK    4  A    between atoms: C_18  and  N_27 
REMARK    5  A    between atoms: C_19  and  O_29 
REMARK    6  A    between atoms: N_27  and  C_20 
REMARK    7  A    between atoms: S_33  and  N_22 
REMARK    8  A    between atoms: S_33  and  O_32 
ROOT
HETATM    1  C   UNK N   1      35.996  11.254  12.836  0.00  0.00     0.036 A 
HETATM    2  C   UNK N   1      35.826  11.779  11.550  0.00  0.00     0.094 A 
HETATM    3  C   UNK N   1      36.821  14.791  14.694  0.00  0.00     0.183 A 
HETATM    4  C   UNK N   1      36.288  12.341  13.634  0.00  0.00     0.053 A 
HETATM    5  C   UNK N   1      36.570  12.445  14.987  0.00  0.00     0.116 A 
HETATM    6  C   UNK N   1      36.293  13.444  12.849  0.00  0.00     0.122 A 
HETATM    7  N   UNK N   1      36.840  13.681  15.500  0.00  0.00    -0.338 N 
ATOM      8  HN  UNK N   1      37.057  13.781  16.491  1.00  0.00     0.168 HD
HETATM    9  N   UNK N   1      36.555  14.673  13.358  0.00  0.00    -0.338 N 
ATOM     10  HN  UNK N   1      36.552  15.495  12.755  1.00  0.00     0.168 HD
HETATM   11  N   UNK N   1      36.013  13.125  11.569  0.00  0.00    -0.338 N 
ENDROOT
BRANCH  11  12
HETATM   12  C   UNK N   1      35.948  13.977  10.367  0.00  0.00     0.094 C 
HETATM   13  C   UNK N   1      34.567  14.619  10.247  0.00  0.00     0.035 C 
HETATM   14  C   UNK N   1      34.026  14.271   8.869  0.00  0.00     0.042 C 
HETATM   15  C   UNK N   1      34.811  13.027   8.457  0.00  0.00     0.126 C 
HETATM   16  C   UNK N   1      36.195  13.223   9.057  0.00  0.00     0.057 C 
BRANCH  14  17
HETATM   17  C   UNK N   1      34.136  15.457   7.894  0.00  0.00     0.199 C 
BRANCH  17  18
HETATM   18  O   UNK N   1      34.953  16.482   8.375  0.00  0.00    -0.259 OA
BRANCH  18  19
HETATM   19  S   UNK N   1      34.219  17.947   7.867  0.00  0.00     0.355 S 
HETATM   20  O   UNK N   1      35.018  19.155   8.376  0.00  0.00    -0.176 OA
HETATM   21  O   UNK N   1      34.315  18.033   6.338  0.00  0.00    -0.176 OA
BRANCH  19  22
HETATM   22  N   UNK N   1      32.517  18.130   8.307  0.00  0.00    -0.306 N 
HETATM   23  H   UNK N   1      31.589  18.050   7.893  0.00  0.00     0.171 HD
HETATM   24  H   UNK N   1      32.439  18.404   9.286  0.00  0.00     0.171 HD
ENDBRANCH  19  22
ENDBRANCH  18  19
ENDBRANCH  17  18
ENDBRANCH  14  17
BRANCH  15  25
HETATM   25  O   UNK N   1      34.852  12.835   7.075  0.00  0.00    -0.395 OA
HETATM   26  H   UNK N   1      35.277  12.052   6.691  0.00  0.00     0.210 HD
ENDBRANCH  15  25
ENDBRANCH  11  12
BRANCH   5  27
HETATM   27  N   UNK N   1      36.564  11.295  15.807  0.00  0.00    -0.367 N 
HETATM   28  H   UNK N   1      37.428  10.907  16.074  0.00  0.00     0.161 HD
BRANCH  27  29
HETATM   29  C   UNK N   1      35.356  10.662  16.273  0.00  0.00     0.117 A 
HETATM   30  C   UNK N   1      35.417   9.135  16.058  0.00  0.00     0.034 A 
HETATM   31  C   UNK N   1      35.447   8.448  17.439  0.00  0.00     0.041 A 
HETATM   32  C   UNK N   1      35.399   9.584  18.377  0.00  0.00    -0.050 A 
HETATM   33  C   UNK N   1      35.449   9.500  19.769  0.00  0.00     0.007 A 
HETATM   34  C   UNK N   1      35.330  10.790  17.744  0.00  0.00    -0.029 A 
HETATM   35  C   UNK N   1      35.428  10.687  20.518  0.00  0.00     0.001 A 
HETATM   36  C   UNK N   1      35.355  11.930  19.867  0.00  0.00     0.001 A 
HETATM   37  C   UNK N   1      35.307  11.988  18.466  0.00  0.00     0.010 A 
ENDBRANCH  27  29
ENDBRANCH   5  27
TORSDOF 8
ENDMDL
