MODEL 1
REMARK VINA RESULT:      -6.9      0.000      0.000
REMARK  6 active torsions:
REMARK  status: ('A' for Active; 'I' for Inactive)
REMARK    1  A    between atoms: C_2  and  S_4 
REMARK    2  A    between atoms: S_4  and  N_7 
REMARK    3  A    between atoms: C_8  and  N_7 
REMARK    4  A    between atoms: C_12  and  O_13 
REMARK    5  A    between atoms: O_13  and  C_14 
REMARK    6  A    between atoms: C_17  and  C_20 
ROOT
HETATM    1  C   UNK N   1      27.605  19.343   6.639  0.00  0.00     0.016 A 
HETATM    2  C   UNK N   1      27.300  20.701   6.817  0.00  0.00     0.022 A 
HETATM    3  C   UNK N   1      26.565  21.245   5.703  0.00  0.00     0.031 A 
HETATM    4  C   UNK N   1      26.342  20.308   4.688  0.00  0.00     0.086 A 
HETATM    5  S   UNK N   1      26.974  18.889   5.175  0.00  0.00    -0.079 SA
HETATM    6  C   UNK N   1      25.825  20.467   3.357  0.00  0.00     0.107 C 
HETATM    7  N   UNK N   1      25.410  20.576   2.273  0.00  0.00    -0.191 NA
ENDROOT
BRANCH   1   8
HETATM    8  C   UNK N   1      28.565  18.470   7.332  0.00  0.00    -0.019 A 
HETATM    9  C   UNK N   1      28.942  18.604   8.689  0.00  0.00     0.015 A 
HETATM   10  C   UNK N   1      30.117  17.951   9.141  0.00  0.00     0.037 A 
HETATM   11  C   UNK N   1      30.893  17.194   8.229  0.00  0.00     0.069 A 
HETATM   12  C   UNK N   1      30.429  17.004   6.932  0.00  0.00     0.037 A 
HETATM   13  C   UNK N   1      29.303  17.633   6.494  0.00  0.00     0.015 A 
BRANCH  11  14
HETATM   14  O   UNK N   1      32.116  16.706   8.563  0.00  0.00    -0.342 OA
BRANCH  14  15
HETATM   15  C   UNK N   1      32.425  15.342   8.539  0.00  0.00     0.178 C 
HETATM   16  C   UNK N   1      32.976  14.919   9.889  0.00  0.00     0.202 C 
HETATM   17  O   UNK N   1      34.246  14.336   9.703  0.00  0.00    -0.386 OA
HETATM   18  C   UNK N   1      34.240  13.893   8.376  0.00  0.00     0.196 C 
HETATM   19  C   UNK N   1      33.568  14.980   7.589  0.00  0.00     0.148 C 
BRANCH  19  20
HETATM   20  N   UNK N   1      33.122  14.446   6.293  0.00  0.00    -0.310 N 
HETATM   21  H   UNK N   1      32.443  13.697   6.162  0.00  0.00     0.172 HD
BRANCH  20  22
HETATM   22  S   UNK N   1      33.967  15.325   4.983  0.00  0.00     0.230 S 
HETATM   23  O   UNK N   1      34.904  16.305   5.719  0.00  0.00    -0.206 OA
HETATM   24  O   UNK N   1      34.980  14.328   4.391  0.00  0.00    -0.206 OA
BRANCH  22  25
HETATM   25  C   UNK N   1      33.023  16.194   3.664  0.00  0.00     0.121 C 
HETATM   26  C   UNK N   1      31.701  15.493   3.392  0.00  0.00     0.027 C 
HETATM   27  C   UNK N   1      32.724  17.621   4.105  0.00  0.00     0.027 C 
ENDBRANCH  22  25
ENDBRANCH  20  22
ENDBRANCH  19  20
ENDBRANCH  14  15
ENDBRANCH  11  14
ENDBRANCH   1   8
TORSDOF 6
ENDMDL
MODEL 2
REMARK VINA RESULT:      -6.7      2.458      4.009
REMARK  6 active torsions:
REMARK  status: ('A' for Active; 'I' for Inactive)
REMARK    1  A    between atoms: C_2  and  S_4 
REMARK    2  A    between atoms: S_4  and  N_7 
REMARK    3  A    between atoms: C_8  and  N_7 
REMARK    4  A    between atoms: C_12  and  O_13 
REMARK    5  A    between atoms: O_13  and  C_14 
REMARK    6  A    between atoms: C_17  and  C_20 
ROOT
HETATM    1  C   UNK N   1      27.428  19.249   6.127  0.00  0.00     0.016 A 
HETATM    2  C   UNK N   1      27.355  20.642   6.273  0.00  0.00     0.022 A 
HETATM    3  C   UNK N   1      26.567  21.257   5.235  0.00  0.00     0.031 A 
HETATM    4  C   UNK N   1      26.075  20.335   4.305  0.00  0.00     0.086 A 
HETATM    5  S   UNK N   1      26.548  18.852   4.781  0.00  0.00    -0.079 SA
HETATM    6  C   UNK N   1      25.414  20.529   3.045  0.00  0.00     0.107 C 
HETATM    7  N   UNK N   1      24.879  20.666   2.018  0.00  0.00    -0.191 NA
ENDROOT
BRANCH   1   8
HETATM    8  C   UNK N   1      28.332  18.260   6.738  0.00  0.00    -0.019 A 
HETATM    9  C   UNK N   1      28.565  18.133   8.127  0.00  0.00     0.015 A 
HETATM   10  C   UNK N   1      29.702  17.407   8.566  0.00  0.00     0.037 A 
HETATM   11  C   UNK N   1      30.584  16.841   7.611  0.00  0.00     0.069 A 
HETATM   12  C   UNK N   1      30.258  16.902   6.261  0.00  0.00     0.037 A 
HETATM   13  C   UNK N   1      29.169  17.602   5.837  0.00  0.00     0.015 A 
BRANCH  11  14
HETATM   14  O   UNK N   1      31.777  16.301   7.972  0.00  0.00    -0.342 OA
BRANCH  14  15
HETATM   15  C   UNK N   1      32.723  16.988   8.741  0.00  0.00     0.178 C 
HETATM   16  C   UNK N   1      33.437  18.012   7.875  0.00  0.00     0.202 C 
HETATM   17  O   UNK N   1      34.825  17.772   7.934  0.00  0.00    -0.386 OA
HETATM   18  C   UNK N   1      35.015  17.087   9.138  0.00  0.00     0.196 C 
HETATM   19  C   UNK N   1      33.876  16.114   9.235  0.00  0.00     0.148 C 
BRANCH  19  20
HETATM   20  N   UNK N   1      33.730  15.663  10.627  0.00  0.00    -0.310 N 
HETATM   21  H   UNK N   1      32.951  15.888  11.245  0.00  0.00     0.172 HD
BRANCH  20  22
HETATM   22  S   UNK N   1      35.145  14.657  11.062  0.00  0.00     0.230 S 
HETATM   23  O   UNK N   1      36.056  15.603  11.871  0.00  0.00    -0.206 OA
HETATM   24  O   UNK N   1      34.658  13.695  12.161  0.00  0.00    -0.206 OA
BRANCH  22  25
HETATM   25  C   UNK N   1      36.111  13.773   9.768  0.00  0.00     0.121 C 
HETATM   26  C   UNK N   1      37.580  14.161   9.829  0.00  0.00     0.027 C 
HETATM   27  C   UNK N   1      36.006  12.270   9.988  0.00  0.00     0.027 C 
ENDBRANCH  22  25
ENDBRANCH  20  22
ENDBRANCH  19  20
ENDBRANCH  14  15
ENDBRANCH  11  14
ENDBRANCH   1   8
TORSDOF 6
ENDMDL
MODEL 3
REMARK VINA RESULT:      -6.6      1.830      2.278
REMARK  6 active torsions:
REMARK  status: ('A' for Active; 'I' for Inactive)
REMARK    1  A    between atoms: C_2  and  S_4 
REMARK    2  A    between atoms: S_4  and  N_7 
REMARK    3  A    between atoms: C_8  and  N_7 
REMARK    4  A    between atoms: C_12  and  O_13 
REMARK    5  A    between atoms: O_13  and  C_14 
REMARK    6  A    between atoms: C_17  and  C_20 
ROOT
HETATM    1  C   UNK N   1      27.627  19.454   6.574  0.00  0.00     0.016 A 
HETATM    2  C   UNK N   1      27.543  20.854   6.611  0.00  0.00     0.022 A 
HETATM    3  C   UNK N   1      26.819  21.386   5.485  0.00  0.00     0.031 A 
HETATM    4  C   UNK N   1      26.386  20.394   4.598  0.00  0.00     0.086 A 
HETATM    5  S   UNK N   1      26.831  18.953   5.209  0.00  0.00    -0.079 SA
HETATM    6  C   UNK N   1      25.803  20.492   3.288  0.00  0.00     0.107 C 
HETATM    7  N   UNK N   1      25.332  20.550   2.224  0.00  0.00    -0.191 NA
ENDROOT
BRANCH   1   8
HETATM    8  C   UNK N   1      28.493  18.518   7.309  0.00  0.00    -0.019 A 
HETATM    9  C   UNK N   1      29.273  18.861   8.438  0.00  0.00     0.015 A 
HETATM   10  C   UNK N   1      30.322  17.993   8.835  0.00  0.00     0.037 A 
HETATM   11  C   UNK N   1      30.577  16.814   8.089  0.00  0.00     0.069 A 
HETATM   12  C   UNK N   1      29.720  16.466   7.051  0.00  0.00     0.037 A 
HETATM   13  C   UNK N   1      28.714  17.300   6.666  0.00  0.00     0.015 A 
BRANCH  11  14
HETATM   14  O   UNK N   1      31.678  16.051   8.311  0.00  0.00    -0.342 OA
BRANCH  14  15
HETATM   15  C   UNK N   1      32.855  16.177   7.566  0.00  0.00     0.178 C 
HETATM   16  C   UNK N   1      33.760  17.211   8.213  0.00  0.00     0.202 C 
HETATM   17  O   UNK N   1      34.066  18.208   7.264  0.00  0.00    -0.386 OA
HETATM   18  C   UNK N   1      33.887  17.584   6.025  0.00  0.00     0.196 C 
HETATM   19  C   UNK N   1      32.645  16.754   6.165  0.00  0.00     0.148 C 
BRANCH  19  20
HETATM   20  N   UNK N   1      32.609  15.739   5.101  0.00  0.00    -0.310 N 
HETATM   21  H   UNK N   1      33.069  14.830   5.132  0.00  0.00     0.172 HD
BRANCH  20  22
HETATM   22  S   UNK N   1      31.625  16.361   3.741  0.00  0.00     0.230 S 
HETATM   23  O   UNK N   1      31.220  17.784   4.179  0.00  0.00    -0.206 OA
HETATM   24  O   UNK N   1      32.619  16.668   2.606  0.00  0.00    -0.206 OA
BRANCH  22  25
HETATM   25  C   UNK N   1      30.162  15.429   3.127  0.00  0.00     0.121 C 
HETATM   26  C   UNK N   1      29.822  14.277   4.060  0.00  0.00     0.027 C 
HETATM   27  C   UNK N   1      28.956  16.356   3.057  0.00  0.00     0.027 C 
ENDBRANCH  22  25
ENDBRANCH  20  22
ENDBRANCH  19  20
ENDBRANCH  14  15
ENDBRANCH  11  14
ENDBRANCH   1   8
TORSDOF 6
ENDMDL
MODEL 4
REMARK VINA RESULT:      -6.5      9.907     12.222
REMARK  6 active torsions:
REMARK  status: ('A' for Active; 'I' for Inactive)
REMARK    1  A    between atoms: C_2  and  S_4 
REMARK    2  A    between atoms: S_4  and  N_7 
REMARK    3  A    between atoms: C_8  and  N_7 
REMARK    4  A    between atoms: C_12  and  O_13 
REMARK    5  A    between atoms: O_13  and  C_14 
REMARK    6  A    between atoms: C_17  and  C_20 
ROOT
HETATM    1  C   UNK N   1      22.251  12.778   9.216  0.00  0.00     0.016 A 
HETATM    2  C   UNK N   1      23.573  12.322   9.110  0.00  0.00     0.022 A 
HETATM    3  C   UNK N   1      24.120  11.937  10.387  0.00  0.00     0.031 A 
HETATM    4  C   UNK N   1      23.223  12.126  11.443  0.00  0.00     0.086 A 
HETATM    5  S   UNK N   1      21.828  12.684  10.815  0.00  0.00    -0.079 SA
HETATM    6  C   UNK N   1      23.412  12.047  12.865  0.00  0.00     0.107 C 
HETATM    7  N   UNK N   1      23.546  11.990  14.022  0.00  0.00    -0.191 NA
ENDROOT
BRANCH   1   8
HETATM    8  C   UNK N   1      21.412  13.537   8.274  0.00  0.00    -0.019 A 
HETATM    9  C   UNK N   1      21.051  13.092   6.980  0.00  0.00     0.015 A 
HETATM   10  C   UNK N   1      20.556  14.037   6.046  0.00  0.00     0.037 A 
HETATM   11  C   UNK N   1      20.448  15.401   6.417  0.00  0.00     0.069 A 
HETATM   12  C   UNK N   1      20.716  15.773   7.730  0.00  0.00     0.037 A 
HETATM   13  C   UNK N   1      21.195  14.868   8.628  0.00  0.00     0.015 A 
BRANCH  11  14
HETATM   14  O   UNK N   1      20.159  16.369   5.510  0.00  0.00    -0.342 OA
BRANCH  14  15
HETATM   15  C   UNK N   1      21.145  17.099   4.835  0.00  0.00     0.178 C 
HETATM   16  C   UNK N   1      21.021  18.571   5.188  0.00  0.00     0.202 C 
HETATM   17  O   UNK N   1      20.867  19.315   4.000  0.00  0.00    -0.386 OA
HETATM   18  C   UNK N   1      21.426  18.508   3.004  0.00  0.00     0.196 C 
HETATM   19  C   UNK N   1      20.978  17.110   3.315  0.00  0.00     0.148 C 
BRANCH  19  20
HETATM   20  N   UNK N   1      21.841  16.149   2.612  0.00  0.00    -0.310 N 
HETATM   21  H   UNK N   1      22.826  15.976   2.815  0.00  0.00     0.172 HD
BRANCH  20  22
HETATM   22  S   UNK N   1      20.882  15.330   1.342  0.00  0.00     0.230 S 
HETATM   23  O   UNK N   1      20.558  16.446   0.327  0.00  0.00    -0.206 OA
HETATM   24  O   UNK N   1      21.884  14.477   0.541  0.00  0.00    -0.206 OA
BRANCH  22  25
HETATM   25  C   UNK N   1      19.367  14.376   1.767  0.00  0.00     0.121 C 
HETATM   26  C   UNK N   1      18.628  13.945   0.510  0.00  0.00     0.027 C 
HETATM   27  C   UNK N   1      19.752  13.125   2.546  0.00  0.00     0.027 C 
ENDBRANCH  22  25
ENDBRANCH  20  22
ENDBRANCH  19  20
ENDBRANCH  14  15
ENDBRANCH  11  14
ENDBRANCH   1   8
TORSDOF 6
ENDMDL
MODEL 5
REMARK VINA RESULT:      -6.5     11.875     15.103
REMARK  6 active torsions:
REMARK  status: ('A' for Active; 'I' for Inactive)
REMARK    1  A    between atoms: C_2  and  S_4 
REMARK    2  A    between atoms: S_4  and  N_7 
REMARK    3  A    between atoms: C_8  and  N_7 
REMARK    4  A    between atoms: C_12  and  O_13 
REMARK    5  A    between atoms: O_13  and  C_14 
REMARK    6  A    between atoms: C_17  and  C_20 
ROOT
HETATM    1  C   UNK N   1      32.110  22.116  -3.605  0.00  0.00     0.016 A 
HETATM    2  C   UNK N   1      32.965  21.365  -2.785  0.00  0.00     0.022 A 
HETATM    3  C   UNK N   1      33.768  20.436  -3.539  0.00  0.00     0.031 A 
HETATM    4  C   UNK N   1      33.499  20.474  -4.912  0.00  0.00     0.086 A 
HETATM    5  S   UNK N   1      32.376  21.624  -5.165  0.00  0.00    -0.079 SA
HETATM    6  C   UNK N   1      33.927  19.613  -5.979  0.00  0.00     0.107 C 
HETATM    7  N   UNK N   1      34.261  18.925  -6.859  0.00  0.00    -0.191 NA
ENDROOT
BRANCH   1   8
HETATM    8  C   UNK N   1      30.933  22.936  -3.279  0.00  0.00    -0.019 A 
HETATM    9  C   UNK N   1      29.904  22.551  -2.388  0.00  0.00     0.015 A 
HETATM   10  C   UNK N   1      28.668  23.245  -2.428  0.00  0.00     0.037 A 
HETATM   11  C   UNK N   1      28.483  24.295  -3.363  0.00  0.00     0.069 A 
HETATM   12  C   UNK N   1      29.556  24.707  -4.145  0.00  0.00     0.037 A 
HETATM   13  C   UNK N   1      30.742  24.039  -4.112  0.00  0.00     0.015 A 
BRANCH  11  14
HETATM   14  O   UNK N   1      27.267  24.863  -3.568  0.00  0.00    -0.342 OA
BRANCH  14  15
HETATM   15  C   UNK N   1      27.080  25.990  -4.377  0.00  0.00     0.178 C 
HETATM   16  C   UNK N   1      26.512  27.126  -3.546  0.00  0.00     0.202 C 
HETATM   17  O   UNK N   1      25.307  27.564  -4.132  0.00  0.00    -0.386 OA
HETATM   18  C   UNK N   1      25.406  27.180  -5.473  0.00  0.00     0.196 C 
HETATM   19  C   UNK N   1      26.013  25.807  -5.458  0.00  0.00     0.148 C 
BRANCH  19  20
HETATM   20  N   UNK N   1      26.558  25.495  -6.788  0.00  0.00    -0.310 N 
HETATM   21  H   UNK N   1      27.093  26.134  -7.375  0.00  0.00     0.172 HD
BRANCH  20  22
HETATM   22  S   UNK N   1      26.126  23.810  -7.209  0.00  0.00     0.230 S 
HETATM   23  O   UNK N   1      25.371  23.285  -5.971  0.00  0.00    -0.206 OA
HETATM   24  O   UNK N   1      24.985  23.911  -8.238  0.00  0.00    -0.206 OA
BRANCH  22  25
HETATM   25  C   UNK N   1      27.414  22.609  -7.743  0.00  0.00     0.121 C 
HETATM   26  C   UNK N   1      28.404  22.340  -6.621  0.00  0.00     0.027 C 
HETATM   27  C   UNK N   1      26.756  21.289  -8.124  0.00  0.00     0.027 C 
ENDBRANCH  22  25
ENDBRANCH  20  22
ENDBRANCH  19  20
ENDBRANCH  14  15
ENDBRANCH  11  14
ENDBRANCH   1   8
TORSDOF 6
ENDMDL
MODEL 6
REMARK VINA RESULT:      -6.5     12.209     15.891
REMARK  6 active torsions:
REMARK  status: ('A' for Active; 'I' for Inactive)
REMARK    1  A    between atoms: C_2  and  S_4 
REMARK    2  A    between atoms: S_4  and  N_7 
REMARK    3  A    between atoms: C_8  and  N_7 
REMARK    4  A    between atoms: C_12  and  O_13 
REMARK    5  A    between atoms: O_13  and  C_14 
REMARK    6  A    between atoms: C_17  and  C_20 
ROOT
HETATM    1  C   UNK N   1      27.140  29.417  -4.344  0.00  0.00     0.016 A 
HETATM    2  C   UNK N   1      26.681  30.275  -3.333  0.00  0.00     0.022 A 
HETATM    3  C   UNK N   1      27.757  30.787  -2.523  0.00  0.00     0.031 A 
HETATM    4  C   UNK N   1      29.010  30.296  -2.908  0.00  0.00     0.086 A 
HETATM    5  S   UNK N   1      28.789  29.335  -4.203  0.00  0.00    -0.079 SA
HETATM    6  C   UNK N   1      30.296  30.400  -2.277  0.00  0.00     0.107 C 
HETATM    7  N   UNK N   1      31.348  30.472  -1.779  0.00  0.00    -0.191 NA
ENDROOT
BRANCH   1   8
HETATM    8  C   UNK N   1      26.422  28.451  -5.191  0.00  0.00    -0.019 A 
HETATM    9  C   UNK N   1      25.267  27.736  -4.796  0.00  0.00     0.015 A 
HETATM   10  C   UNK N   1      24.882  26.592  -5.540  0.00  0.00     0.037 A 
HETATM   11  C   UNK N   1      25.665  26.181  -6.649  0.00  0.00     0.069 A 
HETATM   12  C   UNK N   1      26.730  26.973  -7.062  0.00  0.00     0.037 A 
HETATM   13  C   UNK N   1      27.104  28.070  -6.347  0.00  0.00     0.015 A 
BRANCH  11  14
HETATM   14  O   UNK N   1      25.448  24.997  -7.277  0.00  0.00    -0.342 OA
BRANCH  14  15
HETATM   15  C   UNK N   1      26.486  24.185  -7.751  0.00  0.00     0.178 C 
HETATM   16  C   UNK N   1      25.920  23.123  -8.677  0.00  0.00     0.202 C 
HETATM   17  O   UNK N   1      26.294  21.851  -8.197  0.00  0.00    -0.386 OA
HETATM   18  C   UNK N   1      27.440  22.086  -7.430  0.00  0.00     0.196 C 
HETATM   19  C   UNK N   1      27.164  23.348  -6.666  0.00  0.00     0.148 C 
BRANCH  19  20
HETATM   20  N   UNK N   1      28.431  23.915  -6.179  0.00  0.00    -0.310 N 
HETATM   21  H   UNK N   1      29.240  24.143  -6.756  0.00  0.00     0.172 HD
BRANCH  20  22
HETATM   22  S   UNK N   1      28.322  24.138  -4.406  0.00  0.00     0.230 S 
HETATM   23  O   UNK N   1      28.526  25.653  -4.196  0.00  0.00    -0.206 OA
HETATM   24  O   UNK N   1      26.831  23.984  -4.053  0.00  0.00    -0.206 OA
BRANCH  22  25
HETATM   25  C   UNK N   1      29.392  23.173  -3.263  0.00  0.00     0.121 C 
HETATM   26  C   UNK N   1      30.742  23.849  -3.083  0.00  0.00     0.027 C 
HETATM   27  C   UNK N   1      28.724  23.072  -1.898  0.00  0.00     0.027 C 
ENDBRANCH  22  25
ENDBRANCH  20  22
ENDBRANCH  19  20
ENDBRANCH  14  15
ENDBRANCH  11  14
ENDBRANCH   1   8
TORSDOF 6
ENDMDL
MODEL 7
REMARK VINA RESULT:      -6.4      7.057     11.580
REMARK  6 active torsions:
REMARK  status: ('A' for Active; 'I' for Inactive)
REMARK    1  A    between atoms: C_2  and  S_4 
REMARK    2  A    between atoms: S_4  and  N_7 
REMARK    3  A    between atoms: C_8  and  N_7 
REMARK    4  A    between atoms: C_12  and  O_13 
REMARK    5  A    between atoms: O_13  and  C_14 
REMARK    6  A    between atoms: C_17  and  C_20 
ROOT
HETATM    1  C   UNK N   1      35.715  12.531  17.416  0.00  0.00     0.016 A 
HETATM    2  C   UNK N   1      35.313  13.435  18.410  0.00  0.00     0.022 A 
HETATM    3  C   UNK N   1      34.954  12.770  19.637  0.00  0.00     0.031 A 
HETATM    4  C   UNK N   1      35.064  11.377  19.555  0.00  0.00     0.086 A 
HETATM    5  S   UNK N   1      35.621  11.011  18.070  0.00  0.00    -0.079 SA
HETATM    6  C   UNK N   1      34.645  10.344  20.460  0.00  0.00     0.107 C 
HETATM    7  N   UNK N   1      34.309   9.491  21.181  0.00  0.00    -0.191 NA
ENDROOT
BRANCH   1   8
HETATM    8  C   UNK N   1      35.873  12.701  15.962  0.00  0.00    -0.019 A 
HETATM    9  C   UNK N   1      36.543  13.785  15.347  0.00  0.00     0.015 A 
HETATM   10  C   UNK N   1      36.324  14.029  13.967  0.00  0.00     0.037 A 
HETATM   11  C   UNK N   1      35.434  13.199  13.240  0.00  0.00     0.069 A 
HETATM   12  C   UNK N   1      34.880  12.085  13.861  0.00  0.00     0.037 A 
HETATM   13  C   UNK N   1      35.086  11.851  15.187  0.00  0.00     0.015 A 
BRANCH  11  14
HETATM   14  O   UNK N   1      35.048  13.501  11.973  0.00  0.00    -0.342 OA
BRANCH  14  15
HETATM   15  C   UNK N   1      35.840  13.231  10.851  0.00  0.00     0.178 C 
HETATM   16  C   UNK N   1      37.120  12.539  11.285  0.00  0.00     0.202 C 
HETATM   17  O   UNK N   1      38.223  13.284  10.821  0.00  0.00    -0.386 OA
HETATM   18  C   UNK N   1      37.727  14.008   9.731  0.00  0.00     0.196 C 
HETATM   19  C   UNK N   1      36.365  14.482  10.146  0.00  0.00     0.148 C 
BRANCH  19  20
HETATM   20  N   UNK N   1      35.593  14.864   8.954  0.00  0.00    -0.310 N 
HETATM   21  H   UNK N   1      35.675  14.437   8.031  0.00  0.00     0.172 HD
BRANCH  20  22
HETATM   22  S   UNK N   1      34.486  16.202   9.385  0.00  0.00     0.230 S 
HETATM   23  O   UNK N   1      33.292  15.507  10.073  0.00  0.00    -0.206 OA
HETATM   24  O   UNK N   1      35.141  16.924  10.577  0.00  0.00    -0.206 OA
BRANCH  22  25
HETATM   25  C   UNK N   1      33.898  17.393   8.111  0.00  0.00     0.121 C 
HETATM   26  C   UNK N   1      32.425  17.712   8.306  0.00  0.00     0.027 C 
HETATM   27  C   UNK N   1      34.686  18.692   8.224  0.00  0.00     0.027 C 
ENDBRANCH  22  25
ENDBRANCH  20  22
ENDBRANCH  19  20
ENDBRANCH  14  15
ENDBRANCH  11  14
ENDBRANCH   1   8
TORSDOF 6
ENDMDL
MODEL 8
REMARK VINA RESULT:      -6.3     14.261     16.340
REMARK  6 active torsions:
REMARK  status: ('A' for Active; 'I' for Inactive)
REMARK    1  A    between atoms: C_2  and  S_4 
REMARK    2  A    between atoms: S_4  and  N_7 
REMARK    3  A    between atoms: C_8  and  N_7 
REMARK    4  A    between atoms: C_12  and  O_13 
REMARK    5  A    between atoms: O_13  and  C_14 
REMARK    6  A    between atoms: C_17  and  C_20 
ROOT
HETATM    1  C   UNK N   1      25.940  24.242  -6.416  0.00  0.00     0.016 A 
HETATM    2  C   UNK N   1      25.732  22.858  -6.326  0.00  0.00     0.022 A 
HETATM    3  C   UNK N   1      25.784  22.214  -7.614  0.00  0.00     0.031 A 
HETATM    4  C   UNK N   1      26.005  23.113  -8.664  0.00  0.00     0.086 A 
HETATM    5  S   UNK N   1      26.176  24.597  -8.018  0.00  0.00    -0.079 SA
HETATM    6  C   UNK N   1      25.948  22.930 -10.087  0.00  0.00     0.107 C 
HETATM    7  N   UNK N   1      25.905  22.802 -11.245  0.00  0.00    -0.191 NA
ENDROOT
BRANCH   1   8
HETATM    8  C   UNK N   1      25.684  25.323  -5.450  0.00  0.00    -0.019 A 
HETATM    9  C   UNK N   1      25.077  26.560  -5.768  0.00  0.00     0.015 A 
HETATM   10  C   UNK N   1      25.208  27.640  -4.859  0.00  0.00     0.037 A 
HETATM   11  C   UNK N   1      25.953  27.466  -3.665  0.00  0.00     0.069 A 
HETATM   12  C   UNK N   1      26.443  26.205  -3.346  0.00  0.00     0.037 A 
HETATM   13  C   UNK N   1      26.322  25.167  -4.219  0.00  0.00     0.015 A 
BRANCH  11  14
HETATM   14  O   UNK N   1      26.264  28.512  -2.857  0.00  0.00    -0.342 OA
BRANCH  14  15
HETATM   15  C   UNK N   1      27.349  29.363  -3.096  0.00  0.00     0.178 C 
HETATM   16  C   UNK N   1      26.842  30.731  -3.518  0.00  0.00     0.202 C 
HETATM   17  O   UNK N   1      27.406  31.062  -4.767  0.00  0.00    -0.386 OA
HETATM   18  C   UNK N   1      28.574  30.296  -4.842  0.00  0.00     0.196 C 
HETATM   19  C   UNK N   1      28.211  28.949  -4.290  0.00  0.00     0.148 C 
BRANCH  19  20
HETATM   20  N   UNK N   1      29.436  28.223  -3.919  0.00  0.00    -0.310 N 
HETATM   21  H   UNK N   1      29.947  28.330  -3.044  0.00  0.00     0.172 HD
BRANCH  20  22
HETATM   22  S   UNK N   1      29.882  27.120  -5.257  0.00  0.00     0.230 S 
HETATM   23  O   UNK N   1      28.631  27.083  -6.158  0.00  0.00    -0.206 OA
HETATM   24  O   UNK N   1      30.867  27.907  -6.141  0.00  0.00    -0.206 OA
BRANCH  22  25
HETATM   25  C   UNK N   1      30.490  25.417  -4.917  0.00  0.00     0.121 C 
HETATM   26  C   UNK N   1      30.439  25.110  -3.428  0.00  0.00     0.027 C 
HETATM   27  C   UNK N   1      29.612  24.406  -5.642  0.00  0.00     0.027 C 
ENDBRANCH  22  25
ENDBRANCH  20  22
ENDBRANCH  19  20
ENDBRANCH  14  15
ENDBRANCH  11  14
ENDBRANCH   1   8
TORSDOF 6
ENDMDL
MODEL 9
REMARK VINA RESULT:      -6.3      7.536     10.261
REMARK  6 active torsions:
REMARK  status: ('A' for Active; 'I' for Inactive)
REMARK    1  A    between atoms: C_2  and  S_4 
REMARK    2  A    between atoms: S_4  and  N_7 
REMARK    3  A    between atoms: C_8  and  N_7 
REMARK    4  A    between atoms: C_12  and  O_13 
REMARK    5  A    between atoms: O_13  and  C_14 
REMARK    6  A    between atoms: C_17  and  C_20 
ROOT
HETATM    1  C   UNK N   1      23.001  12.924   8.832  0.00  0.00     0.016 A 
HETATM    2  C   UNK N   1      24.344  12.540   8.963  0.00  0.00     0.022 A 
HETATM    3  C   UNK N   1      24.664  12.124  10.305  0.00  0.00     0.031 A 
HETATM    4  C   UNK N   1      23.575  12.219  11.178  0.00  0.00     0.086 A 
HETATM    5  S   UNK N   1      22.293  12.735  10.318  0.00  0.00    -0.079 SA
HETATM    6  C   UNK N   1      23.499  12.084  12.606  0.00  0.00     0.107 C 
HETATM    7  N   UNK N   1      23.417  11.980  13.765  0.00  0.00    -0.191 NA
ENDROOT
BRANCH   1   8
HETATM    8  C   UNK N   1      22.311  13.682   7.776  0.00  0.00    -0.019 A 
HETATM    9  C   UNK N   1      22.405  13.403   6.392  0.00  0.00     0.015 A 
HETATM   10  C   UNK N   1      22.000  14.396   5.465  0.00  0.00     0.037 A 
HETATM   11  C   UNK N   1      21.527  15.647   5.938  0.00  0.00     0.069 A 
HETATM   12  C   UNK N   1      21.355  15.837   7.304  0.00  0.00     0.037 A 
HETATM   13  C   UNK N   1      21.747  14.886   8.197  0.00  0.00     0.015 A 
BRANCH  11  14
HETATM   14  O   UNK N   1      21.305  16.691   5.099  0.00  0.00    -0.342 OA
BRANCH  14  15
HETATM   15  C   UNK N   1      22.038  17.882   5.154  0.00  0.00     0.178 C 
HETATM   16  C   UNK N   1      21.265  18.989   4.459  0.00  0.00     0.202 C 
HETATM   17  O   UNK N   1      22.072  19.541   3.443  0.00  0.00    -0.386 OA
HETATM   18  C   UNK N   1      23.383  19.249   3.834  0.00  0.00     0.196 C 
HETATM   19  C   UNK N   1      23.345  17.844   4.360  0.00  0.00     0.148 C 
BRANCH  19  20
HETATM   20  N   UNK N   1      24.537  17.594   5.184  0.00  0.00    -0.310 N 
HETATM   21  H   UNK N   1      24.815  18.133   6.004  0.00  0.00     0.172 HD
BRANCH  20  22
HETATM   22  S   UNK N   1      25.423  16.192   4.511  0.00  0.00     0.230 S 
HETATM   23  O   UNK N   1      24.528  15.689   3.359  0.00  0.00    -0.206 OA
HETATM   24  O   UNK N   1      26.614  16.780   3.732  0.00  0.00    -0.206 OA
BRANCH  22  25
HETATM   25  C   UNK N   1      25.942  14.794   5.590  0.00  0.00     0.121 C 
HETATM   26  C   UNK N   1      27.400  14.436   5.349  0.00  0.00     0.027 C 
HETATM   27  C   UNK N   1      25.784  15.190   7.052  0.00  0.00     0.027 C 
ENDBRANCH  22  25
ENDBRANCH  20  22
ENDBRANCH  19  20
ENDBRANCH  14  15
ENDBRANCH  11  14
ENDBRANCH   1   8
TORSDOF 6
ENDMDL
