MODEL 1
REMARK VINA RESULT:      -8.5      0.000      0.000
REMARK  18 active torsions:
REMARK  status: ('A' for Active; 'I' for Inactive)
REMARK    1  A    between atoms: C_2  and  C_3 
REMARK    2  A    between atoms: C_3  and  C_4 
REMARK    3  A    between atoms: C_4  and  C_5 
REMARK    4  A    between atoms: C_5  and  C_6 
REMARK    5  A    between atoms: C_5  and  N_73 
REMARK       I    between atoms: C_6  and  N_8 
REMARK    6  A    between atoms: C_9  and  N_8 
REMARK    7  A    between atoms: C_18  and  C_70 
REMARK    8  A    between atoms: C_22  and  C_60 
REMARK    9  A    between atoms: C_26  and  C_52 
REMARK   10  A    between atoms: C_30  and  C_45 
REMARK   11  A    between atoms: C_34  and  C_38 
REMARK   12  A    between atoms: C_38  and  C_39 
REMARK   13  A    between atoms: C_45  and  C_46 
REMARK   14  A    between atoms: C_52  and  C_53 
REMARK   15  A    between atoms: C_53  and  C_54 
REMARK   16  A    between atoms: C_54  and  N_55 
REMARK       I    between atoms: N_55  and  C_56 
REMARK       I    between atoms: C_56  and  N_59 
REMARK   17  A    between atoms: C_60  and  C_61 
REMARK   18  A    between atoms: C_70  and  O_72 
REMARK       I    between atoms: N_73  and  C_74 
ROOT
HETATM    1  C   UNK N   1      30.412  15.605   5.455  0.00  0.00     0.185 C 
HETATM    2  C   UNK N   1      31.144  14.269   5.532  0.00  0.00     0.137 C 
HETATM    3  C   UNK N   1      31.445  13.694   4.175  0.00  0.00     0.220 C 
HETATM    4  O   UNK N   1      32.584  13.328   3.937  0.00  0.00    -0.274 OA
HETATM    5  N   UNK N   1      30.492  13.560   3.214  0.00  0.00    -0.361 N 
HETATM    6  C   UNK N   1      29.111  13.982   3.362  0.00  0.00     0.122 C 
HETATM    7  C   UNK N   1      28.389  13.242   4.492  0.00  0.00     0.020 C 
HETATM    8  C   UNK N   1      28.693  11.746   4.480  0.00  0.00     0.004 C 
HETATM    9  C   UNK N   1      27.860  10.953   3.480  0.00  0.00     0.036 C 
HETATM   10  C   UNK N   1      27.861  11.585   2.091  0.00  0.00     0.182 C 
HETATM   11  N   UNK N   1      26.571  12.187   1.816  0.00  0.00    -0.345 N 
HETATM   12  C   UNK N   1      25.406  11.496   1.728  0.00  0.00     0.241 C 
HETATM   13  O   UNK N   1      25.398  10.273   1.754  0.00  0.00    -0.271 OA
HETATM   14  C   UNK N   1      24.115  12.242   1.765  0.00  0.00     0.181 C 
HETATM   15  N   UNK N   1      23.476  11.893   3.018  0.00  0.00    -0.346 N 
HETATM   16  C   UNK N   1      23.196  12.803   3.987  0.00  0.00     0.241 C 
HETATM   17  O   UNK N   1      22.819  12.407   5.077  0.00  0.00    -0.271 OA
HETATM   18  C   UNK N   1      23.282  14.297   3.753  0.00  0.00     0.176 C 
HETATM   19  N   UNK N   1      24.447  14.650   2.973  0.00  0.00    -0.346 N 
HETATM   20  C   UNK N   1      25.311  15.642   3.297  0.00  0.00     0.241 C 
HETATM   21  O   UNK N   1      26.267  15.858   2.571  0.00  0.00    -0.271 OA
HETATM   22  C   UNK N   1      25.106  16.516   4.495  0.00  0.00     0.180 C 
HETATM   23  N   UNK N   1      25.263  15.775   5.725  0.00  0.00    -0.346 N 
HETATM   24  C   UNK N   1      26.401  15.821   6.471  0.00  0.00     0.241 C 
HETATM   25  O   UNK N   1      26.411  15.261   7.557  0.00  0.00    -0.271 OA
HETATM   26  C   UNK N   1      27.673  16.499   5.969  0.00  0.00     0.182 C 
HETATM   27  N   UNK N   1      28.696  16.526   6.997  0.00  0.00    -0.346 N 
HETATM   28  C   UNK N   1      29.973  16.134   6.788  0.00  0.00     0.241 C 
HETATM   29  O   UNK N   1      30.770  16.184   7.712  0.00  0.00    -0.271 OA
HETATM   30  H   UNK N   1      30.756  13.148   2.360  0.00  0.00     0.162 HD
HETATM   31  H   UNK N   1      26.537  13.162   1.685  0.00  0.00     0.163 HD
HETATM   32  H   UNK N   1      23.232  10.952   3.174  0.00  0.00     0.163 HD
HETATM   33  H   UNK N   1      24.625  14.136   2.153  0.00  0.00     0.163 HD
HETATM   34  H   UNK N   1      24.517  15.214   6.037  0.00  0.00     0.163 HD
HETATM   35  H   UNK N   1      28.447  16.849   7.894  0.00  0.00     0.163 HD
ENDROOT
BRANCH   1  36
HETATM   36  N   UNK N   1      31.005  16.564   4.540  0.00  0.00    -0.346 N 
HETATM   37  C   UNK N   1      32.284  17.018   4.536  0.00  0.00     0.241 C 
HETATM   38  O   UNK N   1      32.640  17.760   3.633  0.00  0.00    -0.271 OA
HETATM   39  H   UNK N   1      30.412  16.927   3.843  0.00  0.00     0.163 HD
BRANCH  37  40
HETATM   40  C   UNK N   1      33.268  16.662   5.617  0.00  0.00     0.176 C 
BRANCH  40  41
HETATM   41  C   UNK N   1      33.805  17.950   6.253  0.00  0.00     0.035 C 
BRANCH  41  42
HETATM   42  C   UNK N   1      33.487  18.039   7.739  0.00  0.00     0.002 C 
BRANCH  42  43
HETATM   43  C   UNK N   1      34.746  17.895   8.576  0.00  0.00    -0.004 C 
HETATM   44  C   UNK N   1      34.559  16.817   9.625  0.00  0.00     0.005 C 
ENDBRANCH  42  43
ENDBRANCH  41  42
ENDBRANCH  40  41
BRANCH  40  45
HETATM   45  N   UNK N   1      34.360  15.909   5.036  0.00  0.00    -0.348 N 
HETATM   46  C   UNK N   1      34.956  14.855   5.649  0.00  0.00     0.214 C 
HETATM   47  O   UNK N   1      35.881  14.286   5.094  0.00  0.00    -0.274 OA
HETATM   48  C   UNK N   1      34.505  14.372   6.992  0.00  0.00     0.117 C 
HETATM   49  H   UNK N   1      34.688  16.177   4.147  0.00  0.00     0.163 HD
ENDBRANCH  40  45
ENDBRANCH  37  40
ENDBRANCH   1  36
BRANCH  26  50
HETATM   50  C   UNK N   1      27.472  17.900   5.382  0.00  0.00     0.093 C 
BRANCH  50  51
HETATM   51  C   UNK N   1      27.214  18.969   6.387  0.00  0.00     0.028 A 
HETATM   52  C   UNK N   1      27.835  19.126   7.600  0.00  0.00     0.114 A 
HETATM   53  N   UNK N   1      27.301  20.212   8.191  0.00  0.00    -0.360 N 
HETATM   54  C   UNK N   1      26.373  20.684   7.331  0.00  0.00     0.180 A 
ATOM     55  HN  UNK N   1      27.549  20.599   9.101  1.00  0.00     0.166 HD
HETATM   56  N   UNK N   1      26.301  19.934   6.215  0.00  0.00    -0.354 N 
HETATM   57  H   UNK N   1      25.706  20.067   5.442  0.00  0.00     0.166 HD
ENDBRANCH  50  51
ENDBRANCH  26  50
BRANCH  22  58
HETATM   58  C   UNK N   1      23.765  17.261   4.384  0.00  0.00     0.073 C 
BRANCH  58  59
HETATM   59  C   UNK N   1      23.801  18.622   3.762  0.00  0.00    -0.056 A 
HETATM   60  C   UNK N   1      22.609  19.311   3.498  0.00  0.00     0.007 A 
HETATM   61  C   UNK N   1      22.644  20.554   2.861  0.00  0.00     0.001 A 
HETATM   62  C   UNK N   1      23.869  21.108   2.477  0.00  0.00     0.000 A 
HETATM   63  C   UNK N   1      25.058  20.416   2.730  0.00  0.00     0.001 A 
HETATM   64  C   UNK N   1      25.023  19.172   3.367  0.00  0.00     0.007 A 
ENDBRANCH  58  59
ENDBRANCH  22  58
BRANCH  10  65
HETATM   65  C   UNK N   1      28.366  10.652   1.034  0.00  0.00     0.163 C 
HETATM   66  O   UNK N   1      28.953  11.108   0.067  0.00  0.00    -0.648 OA
BRANCH  65  67
HETATM   67  O   UNK N   1      28.232   9.319   1.162  0.00  0.00    -0.775 OA
HETATM   68  H   UNK N   1      28.519   8.685   0.533  0.00  0.00     0.167 HD
ENDBRANCH  65  67
ENDBRANCH  10  65
BRANCH  18  69
HETATM   69  C   UNK N   1      22.018  14.807   3.075  0.00  0.00     0.036 C 
BRANCH  69  70
HETATM   70  C   UNK N   1      20.948  15.060   4.125  0.00  0.00     0.023 C 
BRANCH  70  71
HETATM   71  C   UNK N   1      19.996  16.150   3.685  0.00  0.00     0.138 C 
BRANCH  71  72
HETATM   72  N   UNK N   1      20.395  16.620   2.382  0.00  0.00    -0.227 N 
HETATM   73  C   UNK N   1      19.725  17.690   1.734  0.00  0.00     0.665 C 
HETATM   74  N   UNK N   1      18.752  18.298   2.310  0.00  0.00    -0.235 N 
HETATM   75  N   UNK N   1      20.163  18.120   0.463  0.00  0.00    -0.235 N 
HETATM   76  H   UNK N   1      18.165  18.959   1.877  0.00  0.00     0.174 HD
ATOM     77  HN  UNK N   1      18.576  18.080   3.291  1.00  0.00     0.174 HD
HETATM   78  H   UNK N   1      21.118  18.087   0.226  0.00  0.00     0.174 HD
HETATM   79  H   UNK N   1      19.509  18.456  -0.190  0.00  0.00     0.174 HD
HETATM   80  H   UNK N   1      21.154  16.187   1.930  0.00  0.00     0.177 HD
ENDBRANCH  71  72
ENDBRANCH  70  71
ENDBRANCH  69  70
ENDBRANCH  18  69
BRANCH  14  81
HETATM   81  C   UNK N   1      23.274  11.967   0.517  0.00  0.00     0.075 C 
BRANCH  81  82
HETATM   82  C   UNK N   1      21.954  11.331   0.796  0.00  0.00    -0.028 A 
HETATM   83  C   UNK N   1      21.686  10.010   1.143  0.00  0.00     0.096 A 
HETATM   84  N   UNK N   1      20.347   9.856   1.321  0.00  0.00    -0.365 N 
HETATM   85  C   UNK N   1      19.799  11.066   1.092  0.00  0.00     0.042 A 
HETATM   86  H   UNK N   1      19.873   9.029   1.567  0.00  0.00     0.165 HD
HETATM   87  C   UNK N   1      20.756  11.980   0.771  0.00  0.00    -0.002 A 
HETATM   88  C   UNK N   1      18.453  11.411   1.161  0.00  0.00     0.030 A 
HETATM   89  C   UNK N   1      20.454  13.310   0.492  0.00  0.00     0.014 A 
HETATM   90  C   UNK N   1      19.105  13.695   0.551  0.00  0.00     0.001 A 
HETATM   91  C   UNK N   1      18.107  12.750   0.885  0.00  0.00     0.002 A 
ENDBRANCH  81  82
ENDBRANCH  14  81
TORSDOF 18
ENDMDL
MODEL 2
REMARK VINA RESULT:      -7.9      2.403     11.871
REMARK  18 active torsions:
REMARK  status: ('A' for Active; 'I' for Inactive)
REMARK    1  A    between atoms: C_2  and  C_3 
REMARK    2  A    between atoms: C_3  and  C_4 
REMARK    3  A    between atoms: C_4  and  C_5 
REMARK    4  A    between atoms: C_5  and  C_6 
REMARK    5  A    between atoms: C_5  and  N_73 
REMARK       I    between atoms: C_6  and  N_8 
REMARK    6  A    between atoms: C_9  and  N_8 
REMARK    7  A    between atoms: C_18  and  C_70 
REMARK    8  A    between atoms: C_22  and  C_60 
REMARK    9  A    between atoms: C_26  and  C_52 
REMARK   10  A    between atoms: C_30  and  C_45 
REMARK   11  A    between atoms: C_34  and  C_38 
REMARK   12  A    between atoms: C_38  and  C_39 
REMARK   13  A    between atoms: C_45  and  C_46 
REMARK   14  A    between atoms: C_52  and  C_53 
REMARK   15  A    between atoms: C_53  and  C_54 
REMARK   16  A    between atoms: C_54  and  N_55 
REMARK       I    between atoms: N_55  and  C_56 
REMARK       I    between atoms: C_56  and  N_59 
REMARK   17  A    between atoms: C_60  and  C_61 
REMARK   18  A    between atoms: C_70  and  O_72 
REMARK       I    between atoms: N_73  and  C_74 
ROOT
HETATM    1  C   UNK N   1      23.082  14.191   3.377  0.00  0.00     0.185 C 
HETATM    2  C   UNK N   1      22.681  14.824   4.706  0.00  0.00     0.137 C 
HETATM    3  C   UNK N   1      22.980  16.298   4.759  0.00  0.00     0.220 C 
HETATM    4  O   UNK N   1      22.095  17.059   5.111  0.00  0.00    -0.274 OA
HETATM    5  N   UNK N   1      24.201  16.804   4.440  0.00  0.00    -0.361 N 
HETATM    6  C   UNK N   1      25.326  16.010   3.981  0.00  0.00     0.122 C 
HETATM    7  C   UNK N   1      25.780  14.980   5.020  0.00  0.00     0.020 C 
HETATM    8  C   UNK N   1      25.836  15.575   6.425  0.00  0.00     0.004 C 
HETATM    9  C   UNK N   1      27.107  16.368   6.711  0.00  0.00     0.036 C 
HETATM   10  C   UNK N   1      27.423  17.376   5.611  0.00  0.00     0.182 C 
HETATM   11  N   UNK N   1      28.565  16.927   4.836  0.00  0.00    -0.345 N 
HETATM   12  C   UNK N   1      29.816  16.768   5.338  0.00  0.00     0.241 C 
HETATM   13  O   UNK N   1      30.086  17.124   6.476  0.00  0.00    -0.271 OA
HETATM   14  C   UNK N   1      30.823  16.003   4.547  0.00  0.00     0.181 C 
HETATM   15  N   UNK N   1      31.074  14.777   5.278  0.00  0.00    -0.346 N 
HETATM   16  C   UNK N   1      30.809  13.545   4.773  0.00  0.00     0.241 C 
HETATM   17  O   UNK N   1      30.883  12.576   5.511  0.00  0.00    -0.271 OA
HETATM   18  C   UNK N   1      30.475  13.315   3.314  0.00  0.00     0.176 C 
HETATM   19  N   UNK N   1      29.585  14.332   2.802  0.00  0.00    -0.346 N 
HETATM   20  C   UNK N   1      28.466  14.076   2.083  0.00  0.00     0.241 C 
HETATM   21  O   UNK N   1      27.780  15.009   1.699  0.00  0.00    -0.271 OA
HETATM   22  C   UNK N   1      28.066  12.685   1.703  0.00  0.00     0.180 C 
HETATM   23  N   UNK N   1      27.680  11.910   2.860  0.00  0.00    -0.346 N 
HETATM   24  C   UNK N   1      26.379  11.689   3.196  0.00  0.00     0.241 C 
HETATM   25  O   UNK N   1      26.136  10.925   4.119  0.00  0.00    -0.271 OA
HETATM   26  C   UNK N   1      25.228  12.405   2.498  0.00  0.00     0.182 C 
HETATM   27  N   UNK N   1      23.944  11.901   2.946  0.00  0.00    -0.346 N 
HETATM   28  C   UNK N   1      22.927  12.699   3.346  0.00  0.00     0.241 C 
HETATM   29  O   UNK N   1      21.880  12.190   3.715  0.00  0.00    -0.271 OA
HETATM   30  H   UNK N   1      24.332  17.776   4.526  0.00  0.00     0.162 HD
HETATM   31  H   UNK N   1      28.423  16.723   3.884  0.00  0.00     0.163 HD
HETATM   32  H   UNK N   1      31.454  14.841   6.184  0.00  0.00     0.163 HD
HETATM   33  H   UNK N   1      29.807  15.273   2.987  0.00  0.00     0.163 HD
HETATM   34  H   UNK N   1      28.386  11.526   3.427  0.00  0.00     0.163 HD
HETATM   35  H   UNK N   1      23.804  10.926   2.960  0.00  0.00     0.163 HD
ENDROOT
BRANCH   1  36
HETATM   36  N   UNK N   1      22.626  14.915   2.204  0.00  0.00    -0.346 N 
HETATM   37  C   UNK N   1      21.345  15.107   1.799  0.00  0.00     0.241 C 
HETATM   38  O   UNK N   1      21.138  15.823   0.831  0.00  0.00    -0.271 OA
HETATM   39  H   UNK N   1      23.327  15.312   1.637  0.00  0.00     0.163 HD
BRANCH  37  40
HETATM   40  C   UNK N   1      20.178  14.450   2.483  0.00  0.00     0.176 C 
BRANCH  40  41
HETATM   41  C   UNK N   1      19.251  13.843   1.422  0.00  0.00     0.035 C 
BRANCH  41  42
HETATM   42  C   UNK N   1      19.825  12.575   0.806  0.00  0.00     0.002 C 
BRANCH  42  43
HETATM   43  C   UNK N   1      18.753  11.793   0.069  0.00  0.00    -0.004 C 
HETATM   44  C   UNK N   1      17.451  12.569   0.059  0.00  0.00     0.005 C 
ENDBRANCH  42  43
ENDBRANCH  41  42
ENDBRANCH  40  41
BRANCH  40  45
HETATM   45  N   UNK N   1      19.459  15.441   3.254  0.00  0.00    -0.348 N 
HETATM   46  C   UNK N   1      19.032  15.239   4.527  0.00  0.00     0.214 C 
HETATM   47  O   UNK N   1      18.419  16.124   5.099  0.00  0.00    -0.274 OA
HETATM   48  C   UNK N   1      19.296  13.954   5.247  0.00  0.00     0.117 C 
HETATM   49  H   UNK N   1      19.269  16.311   2.832  0.00  0.00     0.163 HD
ENDBRANCH  40  45
ENDBRANCH  37  40
ENDBRANCH   1  36
BRANCH  26  50
HETATM   50  C   UNK N   1      25.295  12.399   0.966  0.00  0.00     0.093 C 
BRANCH  50  51
HETATM   51  C   UNK N   1      24.561  11.281   0.312  0.00  0.00     0.028 A 
HETATM   52  C   UNK N   1      23.400  11.370  -0.413  0.00  0.00     0.114 A 
HETATM   53  N   UNK N   1      23.080  10.126  -0.819  0.00  0.00    -0.360 N 
HETATM   54  C   UNK N   1      24.045   9.316  -0.333  0.00  0.00     0.180 A 
ATOM     55  HN  UNK N   1      22.274   9.853  -1.381  1.00  0.00     0.166 HD
HETATM   56  N   UNK N   1      24.966  10.005   0.368  0.00  0.00    -0.354 N 
HETATM   57  H   UNK N   1      25.763   9.648   0.822  0.00  0.00     0.166 HD
ENDBRANCH  50  51
ENDBRANCH  26  50
BRANCH  22  58
HETATM   58  C   UNK N   1      29.167  12.030   0.854  0.00  0.00     0.073 C 
BRANCH  58  59
HETATM   59  C   UNK N   1      29.137  10.537   0.748  0.00  0.00    -0.056 A 
HETATM   60  C   UNK N   1      29.996   9.754   1.531  0.00  0.00     0.007 A 
HETATM   61  C   UNK N   1      30.008   8.364   1.384  0.00  0.00     0.001 A 
HETATM   62  C   UNK N   1      29.169   7.754   0.447  0.00  0.00     0.000 A 
HETATM   63  C   UNK N   1      28.320   8.536  -0.344  0.00  0.00     0.001 A 
HETATM   64  C   UNK N   1      28.308   9.926  -0.197  0.00  0.00     0.007 A 
ENDBRANCH  58  59
ENDBRANCH  22  58
BRANCH  10  65
HETATM   65  C   UNK N   1      27.515  18.780   6.124  0.00  0.00     0.163 C 
HETATM   66  O   UNK N   1      27.373  19.710   5.348  0.00  0.00    -0.648 OA
BRANCH  65  67
HETATM   67  O   UNK N   1      27.696  19.030   7.435  0.00  0.00    -0.775 OA
HETATM   68  H   UNK N   1      27.908  19.867   7.799  0.00  0.00     0.167 HD
ENDBRANCH  65  67
ENDBRANCH  10  65
BRANCH  18  69
HETATM   69  C   UNK N   1      31.747  13.255   2.477  0.00  0.00     0.036 C 
BRANCH  69  70
HETATM   70  C   UNK N   1      32.389  11.885   2.631  0.00  0.00     0.023 C 
BRANCH  70  71
HETATM   71  C   UNK N   1      33.343  11.597   1.494  0.00  0.00     0.138 C 
BRANCH  71  72
HETATM   72  N   UNK N   1      33.700  12.840   0.859  0.00  0.00    -0.227 N 
HETATM   73  C   UNK N   1      35.048  13.164   0.552  0.00  0.00     0.665 C 
HETATM   74  N   UNK N   1      35.995  12.337   0.807  0.00  0.00    -0.235 N 
HETATM   75  N   UNK N   1      35.343  14.390  -0.083  0.00  0.00    -0.235 N 
HETATM   76  H   UNK N   1      36.955  12.540   0.738  0.00  0.00     0.174 HD
ATOM     77  HN  UNK N   1      35.732  11.396   1.102  1.00  0.00     0.174 HD
HETATM   78  H   UNK N   1      34.714  14.782  -0.731  0.00  0.00     0.174 HD
HETATM   79  H   UNK N   1      36.185  14.856   0.124  0.00  0.00     0.174 HD
HETATM   80  H   UNK N   1      32.990  13.481   0.630  0.00  0.00     0.177 HD
ENDBRANCH  71  72
ENDBRANCH  70  71
ENDBRANCH  69  70
ENDBRANCH  18  69
BRANCH  14  81
HETATM   81  C   UNK N   1      32.067  16.846   4.261  0.00  0.00     0.075 C 
BRANCH  81  82
HETATM   82  C   UNK N   1      33.203  16.598   5.195  0.00  0.00    -0.028 A 
HETATM   83  C   UNK N   1      33.503  17.254   6.386  0.00  0.00     0.096 A 
HETATM   84  N   UNK N   1      34.620  16.703   6.932  0.00  0.00    -0.365 N 
HETATM   85  C   UNK N   1      34.998  15.719   6.092  0.00  0.00     0.042 A 
HETATM   86  H   UNK N   1      35.062  16.968   7.770  0.00  0.00     0.165 HD
HETATM   87  C   UNK N   1      34.152  15.635   5.028  0.00  0.00    -0.002 A 
HETATM   88  C   UNK N   1      36.086  14.863   6.229  0.00  0.00     0.030 A 
HETATM   89  C   UNK N   1      34.319  14.696   4.015  0.00  0.00     0.014 A 
HETATM   90  C   UNK N   1      35.408  13.815   4.118  0.00  0.00     0.001 A 
HETATM   91  C   UNK N   1      36.288  13.896   5.222  0.00  0.00     0.002 A 
ENDBRANCH  81  82
ENDBRANCH  14  81
TORSDOF 18
ENDMDL
MODEL 3
REMARK VINA RESULT:      -7.8      5.478      9.665
REMARK  18 active torsions:
REMARK  status: ('A' for Active; 'I' for Inactive)
REMARK    1  A    between atoms: C_2  and  C_3 
REMARK    2  A    between atoms: C_3  and  C_4 
REMARK    3  A    between atoms: C_4  and  C_5 
REMARK    4  A    between atoms: C_5  and  C_6 
REMARK    5  A    between atoms: C_5  and  N_73 
REMARK       I    between atoms: C_6  and  N_8 
REMARK    6  A    between atoms: C_9  and  N_8 
REMARK    7  A    between atoms: C_18  and  C_70 
REMARK    8  A    between atoms: C_22  and  C_60 
REMARK    9  A    between atoms: C_26  and  C_52 
REMARK   10  A    between atoms: C_30  and  C_45 
REMARK   11  A    between atoms: C_34  and  C_38 
REMARK   12  A    between atoms: C_38  and  C_39 
REMARK   13  A    between atoms: C_45  and  C_46 
REMARK   14  A    between atoms: C_52  and  C_53 
REMARK   15  A    between atoms: C_53  and  C_54 
REMARK   16  A    between atoms: C_54  and  N_55 
REMARK       I    between atoms: N_55  and  C_56 
REMARK       I    between atoms: C_56  and  N_59 
REMARK   17  A    between atoms: C_60  and  C_61 
REMARK   18  A    between atoms: C_70  and  O_72 
REMARK       I    between atoms: N_73  and  C_74 
ROOT
HETATM    1  C   UNK N   1      33.649  14.364   6.202  0.00  0.00     0.185 C 
HETATM    2  C   UNK N   1      34.846  13.772   6.937  0.00  0.00     0.137 C 
HETATM    3  C   UNK N   1      36.150  14.053   6.241  0.00  0.00     0.220 C 
HETATM    4  O   UNK N   1      37.070  14.519   6.892  0.00  0.00    -0.274 OA
HETATM    5  N   UNK N   1      36.339  13.794   4.919  0.00  0.00    -0.361 N 
HETATM    6  C   UNK N   1      35.320  13.267   4.030  0.00  0.00     0.122 C 
HETATM    7  C   UNK N   1      34.829  11.881   4.457  0.00  0.00     0.020 C 
HETATM    8  C   UNK N   1      35.983  10.966   4.861  0.00  0.00     0.004 C 
HETATM    9  C   UNK N   1      36.693  10.310   3.681  0.00  0.00     0.036 C 
HETATM   10  C   UNK N   1      37.064  11.315   2.594  0.00  0.00     0.182 C 
HETATM   11  N   UNK N   1      36.208  11.135   1.437  0.00  0.00    -0.345 N 
HETATM   12  C   UNK N   1      36.172  10.011   0.678  0.00  0.00     0.241 C 
HETATM   13  O   UNK N   1      36.974   9.105   0.858  0.00  0.00    -0.271 OA
HETATM   14  C   UNK N   1      35.040   9.813  -0.274  0.00  0.00     0.181 C 
HETATM   15  N   UNK N   1      34.256   8.711   0.244  0.00  0.00    -0.346 N 
HETATM   16  C   UNK N   1      32.960   8.838   0.628  0.00  0.00     0.241 C 
HETATM   17  O   UNK N   1      32.424   7.911   1.213  0.00  0.00    -0.271 OA
HETATM   18  C   UNK N   1      32.132  10.066   0.314  0.00  0.00     0.176 C 
HETATM   19  N   UNK N   1      32.891  11.283   0.494  0.00  0.00    -0.346 N 
HETATM   20  C   UNK N   1      32.448  12.365   1.177  0.00  0.00     0.241 C 
HETATM   21  O   UNK N   1      33.170  13.344   1.273  0.00  0.00    -0.271 OA
HETATM   22  C   UNK N   1      31.080  12.418   1.783  0.00  0.00     0.180 C 
HETATM   23  N   UNK N   1      30.948  11.486   2.878  0.00  0.00    -0.346 N 
HETATM   24  C   UNK N   1      31.028  11.869   4.183  0.00  0.00     0.241 C 
HETATM   25  O   UNK N   1      30.788  11.042   5.050  0.00  0.00    -0.271 OA
HETATM   26  C   UNK N   1      31.461  13.273   4.591  0.00  0.00     0.182 C 
HETATM   27  N   UNK N   1      31.338  13.467   6.023  0.00  0.00    -0.346 N 
HETATM   28  C   UNK N   1      32.324  13.981   6.794  0.00  0.00     0.241 C 
HETATM   29  O   UNK N   1      32.139  14.105   7.994  0.00  0.00    -0.271 OA
HETATM   30  H   UNK N   1      37.228  13.977   4.538  0.00  0.00     0.162 HD
HETATM   31  H   UNK N   1      35.612  11.878   1.186  0.00  0.00     0.163 HD
HETATM   32  H   UNK N   1      34.684   7.827   0.320  0.00  0.00     0.163 HD
HETATM   33  H   UNK N   1      33.789  11.329   0.093  0.00  0.00     0.163 HD
HETATM   34  H   UNK N   1      30.794  10.536   2.674  0.00  0.00     0.163 HD
HETATM   35  H   UNK N   1      30.492  13.212   6.458  0.00  0.00     0.163 HD
ENDROOT
BRANCH   1  36
HETATM   36  N   UNK N   1      33.808  15.754   5.813  0.00  0.00    -0.346 N 
HETATM   37  C   UNK N   1      33.811  16.842   6.624  0.00  0.00     0.241 C 
HETATM   38  O   UNK N   1      34.050  17.936   6.136  0.00  0.00    -0.271 OA
HETATM   39  H   UNK N   1      33.927  15.927   4.851  0.00  0.00     0.163 HD
BRANCH  37  40
HETATM   40  C   UNK N   1      33.505  16.751   8.094  0.00  0.00     0.176 C 
BRANCH  40  41
HETATM   41  C   UNK N   1      32.329  17.679   8.421  0.00  0.00     0.035 C 
BRANCH  41  42
HETATM   42  C   UNK N   1      31.072  17.321   7.641  0.00  0.00     0.002 C 
BRANCH  42  43
HETATM   43  C   UNK N   1      29.824  17.596   8.461  0.00  0.00    -0.004 C 
HETATM   44  C   UNK N   1      30.052  18.776   9.384  0.00  0.00     0.005 C 
ENDBRANCH  42  43
ENDBRANCH  41  42
ENDBRANCH  40  41
BRANCH  40  45
HETATM   45  N   UNK N   1      34.673  17.153   8.849  0.00  0.00    -0.348 N 
HETATM   46  C   UNK N   1      35.120  16.497   9.949  0.00  0.00     0.214 C 
HETATM   47  O   UNK N   1      36.105  16.914  10.535  0.00  0.00    -0.274 OA
HETATM   48  C   UNK N   1      34.433  15.271  10.463  0.00  0.00     0.117 C 
HETATM   49  H   UNK N   1      35.170  17.948   8.546  0.00  0.00     0.163 HD
ENDBRANCH  40  45
ENDBRANCH  37  40
ENDBRANCH   1  36
BRANCH  26  50
HETATM   50  C   UNK N   1      30.761  14.411   3.839  0.00  0.00     0.093 C 
BRANCH  50  51
HETATM   51  C   UNK N   1      31.625  15.585   3.535  0.00  0.00     0.028 A 
HETATM   52  C   UNK N   1      31.382  16.895   3.865  0.00  0.00     0.114 A 
HETATM   53  N   UNK N   1      32.412  17.627   3.399  0.00  0.00    -0.360 N 
HETATM   54  C   UNK N   1      33.249  16.753   2.799  0.00  0.00     0.180 A 
ATOM     55  HN  UNK N   1      32.535  18.636   3.483  1.00  0.00     0.166 HD
HETATM   56  N   UNK N   1      32.784  15.491   2.869  0.00  0.00    -0.354 N 
HETATM   57  H   UNK N   1      33.205  14.677   2.508  0.00  0.00     0.166 HD
ENDBRANCH  50  51
ENDBRANCH  26  50
BRANCH  22  58
HETATM   58  C   UNK N   1      30.011  12.251   0.691  0.00  0.00     0.073 C 
BRANCH  58  59
HETATM   59  C   UNK N   1      28.598  12.081   1.153  0.00  0.00    -0.056 A 
HETATM   60  C   UNK N   1      27.869  10.937   0.798  0.00  0.00     0.007 A 
HETATM   61  C   UNK N   1      26.530  10.811   1.180  0.00  0.00     0.001 A 
HETATM   62  C   UNK N   1      25.913  11.832   1.909  0.00  0.00     0.000 A 
HETATM   63  C   UNK N   1      26.636  12.979   2.254  0.00  0.00     0.001 A 
HETATM   64  C   UNK N   1      27.975  13.105   1.872  0.00  0.00     0.007 A 
ENDBRANCH  58  59
ENDBRANCH  22  58
BRANCH  10  65
HETATM   65  C   UNK N   1      38.533  11.332   2.302  0.00  0.00     0.163 C 
HETATM   66  O   UNK N   1      39.068  12.385   1.998  0.00  0.00    -0.648 OA
BRANCH  65  67
HETATM   67  O   UNK N   1      39.279  10.218   2.423  0.00  0.00    -0.775 OA
HETATM   68  H   UNK N   1      39.818   9.854   1.748  0.00  0.00     0.167 HD
ENDBRANCH  65  67
ENDBRANCH  10  65
BRANCH  18  69
HETATM   69  C   UNK N   1      31.580   9.991  -1.104  0.00  0.00     0.036 C 
BRANCH  69  70
HETATM   70  C   UNK N   1      30.455   8.971  -1.155  0.00  0.00     0.023 C 
BRANCH  70  71
HETATM   71  C   UNK N   1      30.584   8.073  -2.365  0.00  0.00     0.138 C 
BRANCH  71  72
HETATM   72  N   UNK N   1      29.304   7.987  -3.021  0.00  0.00    -0.227 N 
HETATM   73  C   UNK N   1      28.904   8.923  -4.009  0.00  0.00     0.665 C 
HETATM   74  N   UNK N   1      29.692   9.868  -4.374  0.00  0.00    -0.235 N 
HETATM   75  N   UNK N   1      27.644   8.786  -4.631  0.00  0.00    -0.235 N 
HETATM   76  H   UNK N   1      29.439  10.620  -4.956  0.00  0.00     0.174 HD
ATOM     77  HN  UNK N   1      30.654   9.835  -4.036  1.00  0.00     0.174 HD
HETATM   78  H   UNK N   1      27.261   7.893  -4.793  0.00  0.00     0.174 HD
HETATM   79  H   UNK N   1      27.144   9.589  -4.904  0.00  0.00     0.174 HD
HETATM   80  H   UNK N   1      28.691   7.257  -2.777  0.00  0.00     0.177 HD
ENDBRANCH  71  72
ENDBRANCH  70  71
ENDBRANCH  69  70
ENDBRANCH  18  69
BRANCH  14  81
HETATM   81  C   UNK N   1      35.541   9.628  -1.708  0.00  0.00     0.075 C 
BRANCH  81  82
HETATM   82  C   UNK N   1      35.015  10.636  -2.674  0.00  0.00    -0.028 A 
HETATM   83  C   UNK N   1      34.168  10.433  -3.760  0.00  0.00     0.096 A 
HETATM   84  N   UNK N   1      33.926  11.625  -4.368  0.00  0.00    -0.365 N 
HETATM   85  C   UNK N   1      34.611  12.548  -3.664  0.00  0.00     0.042 A 
HETATM   86  H   UNK N   1      33.365  11.783  -5.161  0.00  0.00     0.165 HD
HETATM   87  C   UNK N   1      35.281  11.971  -2.628  0.00  0.00    -0.002 A 
HETATM   88  C   UNK N   1      34.668  13.919  -3.897  0.00  0.00     0.030 A 
HETATM   89  C   UNK N   1      36.063  12.708  -1.743  0.00  0.00     0.014 A 
HETATM   90  C   UNK N   1      36.146  14.095  -1.948  0.00  0.00     0.001 A 
HETATM   91  C   UNK N   1      35.451  14.699  -3.021  0.00  0.00     0.002 A 
ENDBRANCH  81  82
ENDBRANCH  14  81
TORSDOF 18
ENDMDL
MODEL 4
REMARK VINA RESULT:      -7.8      5.083     10.484
REMARK  18 active torsions:
REMARK  status: ('A' for Active; 'I' for Inactive)
REMARK    1  A    between atoms: C_2  and  C_3 
REMARK    2  A    between atoms: C_3  and  C_4 
REMARK    3  A    between atoms: C_4  and  C_5 
REMARK    4  A    between atoms: C_5  and  C_6 
REMARK    5  A    between atoms: C_5  and  N_73 
REMARK       I    between atoms: C_6  and  N_8 
REMARK    6  A    between atoms: C_9  and  N_8 
REMARK    7  A    between atoms: C_18  and  C_70 
REMARK    8  A    between atoms: C_22  and  C_60 
REMARK    9  A    between atoms: C_26  and  C_52 
REMARK   10  A    between atoms: C_30  and  C_45 
REMARK   11  A    between atoms: C_34  and  C_38 
REMARK   12  A    between atoms: C_38  and  C_39 
REMARK   13  A    between atoms: C_45  and  C_46 
REMARK   14  A    between atoms: C_52  and  C_53 
REMARK   15  A    between atoms: C_53  and  C_54 
REMARK   16  A    between atoms: C_54  and  N_55 
REMARK       I    between atoms: N_55  and  C_56 
REMARK       I    between atoms: C_56  and  N_59 
REMARK   17  A    between atoms: C_60  and  C_61 
REMARK   18  A    between atoms: C_70  and  O_72 
REMARK       I    between atoms: N_73  and  C_74 
ROOT
HETATM    1  C   UNK N   1      35.333  12.069   9.810  0.00  0.00     0.185 C 
HETATM    2  C   UNK N   1      35.576  13.425  10.464  0.00  0.00     0.137 C 
HETATM    3  C   UNK N   1      34.298  14.122  10.845  0.00  0.00     0.220 C 
HETATM    4  O   UNK N   1      34.187  14.556  11.979  0.00  0.00    -0.274 OA
HETATM    5  N   UNK N   1      33.273  14.292   9.968  0.00  0.00    -0.361 N 
HETATM    6  C   UNK N   1      33.269  13.798   8.602  0.00  0.00     0.122 C 
HETATM    7  C   UNK N   1      34.388  14.410   7.754  0.00  0.00     0.020 C 
HETATM    8  C   UNK N   1      34.519  15.914   7.982  0.00  0.00     0.004 C 
HETATM    9  C   UNK N   1      33.516  16.749   7.193  0.00  0.00     0.036 C 
HETATM   10  C   UNK N   1      32.087  16.234   7.340  0.00  0.00     0.182 C 
HETATM   11  N   UNK N   1      31.657  15.599   6.109  0.00  0.00    -0.345 N 
HETATM   12  C   UNK N   1      31.524  16.244   4.922  0.00  0.00     0.241 C 
HETATM   13  O   UNK N   1      31.644  17.458   4.849  0.00  0.00    -0.271 OA
HETATM   14  C   UNK N   1      31.393  15.441   3.671  0.00  0.00     0.181 C 
HETATM   15  N   UNK N   1      32.610  15.657   2.915  0.00  0.00    -0.346 N 
HETATM   16  C   UNK N   1      33.478  14.659   2.604  0.00  0.00     0.241 C 
HETATM   17  O   UNK N   1      34.560  14.948   2.120  0.00  0.00    -0.271 OA
HETATM   18  C   UNK N   1      33.137  13.195   2.785  0.00  0.00     0.176 C 
HETATM   19  N   UNK N   1      32.434  12.959   4.026  0.00  0.00    -0.346 N 
HETATM   20  C   UNK N   1      32.752  11.983   4.910  0.00  0.00     0.241 C 
HETATM   21  O   UNK N   1      32.096  11.870   5.932  0.00  0.00    -0.271 OA
HETATM   22  C   UNK N   1      33.857  11.006   4.652  0.00  0.00     0.180 C 
HETATM   23  N   UNK N   1      35.150  11.650   4.671  0.00  0.00    -0.346 N 
HETATM   24  C   UNK N   1      35.984  11.593   5.746  0.00  0.00     0.241 C 
HETATM   25  O   UNK N   1      37.107  12.062   5.639  0.00  0.00    -0.271 OA
HETATM   26  C   UNK N   1      35.541  11.016   7.087  0.00  0.00     0.182 C 
HETATM   27  N   UNK N   1      36.647  10.949   8.023  0.00  0.00    -0.346 N 
HETATM   28  C   UNK N   1      36.579  11.414   9.292  0.00  0.00     0.241 C 
HETATM   29  O   UNK N   1      37.561  11.323  10.012  0.00  0.00    -0.271 OA
HETATM   30  H   UNK N   1      32.479  14.783  10.279  0.00  0.00     0.162 HD
HETATM   31  H   UNK N   1      31.448  14.638   6.135  0.00  0.00     0.163 HD
HETATM   32  H   UNK N   1      32.818  16.571   2.612  0.00  0.00     0.163 HD
HETATM   33  H   UNK N   1      31.675  13.546   4.244  0.00  0.00     0.163 HD
HETATM   34  H   UNK N   1      35.439  12.150   3.875  0.00  0.00     0.163 HD
HETATM   35  H   UNK N   1      37.492  10.544   7.719  0.00  0.00     0.163 HD
ENDROOT
BRANCH   1  36
HETATM   36  N   UNK N   1      34.400  11.215  10.524  0.00  0.00    -0.346 N 
HETATM   37  C   UNK N   1      34.395  10.927  11.850  0.00  0.00     0.241 C 
HETATM   38  O   UNK N   1      33.477  10.258  12.300  0.00  0.00    -0.271 OA
HETATM   39  H   UNK N   1      33.691  10.796   9.984  0.00  0.00     0.163 HD
BRANCH  37  40
HETATM   40  C   UNK N   1      35.490  11.379  12.776  0.00  0.00     0.176 C 
BRANCH  40  41
HETATM   41  C   UNK N   1      36.360  10.173  13.153  0.00  0.00     0.035 C 
BRANCH  41  42
HETATM   42  C   UNK N   1      37.836  10.533  13.256  0.00  0.00     0.002 C 
BRANCH  42  43
HETATM   43  C   UNK N   1      38.327  10.415  14.688  0.00  0.00    -0.004 C 
HETATM   44  C   UNK N   1      37.292   9.709  15.541  0.00  0.00     0.005 C 
ENDBRANCH  42  43
ENDBRANCH  41  42
ENDBRANCH  40  41
BRANCH  40  45
HETATM   45  N   UNK N   1      34.899  11.949  13.968  0.00  0.00    -0.348 N 
HETATM   46  C   UNK N   1      35.403  13.031  14.614  0.00  0.00     0.214 C 
HETATM   47  O   UNK N   1      34.850  13.437  15.622  0.00  0.00    -0.274 OA
HETATM   48  C   UNK N   1      36.625  13.740  14.119  0.00  0.00     0.117 C 
HETATM   49  H   UNK N   1      34.085  11.528  14.330  0.00  0.00     0.163 HD
ENDBRANCH  40  45
ENDBRANCH  37  40
ENDBRANCH   1  36
BRANCH  26  50
HETATM   50  C   UNK N   1      34.832   9.659   7.006  0.00  0.00     0.093 C 
BRANCH  50  51
HETATM   51  C   UNK N   1      33.760   9.452   8.018  0.00  0.00     0.028 A 
HETATM   52  C   UNK N   1      33.733   8.502   9.008  0.00  0.00     0.114 A 
HETATM   53  N   UNK N   1      32.586   8.664   9.694  0.00  0.00    -0.360 N 
HETATM   54  C   UNK N   1      31.944   9.698   9.107  0.00  0.00     0.180 A 
ATOM     55  HN  UNK N   1      32.266   8.117  10.494  1.00  0.00     0.166 HD
HETATM   56  N   UNK N   1      32.647  10.197   8.073  0.00  0.00    -0.354 N 
HETATM   57  H   UNK N   1      32.398  10.947   7.485  0.00  0.00     0.166 HD
ENDBRANCH  50  51
ENDBRANCH  26  50
BRANCH  22  58
HETATM   58  C   UNK N   1      33.574  10.214   3.365  0.00  0.00     0.073 C 
BRANCH  58  59
HETATM   59  C   UNK N   1      32.347   9.358   3.357  0.00  0.00    -0.056 A 
HETATM   60  C   UNK N   1      32.183   8.346   4.314  0.00  0.00     0.007 A 
HETATM   61  C   UNK N   1      31.065   7.509   4.265  0.00  0.00     0.001 A 
HETATM   62  C   UNK N   1      30.114   7.673   3.254  0.00  0.00     0.000 A 
HETATM   63  C   UNK N   1      30.282   8.674   2.293  0.00  0.00     0.001 A 
HETATM   64  C   UNK N   1      31.400   9.512   2.341  0.00  0.00     0.007 A 
ENDBRANCH  58  59
ENDBRANCH  22  58
BRANCH  10  65
HETATM   65  C   UNK N   1      31.153  17.271   7.882  0.00  0.00     0.163 C 
HETATM   66  O   UNK N   1      31.570  18.091   8.683  0.00  0.00    -0.648 OA
BRANCH  65  67
HETATM   67  O   UNK N   1      29.877  17.347   7.457  0.00  0.00    -0.775 OA
HETATM   68  H   UNK N   1      29.523  16.873   6.730  0.00  0.00     0.167 HD
ENDBRANCH  65  67
ENDBRANCH  10  65
BRANCH  18  69
HETATM   69  C   UNK N   1      32.316  12.687   1.608  0.00  0.00     0.036 C 
BRANCH  69  70
HETATM   70  C   UNK N   1      33.248  12.302   0.470  0.00  0.00     0.023 C 
BRANCH  70  71
HETATM   71  C   UNK N   1      32.473  11.969  -0.784  0.00  0.00     0.138 C 
BRANCH  71  72
HETATM   72  N   UNK N   1      33.359  12.056  -1.918  0.00  0.00    -0.227 N 
HETATM   73  C   UNK N   1      32.906  11.826  -3.243  0.00  0.00     0.665 C 
HETATM   74  N   UNK N   1      31.672  11.562  -3.477  0.00  0.00    -0.235 N 
HETATM   75  N   UNK N   1      33.812  11.937  -4.319  0.00  0.00    -0.235 N 
HETATM   76  H   UNK N   1      31.312  11.271  -4.345  0.00  0.00     0.174 HD
ATOM     77  HN  UNK N   1      31.015  11.662  -2.703  1.00  0.00     0.174 HD
HETATM   78  H   UNK N   1      34.546  12.593  -4.290  0.00  0.00     0.174 HD
HETATM   79  H   UNK N   1      33.710  11.353  -5.105  0.00  0.00     0.174 HD
HETATM   80  H   UNK N   1      34.305  12.282  -1.768  0.00  0.00     0.177 HD
ENDBRANCH  71  72
ENDBRANCH  70  71
ENDBRANCH  69  70
ENDBRANCH  18  69
BRANCH  14  81
HETATM   81  C   UNK N   1      30.103  15.779   2.922  0.00  0.00     0.075 C 
BRANCH  81  82
HETATM   82  C   UNK N   1      28.939  14.922   3.290  0.00  0.00    -0.028 A 
HETATM   83  C   UNK N   1      28.006  15.119   4.305  0.00  0.00     0.096 A 
HETATM   84  N   UNK N   1      27.102  14.104   4.285  0.00  0.00    -0.365 N 
HETATM   85  C   UNK N   1      27.469  13.297   3.269  0.00  0.00     0.042 A 
HETATM   86  H   UNK N   1      26.334  13.982   4.889  0.00  0.00     0.165 HD
HETATM   87  C   UNK N   1      28.583  13.774   2.648  0.00  0.00    -0.002 A 
HETATM   88  C   UNK N   1      26.843  12.128   2.849  0.00  0.00     0.030 A 
HETATM   89  C   UNK N   1      29.166  13.127   1.562  0.00  0.00     0.014 A 
HETATM   90  C   UNK N   1      28.562  11.943   1.111  0.00  0.00     0.001 A 
HETATM   91  C   UNK N   1      27.404  11.444   1.750  0.00  0.00     0.002 A 
ENDBRANCH  81  82
ENDBRANCH  14  81
TORSDOF 18
ENDMDL
MODEL 5
REMARK VINA RESULT:      -7.7      2.922      7.204
REMARK  18 active torsions:
REMARK  status: ('A' for Active; 'I' for Inactive)
REMARK    1  A    between atoms: C_2  and  C_3 
REMARK    2  A    between atoms: C_3  and  C_4 
REMARK    3  A    between atoms: C_4  and  C_5 
REMARK    4  A    between atoms: C_5  and  C_6 
REMARK    5  A    between atoms: C_5  and  N_73 
REMARK       I    between atoms: C_6  and  N_8 
REMARK    6  A    between atoms: C_9  and  N_8 
REMARK    7  A    between atoms: C_18  and  C_70 
REMARK    8  A    between atoms: C_22  and  C_60 
REMARK    9  A    between atoms: C_26  and  C_52 
REMARK   10  A    between atoms: C_30  and  C_45 
REMARK   11  A    between atoms: C_34  and  C_38 
REMARK   12  A    between atoms: C_38  and  C_39 
REMARK   13  A    between atoms: C_45  and  C_46 
REMARK   14  A    between atoms: C_52  and  C_53 
REMARK   15  A    between atoms: C_53  and  C_54 
REMARK   16  A    between atoms: C_54  and  N_55 
REMARK       I    between atoms: N_55  and  C_56 
REMARK       I    between atoms: C_56  and  N_59 
REMARK   17  A    between atoms: C_60  and  C_61 
REMARK   18  A    between atoms: C_70  and  O_72 
REMARK       I    between atoms: N_73  and  C_74 
ROOT
HETATM    1  C   UNK N   1      29.991  14.296   4.260  0.00  0.00     0.185 C 
HETATM    2  C   UNK N   1      30.073  15.756   3.826  0.00  0.00     0.137 C 
HETATM    3  C   UNK N   1      29.418  16.689   4.808  0.00  0.00     0.220 C 
HETATM    4  O   UNK N   1      30.044  17.662   5.194  0.00  0.00    -0.274 OA
HETATM    5  N   UNK N   1      28.153  16.490   5.267  0.00  0.00    -0.361 N 
HETATM    6  C   UNK N   1      27.316  15.360   4.907  0.00  0.00     0.122 C 
HETATM    7  C   UNK N   1      27.016  15.306   3.406  0.00  0.00     0.020 C 
HETATM    8  C   UNK N   1      26.659  16.681   2.847  0.00  0.00     0.004 C 
HETATM    9  C   UNK N   1      25.208  17.087   3.084  0.00  0.00     0.036 C 
HETATM   10  C   UNK N   1      24.779  16.891   4.535  0.00  0.00     0.182 C 
HETATM   11  N   UNK N   1      23.877  15.760   4.639  0.00  0.00    -0.345 N 
HETATM   12  C   UNK N   1      22.655  15.699   4.051  0.00  0.00     0.241 C 
HETATM   13  O   UNK N   1      22.180  16.673   3.485  0.00  0.00    -0.271 OA
HETATM   14  C   UNK N   1      21.961  14.381   3.955  0.00  0.00     0.181 C 
HETATM   15  N   UNK N   1      21.940  14.030   2.549  0.00  0.00    -0.346 N 
HETATM   16  C   UNK N   1      22.554  12.927   2.050  0.00  0.00     0.241 C 
HETATM   17  O   UNK N   1      22.638  12.794   0.841  0.00  0.00    -0.271 OA
HETATM   18  C   UNK N   1      23.094  11.823   2.935  0.00  0.00     0.176 C 
HETATM   19  N   UNK N   1      23.759  12.352   4.105  0.00  0.00    -0.346 N 
HETATM   20  C   UNK N   1      24.979  11.954   4.535  0.00  0.00     0.241 C 
HETATM   21  O   UNK N   1      25.454  12.467   5.535  0.00  0.00    -0.271 OA
HETATM   22  C   UNK N   1      25.749  10.868   3.850  0.00  0.00     0.180 C 
HETATM   23  N   UNK N   1      26.182  11.275   2.533  0.00  0.00    -0.346 N 
HETATM   24  C   UNK N   1      27.451  11.694   2.273  0.00  0.00     0.241 C 
HETATM   25  O   UNK N   1      27.770  11.908   1.112  0.00  0.00    -0.271 OA
HETATM   26  C   UNK N   1      28.462  11.959   3.384  0.00  0.00     0.182 C 
HETATM   27  N   UNK N   1      29.772  12.266   2.843  0.00  0.00    -0.346 N 
HETATM   28  C   UNK N   1      30.510  13.330   3.235  0.00  0.00     0.241 C 
HETATM   29  O   UNK N   1      31.602  13.519   2.723  0.00  0.00    -0.271 OA
HETATM   30  H   UNK N   1      27.779  17.158   5.885  0.00  0.00     0.162 HD
HETATM   31  H   UNK N   1      24.170  14.985   5.171  0.00  0.00     0.163 HD
HETATM   32  H   UNK N   1      21.456  14.620   1.927  0.00  0.00     0.163 HD
HETATM   33  H   UNK N   1      23.294  13.048   4.623  0.00  0.00     0.163 HD
HETATM   34  H   UNK N   1      25.533  11.249   1.794  0.00  0.00     0.163 HD
HETATM   35  H   UNK N   1      30.144  11.669   2.154  0.00  0.00     0.163 HD
ENDROOT
BRANCH   1  36
HETATM   36  N   UNK N   1      30.383  14.054   5.637  0.00  0.00    -0.346 N 
HETATM   37  C   UNK N   1      31.573  14.348   6.219  0.00  0.00     0.241 C 
HETATM   38  O   UNK N   1      31.701  14.157   7.419  0.00  0.00    -0.271 OA
HETATM   39  H   UNK N   1      29.709  13.626   6.214  0.00  0.00     0.163 HD
BRANCH  37  40
HETATM   40  C   UNK N   1      32.744  14.874   5.437  0.00  0.00     0.176 C 
BRANCH  40  41
HETATM   41  C   UNK N   1      33.756  13.742   5.222  0.00  0.00     0.035 C 
BRANCH  41  42
HETATM   42  C   UNK N   1      34.773  14.071   4.138  0.00  0.00     0.002 C 
BRANCH  42  43
HETATM   43  C   UNK N   1      36.173  13.665   4.564  0.00  0.00    -0.004 C 
HETATM   44  C   UNK N   1      36.611  14.476   5.767  0.00  0.00     0.005 C 
ENDBRANCH  42  43
ENDBRANCH  41  42
ENDBRANCH  40  41
BRANCH  40  45
HETATM   45  N   UNK N   1      33.365  15.952   6.177  0.00  0.00    -0.348 N 
HETATM   46  C   UNK N   1      33.613  17.179   5.653  0.00  0.00     0.214 C 
HETATM   47  O   UNK N   1      34.155  18.026   6.343  0.00  0.00    -0.274 OA
HETATM   48  C   UNK N   1      33.239  17.520   4.244  0.00  0.00     0.117 C 
HETATM   49  H   UNK N   1      33.621  15.786   7.114  0.00  0.00     0.163 HD
ENDBRANCH  40  45
ENDBRANCH  37  40
ENDBRANCH   1  36
BRANCH  26  50
HETATM   50  C   UNK N   1      28.570  10.851   4.439  0.00  0.00     0.093 C 
BRANCH  50  51
HETATM   51  C   UNK N   1      29.264   9.616   3.980  0.00  0.00     0.028 A 
HETATM   52  C   UNK N   1      30.577   9.281   4.194  0.00  0.00     0.114 A 
HETATM   53  N   UNK N   1      30.791   8.087   3.608  0.00  0.00    -0.360 N 
HETATM   54  C   UNK N   1      29.613   7.729   3.053  0.00  0.00     0.180 A 
ATOM     55  HN  UNK N   1      31.664   7.560   3.589  1.00  0.00     0.166 HD
HETATM   56  N   UNK N   1      28.660   8.655   3.268  0.00  0.00    -0.354 N 
HETATM   57  H   UNK N   1      27.723   8.631   2.966  0.00  0.00     0.166 HD
ENDBRANCH  50  51
ENDBRANCH  26  50
BRANCH  22  58
HETATM   58  C   UNK N   1      24.945   9.558   3.864  0.00  0.00     0.073 C 
BRANCH  58  59
HETATM   59  C   UNK N   1      24.904   8.807   5.157  0.00  0.00    -0.056 A 
HETATM   60  C   UNK N   1      25.796   7.750   5.391  0.00  0.00     0.007 A 
HETATM   61  C   UNK N   1      25.713   7.011   6.574  0.00  0.00     0.001 A 
HETATM   62  C   UNK N   1      24.734   7.320   7.523  0.00  0.00     0.000 A 
HETATM   63  C   UNK N   1      23.837   8.366   7.286  0.00  0.00     0.001 A 
HETATM   64  C   UNK N   1      23.918   9.105   6.102  0.00  0.00     0.007 A 
ENDBRANCH  58  59
ENDBRANCH  22  58
BRANCH  10  65
HETATM   65  C   UNK N   1      24.288  18.157   5.167  0.00  0.00     0.163 C 
HETATM   66  O   UNK N   1      24.920  19.188   5.006  0.00  0.00    -0.648 OA
BRANCH  65  67
HETATM   67  O   UNK N   1      23.135  18.185   5.862  0.00  0.00    -0.775 OA
HETATM   68  H   UNK N   1      22.587  18.938   5.966  0.00  0.00     0.167 HD
ENDBRANCH  65  67
ENDBRANCH  10  65
BRANCH  18  69
HETATM   69  C   UNK N   1      21.979  10.871   3.346  0.00  0.00     0.036 C 
BRANCH  69  70
HETATM   70  C   UNK N   1      21.684   9.914   2.203  0.00  0.00     0.023 C 
BRANCH  70  71
HETATM   71  C   UNK N   1      20.213   9.911   1.856  0.00  0.00     0.138 C 
BRANCH  71  72
HETATM   72  N   UNK N   1      19.961  10.943   0.881  0.00  0.00    -0.227 N 
HETATM   73  C   UNK N   1      19.173  12.083   1.183  0.00  0.00     0.665 C 
HETATM   74  N   UNK N   1      18.680  12.247   2.357  0.00  0.00    -0.235 N 
HETATM   75  N   UNK N   1      18.968  13.071   0.195  0.00  0.00    -0.235 N 
HETATM   76  H   UNK N   1      18.027  12.941   2.603  0.00  0.00     0.174 HD
ATOM     77  HN  UNK N   1      18.990  11.609   3.090  1.00  0.00     0.174 HD
HETATM   78  H   UNK N   1      19.671  13.274  -0.463  0.00  0.00     0.174 HD
HETATM   79  H   UNK N   1      18.114  13.560   0.165  0.00  0.00     0.174 HD
HETATM   80  H   UNK N   1      20.348  10.853  -0.020  0.00  0.00     0.177 HD
ENDBRANCH  71  72
ENDBRANCH  70  71
ENDBRANCH  69  70
ENDBRANCH  18  69
BRANCH  14  81
HETATM   81  C   UNK N   1      20.589  14.422   4.629  0.00  0.00     0.075 C 
BRANCH  81  82
HETATM   82  C   UNK N   1      20.624  14.817   6.066  0.00  0.00    -0.028 A 
HETATM   83  C   UNK N   1      20.228  16.021   6.643  0.00  0.00     0.096 A 
HETATM   84  N   UNK N   1      20.416  15.957   7.988  0.00  0.00    -0.365 N 
HETATM   85  C   UNK N   1      20.916  14.729   8.236  0.00  0.00     0.042 A 
HETATM   86  H   UNK N   1      20.227  16.663   8.648  0.00  0.00     0.165 HD
HETATM   87  C   UNK N   1      21.051  14.017   7.084  0.00  0.00    -0.002 A 
HETATM   88  C   UNK N   1      21.262  14.191   9.472  0.00  0.00     0.030 A 
HETATM   89  C   UNK N   1      21.542  12.715   7.065  0.00  0.00     0.014 A 
HETATM   90  C   UNK N   1      21.904  12.139   8.293  0.00  0.00     0.001 A 
HETATM   91  C   UNK N   1      21.764  12.874   9.494  0.00  0.00     0.002 A 
ENDBRANCH  81  82
ENDBRANCH  14  81
TORSDOF 18
ENDMDL
MODEL 6
REMARK VINA RESULT:      -7.6      4.797     10.190
REMARK  18 active torsions:
REMARK  status: ('A' for Active; 'I' for Inactive)
REMARK    1  A    between atoms: C_2  and  C_3 
REMARK    2  A    between atoms: C_3  and  C_4 
REMARK    3  A    between atoms: C_4  and  C_5 
REMARK    4  A    between atoms: C_5  and  C_6 
REMARK    5  A    between atoms: C_5  and  N_73 
REMARK       I    between atoms: C_6  and  N_8 
REMARK    6  A    between atoms: C_9  and  N_8 
REMARK    7  A    between atoms: C_18  and  C_70 
REMARK    8  A    between atoms: C_22  and  C_60 
REMARK    9  A    between atoms: C_26  and  C_52 
REMARK   10  A    between atoms: C_30  and  C_45 
REMARK   11  A    between atoms: C_34  and  C_38 
REMARK   12  A    between atoms: C_38  and  C_39 
REMARK   13  A    between atoms: C_45  and  C_46 
REMARK   14  A    between atoms: C_52  and  C_53 
REMARK   15  A    between atoms: C_53  and  C_54 
REMARK   16  A    between atoms: C_54  and  N_55 
REMARK       I    between atoms: N_55  and  C_56 
REMARK       I    between atoms: C_56  and  N_59 
REMARK   17  A    between atoms: C_60  and  C_61 
REMARK   18  A    between atoms: C_70  and  O_72 
REMARK       I    between atoms: N_73  and  C_74 
ROOT
HETATM    1  C   UNK N   1      35.563  12.605   9.823  0.00  0.00     0.185 C 
HETATM    2  C   UNK N   1      35.704  13.993  10.440  0.00  0.00     0.137 C 
HETATM    3  C   UNK N   1      34.386  14.565  10.886  0.00  0.00     0.220 C 
HETATM    4  O   UNK N   1      34.298  15.010  12.018  0.00  0.00    -0.274 OA
HETATM    5  N   UNK N   1      33.299  14.610  10.070  0.00  0.00    -0.361 N 
HETATM    6  C   UNK N   1      33.266  14.089   8.715  0.00  0.00     0.122 C 
HETATM    7  C   UNK N   1      34.264  14.793   7.791  0.00  0.00     0.020 C 
HETATM    8  C   UNK N   1      34.253  16.307   7.987  0.00  0.00     0.004 C 
HETATM    9  C   UNK N   1      33.125  17.018   7.247  0.00  0.00     0.036 C 
HETATM   10  C   UNK N   1      31.768  16.364   7.489  0.00  0.00     0.182 C 
HETATM   11  N   UNK N   1      31.334  15.662   6.296  0.00  0.00    -0.345 N 
HETATM   12  C   UNK N   1      31.066  16.264   5.109  0.00  0.00     0.241 C 
HETATM   13  O   UNK N   1      31.056  17.482   5.009  0.00  0.00    -0.271 OA
HETATM   14  C   UNK N   1      30.945  15.424   3.881  0.00  0.00     0.181 C 
HETATM   15  N   UNK N   1      32.087  15.746   3.050  0.00  0.00    -0.346 N 
HETATM   16  C   UNK N   1      33.033  14.835   2.702  0.00  0.00     0.241 C 
HETATM   17  O   UNK N   1      34.049  15.221   2.149  0.00  0.00    -0.271 OA
HETATM   18  C   UNK N   1      32.855  13.349   2.927  0.00  0.00     0.176 C 
HETATM   19  N   UNK N   1      32.254  13.069   4.212  0.00  0.00    -0.346 N 
HETATM   20  C   UNK N   1      32.722  12.150   5.090  0.00  0.00     0.241 C 
HETATM   21  O   UNK N   1      32.142  11.993   6.152  0.00  0.00    -0.271 OA
HETATM   22  C   UNK N   1      33.904  11.285   4.782  0.00  0.00     0.180 C 
HETATM   23  N   UNK N   1      35.123  12.057   4.712  0.00  0.00    -0.346 N 
HETATM   24  C   UNK N   1      36.020  12.109   5.735  0.00  0.00     0.241 C 
HETATM   25  O   UNK N   1      37.081  12.687   5.553  0.00  0.00    -0.271 OA
HETATM   26  C   UNK N   1      35.718  11.519   7.109  0.00  0.00     0.182 C 
HETATM   27  N   UNK N   1      36.878  11.586   7.977  0.00  0.00    -0.346 N 
HETATM   28  C   UNK N   1      36.838  12.069   9.240  0.00  0.00     0.241 C 
HETATM   29  O   UNK N   1      37.864  12.095   9.901  0.00  0.00    -0.271 OA
HETATM   30  H   UNK N   1      32.478  15.025  10.421  0.00  0.00     0.162 HD
HETATM   31  H   UNK N   1      31.226  14.685   6.350  0.00  0.00     0.163 HD
HETATM   32  H   UNK N   1      32.181  16.669   2.720  0.00  0.00     0.163 HD
HETATM   33  H   UNK N   1      31.452  13.581   4.466  0.00  0.00     0.163 HD
HETATM   34  H   UNK N   1      35.312  12.566   3.892  0.00  0.00     0.163 HD
HETATM   35  H   UNK N   1      37.741  11.262   7.630  0.00  0.00     0.163 HD
ENDROOT
BRANCH   1  36
HETATM   36  N   UNK N   1      34.767  11.677  10.605  0.00  0.00    -0.346 N 
HETATM   37  C   UNK N   1      34.882  11.404  11.929  0.00  0.00     0.241 C 
HETATM   38  O   UNK N   1      34.065  10.658  12.448  0.00  0.00    -0.271 OA
HETATM   39  H   UNK N   1      34.062  11.189  10.119  0.00  0.00     0.163 HD
BRANCH  37  40
HETATM   40  C   UNK N   1      35.995  11.964  12.773  0.00  0.00     0.176 C 
BRANCH  40  41
HETATM   41  C   UNK N   1      37.166  10.975  12.782  0.00  0.00     0.035 C 
BRANCH  41  42
HETATM   42  C   UNK N   1      37.165  10.086  14.019  0.00  0.00     0.002 C 
BRANCH  42  43
HETATM   43  C   UNK N   1      38.554   9.993  14.624  0.00  0.00    -0.004 C 
HETATM   44  C   UNK N   1      38.822   8.582  15.109  0.00  0.00     0.005 C 
ENDBRANCH  42  43
ENDBRANCH  41  42
ENDBRANCH  40  41
BRANCH  40  45
HETATM   45  N   UNK N   1      35.512  12.166  14.123  0.00  0.00    -0.348 N 
HETATM   46  C   UNK N   1      35.793  13.268  14.864  0.00  0.00     0.214 C 
HETATM   47  O   UNK N   1      35.357  13.350  16.000  0.00  0.00    -0.274 OA
HETATM   48  C   UNK N   1      36.626  14.386  14.322  0.00  0.00     0.117 C 
HETATM   49  H   UNK N   1      34.948  11.466  14.524  0.00  0.00     0.163 HD
ENDBRANCH  40  45
ENDBRANCH  37  40
ENDBRANCH   1  36
BRANCH  26  50
HETATM   50  C   UNK N   1      35.149  10.096   7.093  0.00  0.00     0.093 C 
BRANCH  50  51
HETATM   51  C   UNK N   1      34.142   9.813   8.153  0.00  0.00     0.028 A 
HETATM   52  C   UNK N   1      34.229   8.863   9.139  0.00  0.00     0.114 A 
HETATM   53  N   UNK N   1      33.105   8.942   9.877  0.00  0.00    -0.360 N 
HETATM   54  C   UNK N   1      32.367   9.929   9.326  0.00  0.00     0.180 A 
ATOM     55  HN  UNK N   1      32.863   8.374  10.689  1.00  0.00     0.166 HD
HETATM   56  N   UNK N   1      32.984  10.478   8.262  0.00  0.00    -0.354 N 
HETATM   57  H   UNK N   1      32.655  11.209   7.690  0.00  0.00     0.166 HD
ENDBRANCH  50  51
ENDBRANCH  26  50
BRANCH  22  58
HETATM   58  C   UNK N   1      33.629  10.440   3.527  0.00  0.00     0.073 C 
BRANCH  58  59
HETATM   59  C   UNK N   1      32.684   9.291   3.682  0.00  0.00    -0.056 A 
HETATM   60  C   UNK N   1      31.759   8.992   2.672  0.00  0.00     0.007 A 
HETATM   61  C   UNK N   1      30.837   7.957   2.848  0.00  0.00     0.001 A 
HETATM   62  C   UNK N   1      30.830   7.224   4.038  0.00  0.00     0.000 A 
HETATM   63  C   UNK N   1      31.745   7.528   5.052  0.00  0.00     0.001 A 
HETATM   64  C   UNK N   1      32.667   8.564   4.876  0.00  0.00     0.007 A 
ENDBRANCH  58  59
ENDBRANCH  22  58
BRANCH  10  65
HETATM   65  C   UNK N   1      30.765  17.313   8.069  0.00  0.00     0.163 C 
HETATM   66  O   UNK N   1      31.151  18.231   8.774  0.00  0.00    -0.648 OA
BRANCH  65  67
HETATM   67  O   UNK N   1      29.455  17.201   7.781  0.00  0.00    -0.775 OA
HETATM   68  H   UNK N   1      28.915  17.893   7.450  0.00  0.00     0.167 HD
ENDBRANCH  65  67
ENDBRANCH  10  65
BRANCH  18  69
HETATM   69  C   UNK N   1      32.023  12.734   1.810  0.00  0.00     0.036 C 
BRANCH  69  70
HETATM   70  C   UNK N   1      30.662  12.330   2.356  0.00  0.00     0.023 C 
BRANCH  70  71
HETATM   71  C   UNK N   1      29.591  12.446   1.296  0.00  0.00     0.138 C 
BRANCH  71  72
HETATM   72  N   UNK N   1      29.486  11.189   0.598  0.00  0.00    -0.227 N 
HETATM   73  C   UNK N   1      29.751  11.080  -0.792  0.00  0.00     0.665 C 
HETATM   74  N   UNK N   1      30.125  12.103  -1.470  0.00  0.00    -0.235 N 
HETATM   75  N   UNK N   1      29.647   9.823  -1.425  0.00  0.00    -0.235 N 
HETATM   76  H   UNK N   1      30.204  12.132  -2.450  0.00  0.00     0.174 HD
ATOM     77  HN  UNK N   1      30.358  12.951  -0.953  1.00  0.00     0.174 HD
HETATM   78  H   UNK N   1      29.880   8.998  -0.941  0.00  0.00     0.174 HD
HETATM   79  H   UNK N   1      29.339   9.771  -2.359  0.00  0.00     0.174 HD
HETATM   80  H   UNK N   1      29.226  10.384   1.100  0.00  0.00     0.177 HD
ENDBRANCH  71  72
ENDBRANCH  70  71
ENDBRANCH  69  70
ENDBRANCH  18  69
BRANCH  14  81
HETATM   81  C   UNK N   1      29.585  15.613   3.206  0.00  0.00     0.075 C 
BRANCH  81  82
HETATM   82  C   UNK N   1      28.422  15.225   4.055  0.00  0.00    -0.028 A 
HETATM   83  C   UNK N   1      28.251  14.071   4.816  0.00  0.00     0.096 A 
HETATM   84  N   UNK N   1      27.049  14.125   5.448  0.00  0.00    -0.365 N 
HETATM   85  C   UNK N   1      26.490  15.297   5.087  0.00  0.00     0.042 A 
HETATM   86  H   UNK N   1      26.664  13.446   6.048  0.00  0.00     0.165 HD
HETATM   87  C   UNK N   1      27.306  15.985   4.241  0.00  0.00    -0.002 A 
HETATM   88  C   UNK N   1      25.258  15.805   5.487  0.00  0.00     0.030 A 
HETATM   89  C   UNK N   1      26.963  17.231   3.723  0.00  0.00     0.014 A 
HETATM   90  C   UNK N   1      25.726  17.775   4.104  0.00  0.00     0.001 A 
HETATM   91  C   UNK N   1      24.876  17.066   4.984  0.00  0.00     0.002 A 
ENDBRANCH  81  82
ENDBRANCH  14  81
TORSDOF 18
ENDMDL
MODEL 7
REMARK VINA RESULT:      -7.5      8.935     15.872
REMARK  18 active torsions:
REMARK  status: ('A' for Active; 'I' for Inactive)
REMARK    1  A    between atoms: C_2  and  C_3 
REMARK    2  A    between atoms: C_3  and  C_4 
REMARK    3  A    between atoms: C_4  and  C_5 
REMARK    4  A    between atoms: C_5  and  C_6 
REMARK    5  A    between atoms: C_5  and  N_73 
REMARK       I    between atoms: C_6  and  N_8 
REMARK    6  A    between atoms: C_9  and  N_8 
REMARK    7  A    between atoms: C_18  and  C_70 
REMARK    8  A    between atoms: C_22  and  C_60 
REMARK    9  A    between atoms: C_26  and  C_52 
REMARK   10  A    between atoms: C_30  and  C_45 
REMARK   11  A    between atoms: C_34  and  C_38 
REMARK   12  A    between atoms: C_38  and  C_39 
REMARK   13  A    between atoms: C_45  and  C_46 
REMARK   14  A    between atoms: C_52  and  C_53 
REMARK   15  A    between atoms: C_53  and  C_54 
REMARK   16  A    between atoms: C_54  and  N_55 
REMARK       I    between atoms: N_55  and  C_56 
REMARK       I    between atoms: C_56  and  N_59 
REMARK   17  A    between atoms: C_60  and  C_61 
REMARK   18  A    between atoms: C_70  and  O_72 
REMARK       I    between atoms: N_73  and  C_74 
ROOT
HETATM    1  C   UNK N   1      34.610  12.398   8.370  0.00  0.00     0.185 C 
HETATM    2  C   UNK N   1      34.348  11.561   7.122  0.00  0.00     0.137 C 
HETATM    3  C   UNK N   1      33.116  10.706   7.247  0.00  0.00     0.220 C 
HETATM    4  O   UNK N   1      32.289  10.742   6.352  0.00  0.00    -0.274 OA
HETATM    5  N   UNK N   1      32.901   9.891   8.314  0.00  0.00    -0.361 N 
HETATM    6  C   UNK N   1      33.792   9.779   9.456  0.00  0.00     0.122 C 
HETATM    7  C   UNK N   1      35.183   9.269   9.066  0.00  0.00     0.020 C 
HETATM    8  C   UNK N   1      35.108   8.101   8.086  0.00  0.00     0.004 C 
HETATM    9  C   UNK N   1      34.841   6.754   8.748  0.00  0.00     0.036 C 
HETATM   10  C   UNK N   1      33.667   6.807   9.722  0.00  0.00     0.182 C 
HETATM   11  N   UNK N   1      34.150   6.734  11.088  0.00  0.00    -0.345 N 
HETATM   12  C   UNK N   1      34.807   5.669  11.612  0.00  0.00     0.241 C 
HETATM   13  O   UNK N   1      34.924   4.629  10.980  0.00  0.00    -0.271 OA
HETATM   14  C   UNK N   1      35.532   5.829  12.907  0.00  0.00     0.181 C 
HETATM   15  N   UNK N   1      36.945   5.729  12.601  0.00  0.00    -0.346 N 
HETATM   16  C   UNK N   1      37.824   6.741  12.814  0.00  0.00     0.241 C 
HETATM   17  O   UNK N   1      38.956   6.643  12.371  0.00  0.00    -0.271 OA
HETATM   18  C   UNK N   1      37.473   7.970  13.627  0.00  0.00     0.176 C 
HETATM   19  N   UNK N   1      36.137   8.441  13.335  0.00  0.00    -0.346 N 
HETATM   20  C   UNK N   1      35.824   9.731  13.071  0.00  0.00     0.241 C 
HETATM   21  O   UNK N   1      34.664  10.025  12.833  0.00  0.00    -0.271 OA
HETATM   22  C   UNK N   1      36.848  10.822  13.104  0.00  0.00     0.180 C 
HETATM   23  N   UNK N   1      37.810  10.680  12.035  0.00  0.00    -0.346 N 
HETATM   24  C   UNK N   1      37.749  11.415  10.890  0.00  0.00     0.241 C 
HETATM   25  O   UNK N   1      38.665  11.322  10.087  0.00  0.00    -0.271 OA
HETATM   26  C   UNK N   1      36.553  12.302  10.558  0.00  0.00     0.182 C 
HETATM   27  N   UNK N   1      36.789  13.076   9.354  0.00  0.00    -0.346 N 
HETATM   28  C   UNK N   1      35.907  13.152   8.331  0.00  0.00     0.241 C 
HETATM   29  O   UNK N   1      36.189  13.823   7.351  0.00  0.00    -0.271 OA
HETATM   30  H   UNK N   1      32.086   9.339   8.314  0.00  0.00     0.162 HD
HETATM   31  H   UNK N   1      33.990   7.510  11.674  0.00  0.00     0.163 HD
HETATM   32  H   UNK N   1      37.283   4.886  12.221  0.00  0.00     0.163 HD
HETATM   33  H   UNK N   1      35.408   7.780  13.328  0.00  0.00     0.163 HD
HETATM   34  H   UNK N   1      38.537  10.027  12.138  0.00  0.00     0.163 HD
HETATM   35  H   UNK N   1      37.636  13.573   9.277  0.00  0.00     0.163 HD
ENDROOT
BRANCH   1  36
HETATM   36  N   UNK N   1      33.453  13.123   8.863  0.00  0.00    -0.346 N 
HETATM   37  C   UNK N   1      32.713  14.045   8.199  0.00  0.00     0.241 C 
HETATM   38  O   UNK N   1      31.711  14.492   8.737  0.00  0.00    -0.271 OA
HETATM   39  H   UNK N   1      33.173  12.922   9.786  0.00  0.00     0.163 HD
BRANCH  37  40
HETATM   40  C   UNK N   1      33.097  14.556   6.837  0.00  0.00     0.176 C 
BRANCH  40  41
HETATM   41  C   UNK N   1      32.879  16.073   6.788  0.00  0.00     0.035 C 
BRANCH  41  42
HETATM   42  C   UNK N   1      34.182  16.850   6.918  0.00  0.00     0.002 C 
BRANCH  42  43
HETATM   43  C   UNK N   1      33.982  18.118   7.730  0.00  0.00    -0.004 C 
HETATM   44  C   UNK N   1      32.577  18.161   8.298  0.00  0.00     0.005 C 
ENDBRANCH  42  43
ENDBRANCH  41  42
ENDBRANCH  40  41
BRANCH  40  45
HETATM   45  N   UNK N   1      32.272  13.910   5.837  0.00  0.00    -0.348 N 
HETATM   46  C   UNK N   1      32.695  13.635   4.577  0.00  0.00     0.214 C 
HETATM   47  O   UNK N   1      31.928  13.102   3.793  0.00  0.00    -0.274 OA
HETATM   48  C   UNK N   1      34.081  13.971   4.125  0.00  0.00     0.117 C 
HETATM   49  H   UNK N   1      31.354  13.655   6.086  0.00  0.00     0.163 HD
ENDBRANCH  40  45
ENDBRANCH  37  40
ENDBRANCH   1  36
BRANCH  26  50
HETATM   50  C   UNK N   1      36.089  13.218  11.696  0.00  0.00     0.093 C 
BRANCH  50  51
HETATM   51  C   UNK N   1      35.698  14.591  11.274  0.00  0.00     0.028 A 
HETATM   52  C   UNK N   1      34.423  15.083  11.149  0.00  0.00     0.114 A 
HETATM   53  N   UNK N   1      34.521  16.363  10.740  0.00  0.00    -0.360 N 
HETATM   54  C   UNK N   1      35.843  16.616  10.624  0.00  0.00     0.180 A 
ATOM     55  HN  UNK N   1      33.754  17.009  10.557  1.00  0.00     0.166 HD
HETATM   56  N   UNK N   1      36.586  15.540  10.946  0.00  0.00    -0.354 N 
HETATM   57  H   UNK N   1      37.568  15.467  10.940  0.00  0.00     0.166 HD
ENDBRANCH  50  51
ENDBRANCH  26  50
BRANCH  22  58
HETATM   58  C   UNK N   1      37.482  10.911  14.503  0.00  0.00     0.073 C 
BRANCH  58  59
HETATM   59  C   UNK N   1      36.626  11.471  15.595  0.00  0.00    -0.056 A 
HETATM   60  C   UNK N   1      36.230  12.816  15.565  0.00  0.00     0.007 A 
HETATM   61  C   UNK N   1      35.483  13.350  16.618  0.00  0.00     0.001 A 
HETATM   62  C   UNK N   1      35.138  12.546  17.709  0.00  0.00     0.000 A 
HETATM   63  C   UNK N   1      35.543  11.208  17.745  0.00  0.00     0.001 A 
HETATM   64  C   UNK N   1      36.291  10.673  16.692  0.00  0.00     0.007 A 
ENDBRANCH  58  59
ENDBRANCH  22  58
BRANCH  10  65
HETATM   65  C   UNK N   1      32.587   5.829   9.376  0.00  0.00     0.163 C 
HETATM   66  O   UNK N   1      31.429   6.099   9.647  0.00  0.00    -0.648 OA
BRANCH  65  67
HETATM   67  O   UNK N   1      32.868   4.686   8.722  0.00  0.00    -0.775 OA
HETATM   68  H   UNK N   1      33.681   4.223   8.771  0.00  0.00     0.167 HD
ENDBRANCH  65  67
ENDBRANCH  10  65
BRANCH  18  69
HETATM   69  C   UNK N   1      37.620   7.687  15.116  0.00  0.00     0.036 C 
BRANCH  69  70
HETATM   70  C   UNK N   1      39.063   7.315  15.420  0.00  0.00     0.023 C 
BRANCH  70  71
HETATM   71  C   UNK N   1      39.982   8.502  15.246  0.00  0.00     0.138 C 
BRANCH  71  72
HETATM   72  N   UNK N   1      41.043   8.142  14.339  0.00  0.00    -0.227 N 
HETATM   73  C   UNK N   1      42.409   8.225  14.713  0.00  0.00     0.665 C 
HETATM   74  N   UNK N   1      42.744   8.598  15.894  0.00  0.00    -0.235 N 
HETATM   75  N   UNK N   1      43.409   7.848  13.790  0.00  0.00    -0.235 N 
HETATM   76  H   UNK N   1      43.663   8.797  16.184  0.00  0.00     0.174 HD
ATOM     77  HN  UNK N   1      42.000   8.693  16.586  1.00  0.00     0.174 HD
HETATM   78  H   UNK N   1      43.247   7.120  13.147  0.00  0.00     0.174 HD
HETATM   79  H   UNK N   1      44.275   8.316  13.790  0.00  0.00     0.174 HD
HETATM   80  H   UNK N   1      40.812   7.829  13.435  0.00  0.00     0.177 HD
ENDBRANCH  71  72
ENDBRANCH  70  71
ENDBRANCH  69  70
ENDBRANCH  18  69
BRANCH  14  81
HETATM   81  C   UNK N   1      35.029   4.836  13.956  0.00  0.00     0.075 C 
BRANCH  81  82
HETATM   82  C   UNK N   1      36.022   4.519  15.023  0.00  0.00    -0.028 A 
HETATM   83  C   UNK N   1      37.148   3.705  14.944  0.00  0.00     0.096 A 
HETATM   84  N   UNK N   1      37.785   3.702  16.146  0.00  0.00    -0.365 N 
HETATM   85  C   UNK N   1      37.063   4.507  16.951  0.00  0.00     0.042 A 
HETATM   86  H   UNK N   1      38.606   3.212  16.380  0.00  0.00     0.165 HD
HETATM   87  C   UNK N   1      35.986   5.016  16.292  0.00  0.00    -0.002 A 
HETATM   88  C   UNK N   1      37.324   4.826  18.280  0.00  0.00     0.030 A 
HETATM   89  C   UNK N   1      35.081   5.882  16.899  0.00  0.00     0.014 A 
HETATM   90  C   UNK N   1      35.311   6.225  18.241  0.00  0.00     0.001 A 
HETATM   91  C   UNK N   1      36.429   5.700  18.930  0.00  0.00     0.002 A 
ENDBRANCH  81  82
ENDBRANCH  14  81
TORSDOF 18
ENDMDL
MODEL 8
REMARK VINA RESULT:      -7.3      8.131     13.276
REMARK  18 active torsions:
REMARK  status: ('A' for Active; 'I' for Inactive)
REMARK    1  A    between atoms: C_2  and  C_3 
REMARK    2  A    between atoms: C_3  and  C_4 
REMARK    3  A    between atoms: C_4  and  C_5 
REMARK    4  A    between atoms: C_5  and  C_6 
REMARK    5  A    between atoms: C_5  and  N_73 
REMARK       I    between atoms: C_6  and  N_8 
REMARK    6  A    between atoms: C_9  and  N_8 
REMARK    7  A    between atoms: C_18  and  C_70 
REMARK    8  A    between atoms: C_22  and  C_60 
REMARK    9  A    between atoms: C_26  and  C_52 
REMARK   10  A    between atoms: C_30  and  C_45 
REMARK   11  A    between atoms: C_34  and  C_38 
REMARK   12  A    between atoms: C_38  and  C_39 
REMARK   13  A    between atoms: C_45  and  C_46 
REMARK   14  A    between atoms: C_52  and  C_53 
REMARK   15  A    between atoms: C_53  and  C_54 
REMARK   16  A    between atoms: C_54  and  N_55 
REMARK       I    between atoms: N_55  and  C_56 
REMARK       I    between atoms: C_56  and  N_59 
REMARK   17  A    between atoms: C_60  and  C_61 
REMARK   18  A    between atoms: C_70  and  O_72 
REMARK       I    between atoms: N_73  and  C_74 
ROOT
HETATM    1  C   UNK N   1      34.273  12.905   7.178  0.00  0.00     0.185 C 
HETATM    2  C   UNK N   1      34.369  12.571   5.692  0.00  0.00     0.137 C 
HETATM    3  C   UNK N   1      33.103  11.961   5.154  0.00  0.00     0.220 C 
HETATM    4  O   UNK N   1      32.616  12.431   4.139  0.00  0.00    -0.274 OA
HETATM    5  N   UNK N   1      32.495  10.902   5.751  0.00  0.00    -0.361 N 
HETATM    6  C   UNK N   1      32.956  10.272   6.975  0.00  0.00     0.122 C 
HETATM    7  C   UNK N   1      34.356   9.668   6.832  0.00  0.00     0.020 C 
HETATM    8  C   UNK N   1      34.518   8.908   5.518  0.00  0.00     0.004 C 
HETATM    9  C   UNK N   1      33.952   7.492   5.550  0.00  0.00     0.036 C 
HETATM   10  C   UNK N   1      32.533   7.445   6.109  0.00  0.00     0.182 C 
HETATM   11  N   UNK N   1      32.539   6.855   7.434  0.00  0.00    -0.345 N 
HETATM   12  C   UNK N   1      32.911   5.577   7.701  0.00  0.00     0.241 C 
HETATM   13  O   UNK N   1      33.150   4.790   6.797  0.00  0.00    -0.271 OA
HETATM   14  C   UNK N   1      33.186   5.181   9.113  0.00  0.00     0.181 C 
HETATM   15  N   UNK N   1      34.610   4.928   9.198  0.00  0.00    -0.346 N 
HETATM   16  C   UNK N   1      35.445   5.642   9.997  0.00  0.00     0.241 C 
HETATM   17  O   UNK N   1      36.649   5.485   9.882  0.00  0.00    -0.271 OA
HETATM   18  C   UNK N   1      34.940   6.589  11.064  0.00  0.00     0.176 C 
HETATM   19  N   UNK N   1      33.811   7.364  10.603  0.00  0.00    -0.346 N 
HETATM   20  C   UNK N   1      33.696   8.706  10.743  0.00  0.00     0.241 C 
HETATM   21  O   UNK N   1      32.701   9.266  10.314  0.00  0.00    -0.271 OA
HETATM   22  C   UNK N   1      34.732   9.523  11.451  0.00  0.00     0.180 C 
HETATM   23  N   UNK N   1      35.974   9.556  10.715  0.00  0.00    -0.346 N 
HETATM   24  C   UNK N   1      36.343  10.616   9.943  0.00  0.00     0.241 C 
HETATM   25  O   UNK N   1      37.460  10.618   9.448  0.00  0.00    -0.271 OA
HETATM   26  C   UNK N   1      35.388  11.764   9.632  0.00  0.00     0.182 C 
HETATM   27  N   UNK N   1      36.058  12.825   8.904  0.00  0.00    -0.346 N 
HETATM   28  C   UNK N   1      35.564  13.383   7.775  0.00  0.00     0.241 C 
HETATM   29  O   UNK N   1      36.197  14.268   7.222  0.00  0.00    -0.271 OA
HETATM   30  H   UNK N   1      31.686  10.538   5.326  0.00  0.00     0.162 HD
HETATM   31  H   UNK N   1      32.256   7.418   8.190  0.00  0.00     0.163 HD
HETATM   32  H   UNK N   1      34.990   4.203   8.650  0.00  0.00     0.163 HD
HETATM   33  H   UNK N   1      33.076   6.884  10.156  0.00  0.00     0.163 HD
HETATM   34  H   UNK N   1      36.579   8.783  10.774  0.00  0.00     0.163 HD
HETATM   35  H   UNK N   1      36.918  13.157   9.251  0.00  0.00     0.163 HD
ENDROOT
BRANCH   1  36
HETATM   36  N   UNK N   1      33.075  13.633   7.555  0.00  0.00    -0.346 N 
HETATM   37  C   UNK N   1      32.556  14.734   6.956  0.00  0.00     0.241 C 
HETATM   38  O   UNK N   1      31.484  15.166   7.352  0.00  0.00    -0.271 OA
HETATM   39  H   UNK N   1      32.583  13.288   8.336  0.00  0.00     0.163 HD
BRANCH  37  40
HETATM   40  C   UNK N   1      33.265  15.454   5.843  0.00  0.00     0.176 C 
BRANCH  40  41
HETATM   41  C   UNK N   1      34.189  16.521   6.442  0.00  0.00     0.035 C 
BRANCH  41  42
HETATM   42  C   UNK N   1      33.436  17.783   6.842  0.00  0.00     0.002 C 
BRANCH  42  43
HETATM   43  C   UNK N   1      33.963  18.339   8.153  0.00  0.00    -0.004 C 
HETATM   44  C   UNK N   1      34.529  17.222   9.007  0.00  0.00     0.005 C 
ENDBRANCH  42  43
ENDBRANCH  41  42
ENDBRANCH  40  41
BRANCH  40  45
HETATM   45  N   UNK N   1      32.284  16.082   4.982  0.00  0.00    -0.348 N 
HETATM   46  C   UNK N   1      32.405  16.154   3.632  0.00  0.00     0.214 C 
HETATM   47  O   UNK N   1      31.538  16.716   2.984  0.00  0.00    -0.274 OA
HETATM   48  C   UNK N   1      33.579  15.562   2.918  0.00  0.00     0.117 C 
HETATM   49  H   UNK N   1      31.485  16.477   5.400  0.00  0.00     0.163 HD
ENDBRANCH  40  45
ENDBRANCH  37  40
ENDBRANCH   1  36
BRANCH  26  50
HETATM   50  C   UNK N   1      34.649  12.339  10.846  0.00  0.00     0.093 C 
BRANCH  50  51
HETATM   51  C   UNK N   1      35.406  13.369  11.610  0.00  0.00     0.028 A 
HETATM   52  C   UNK N   1      36.505  13.163  12.405  0.00  0.00     0.114 A 
HETATM   53  N   UNK N   1      36.871  14.357  12.908  0.00  0.00    -0.360 N 
HETATM   54  C   UNK N   1      35.991  15.254  12.414  0.00  0.00     0.180 A 
ATOM     55  HN  UNK N   1      37.654  14.546  13.534  1.00  0.00     0.166 HD
HETATM   56  N   UNK N   1      35.079  14.668  11.614  0.00  0.00    -0.354 N 
HETATM   57  H   UNK N   1      34.335  15.101  11.136  0.00  0.00     0.166 HD
ENDBRANCH  50  51
ENDBRANCH  26  50
BRANCH  22  58
HETATM   58  C   UNK N   1      34.882   9.044  12.905  0.00  0.00     0.073 C 
BRANCH  58  59
HETATM   59  C   UNK N   1      35.069  10.103  13.946  0.00  0.00    -0.056 A 
HETATM   60  C   UNK N   1      36.276  10.195  14.653  0.00  0.00     0.007 A 
HETATM   61  C   UNK N   1      36.424  11.145  15.667  0.00  0.00     0.001 A 
HETATM   62  C   UNK N   1      35.363  11.999  15.984  0.00  0.00     0.000 A 
HETATM   63  C   UNK N   1      34.155  11.900  15.287  0.00  0.00     0.001 A 
HETATM   64  C   UNK N   1      34.006  10.949  14.273  0.00  0.00     0.007 A 
ENDBRANCH  58  59
ENDBRANCH  22  58
BRANCH  10  65
HETATM   65  C   UNK N   1      31.554   6.843   5.149  0.00  0.00     0.163 C 
HETATM   66  O   UNK N   1      30.374   6.793   5.453  0.00  0.00    -0.648 OA
BRANCH  65  67
HETATM   67  O   UNK N   1      31.948   6.409   3.937  0.00  0.00    -0.775 OA
HETATM   68  H   UNK N   1      32.473   5.648   3.781  0.00  0.00     0.167 HD
ENDBRANCH  65  67
ENDBRANCH  10  65
BRANCH  18  69
HETATM   69  C   UNK N   1      34.575   5.825  12.330  0.00  0.00     0.036 C 
BRANCH  69  70
HETATM   70  C   UNK N   1      35.780   5.028  12.805  0.00  0.00     0.023 C 
BRANCH  70  71
HETATM   71  C   UNK N   1      36.821   5.929  13.429  0.00  0.00     0.138 C 
BRANCH  71  72
HETATM   72  N   UNK N   1      38.060   5.780  12.708  0.00  0.00    -0.227 N 
HETATM   73  C   UNK N   1      38.825   6.901  12.293  0.00  0.00     0.665 C 
HETATM   74  N   UNK N   1      38.447   8.094  12.578  0.00  0.00    -0.235 N 
HETATM   75  N   UNK N   1      40.038   6.700  11.600  0.00  0.00    -0.235 N 
HETATM   76  H   UNK N   1      38.854   8.915  12.220  0.00  0.00     0.174 HD
ATOM     77  HN  UNK N   1      37.665   8.198  13.225  1.00  0.00     0.174 HD
HETATM   78  H   UNK N   1      40.607   5.921  11.802  0.00  0.00     0.174 HD
HETATM   79  H   UNK N   1      40.318   7.343  10.909  0.00  0.00     0.174 HD
HETATM   80  H   UNK N   1      38.385   4.875  12.499  0.00  0.00     0.177 HD
ENDBRANCH  71  72
ENDBRANCH  70  71
ENDBRANCH  69  70
ENDBRANCH  18  69
BRANCH  14  81
HETATM   81  C   UNK N   1      32.299   4.015   9.551  0.00  0.00     0.075 C 
BRANCH  81  82
HETATM   82  C   UNK N   1      31.077   4.424  10.303  0.00  0.00    -0.028 A 
HETATM   83  C   UNK N   1      29.893   4.961   9.805  0.00  0.00     0.096 A 
HETATM   84  N   UNK N   1      29.031   5.177  10.834  0.00  0.00    -0.365 N 
HETATM   85  C   UNK N   1      29.674   4.774  11.949  0.00  0.00     0.042 A 
HETATM   86  H   UNK N   1      28.123   5.551  10.777  0.00  0.00     0.165 HD
HETATM   87  C   UNK N   1      30.919   4.311  11.652  0.00  0.00    -0.002 A 
HETATM   88  C   UNK N   1      29.193   4.791  13.254  0.00  0.00     0.030 A 
HETATM   89  C   UNK N   1      31.788   3.830  12.627  0.00  0.00     0.014 A 
HETATM   90  C   UNK N   1      31.338   3.834  13.957  0.00  0.00     0.001 A 
HETATM   91  C   UNK N   1      30.044   4.311  14.271  0.00  0.00     0.002 A 
ENDBRANCH  81  82
ENDBRANCH  14  81
TORSDOF 18
ENDMDL
MODEL 9
REMARK VINA RESULT:      -7.2      5.094     13.968
REMARK  18 active torsions:
REMARK  status: ('A' for Active; 'I' for Inactive)
REMARK    1  A    between atoms: C_2  and  C_3 
REMARK    2  A    between atoms: C_3  and  C_4 
REMARK    3  A    between atoms: C_4  and  C_5 
REMARK    4  A    between atoms: C_5  and  C_6 
REMARK    5  A    between atoms: C_5  and  N_73 
REMARK       I    between atoms: C_6  and  N_8 
REMARK    6  A    between atoms: C_9  and  N_8 
REMARK    7  A    between atoms: C_18  and  C_70 
REMARK    8  A    between atoms: C_22  and  C_60 
REMARK    9  A    between atoms: C_26  and  C_52 
REMARK   10  A    between atoms: C_30  and  C_45 
REMARK   11  A    between atoms: C_34  and  C_38 
REMARK   12  A    between atoms: C_38  and  C_39 
REMARK   13  A    between atoms: C_45  and  C_46 
REMARK   14  A    between atoms: C_52  and  C_53 
REMARK   15  A    between atoms: C_53  and  C_54 
REMARK   16  A    between atoms: C_54  and  N_55 
REMARK       I    between atoms: N_55  and  C_56 
REMARK       I    between atoms: C_56  and  N_59 
REMARK   17  A    between atoms: C_60  and  C_61 
REMARK   18  A    between atoms: C_70  and  O_72 
REMARK       I    between atoms: N_73  and  C_74 
ROOT
HETATM    1  C   UNK N   1      31.288  15.316   5.928  0.00  0.00     0.185 C 
HETATM    2  C   UNK N   1      30.778  15.732   7.305  0.00  0.00     0.137 C 
HETATM    3  C   UNK N   1      31.654  16.766   7.959  0.00  0.00     0.220 C 
HETATM    4  O   UNK N   1      31.131  17.771   8.409  0.00  0.00    -0.274 OA
HETATM    5  N   UNK N   1      33.000  16.611   8.074  0.00  0.00    -0.361 N 
HETATM    6  C   UNK N   1      33.744  15.477   7.556  0.00  0.00     0.122 C 
HETATM    7  C   UNK N   1      33.316  14.153   8.195  0.00  0.00     0.020 C 
HETATM    8  C   UNK N   1      33.143  14.279   9.707  0.00  0.00     0.004 C 
HETATM    9  C   UNK N   1      34.449  14.189  10.488  0.00  0.00     0.036 C 
HETATM   10  C   UNK N   1      35.530  15.105   9.921  0.00  0.00     0.182 C 
HETATM   11  N   UNK N   1      36.547  14.319   9.249  0.00  0.00    -0.345 N 
HETATM   12  C   UNK N   1      37.346  13.412   9.866  0.00  0.00     0.241 C 
HETATM   13  O   UNK N   1      37.338  13.293  11.083  0.00  0.00    -0.271 OA
HETATM   14  C   UNK N   1      38.119  12.442   9.037  0.00  0.00     0.181 C 
HETATM   15  N   UNK N   1      37.541  11.138   9.285  0.00  0.00    -0.346 N 
HETATM   16  C   UNK N   1      36.953  10.389   8.316  0.00  0.00     0.241 C 
HETATM   17  O   UNK N   1      36.339   9.385   8.637  0.00  0.00    -0.271 OA
HETATM   18  C   UNK N   1      37.074  10.720   6.844  0.00  0.00     0.176 C 
HETATM   19  N   UNK N   1      36.954  12.141   6.603  0.00  0.00    -0.346 N 
HETATM   20  C   UNK N   1      36.157  12.690   5.656  0.00  0.00     0.241 C 
HETATM   21  O   UNK N   1      36.126  13.904   5.536  0.00  0.00    -0.271 OA
HETATM   22  C   UNK N   1      35.344  11.854   4.717  0.00  0.00     0.180 C 
HETATM   23  N   UNK N   1      34.289  11.152   5.411  0.00  0.00    -0.346 N 
HETATM   24  C   UNK N   1      32.996  11.577   5.405  0.00  0.00     0.241 C 
HETATM   25  O   UNK N   1      32.144  10.865   5.915  0.00  0.00    -0.271 OA
HETATM   26  C   UNK N   1      32.591  12.934   4.836  0.00  0.00     0.182 C 
HETATM   27  N   UNK N   1      31.149  13.093   4.828  0.00  0.00    -0.346 N 
HETATM   28  C   UNK N   1      30.517  14.186   5.313  0.00  0.00     0.241 C 
HETATM   29  O   UNK N   1      29.297  14.235   5.273  0.00  0.00    -0.271 OA
HETATM   30  H   UNK N   1      33.505  17.316   8.540  0.00  0.00     0.162 HD
HETATM   31  H   UNK N   1      36.665  14.451   8.281  0.00  0.00     0.163 HD
HETATM   32  H   UNK N   1      37.576  10.776  10.201  0.00  0.00     0.163 HD
HETATM   33  H   UNK N   1      37.487  12.749   7.164  0.00  0.00     0.163 HD
HETATM   34  H   UNK N   1      34.514  10.333   5.907  0.00  0.00     0.163 HD
HETATM   35  H   UNK N   1      30.601  12.367   4.450  0.00  0.00     0.163 HD
ENDROOT
BRANCH   1  36
HETATM   36  N   UNK N   1      31.627  16.423   5.052  0.00  0.00    -0.346 N 
HETATM   37  C   UNK N   1      30.791  17.373   4.562  0.00  0.00     0.241 C 
HETATM   38  O   UNK N   1      31.265  18.290   3.909  0.00  0.00    -0.271 OA
HETATM   39  H   UNK N   1      32.572  16.493   4.783  0.00  0.00     0.163 HD
BRANCH  37  40
HETATM   40  C   UNK N   1      29.303  17.322   4.773  0.00  0.00     0.176 C 
BRANCH  40  41
HETATM   41  C   UNK N   1      28.612  17.077   3.426  0.00  0.00     0.035 C 
BRANCH  41  42
HETATM   42  C   UNK N   1      27.163  16.637   3.589  0.00  0.00     0.002 C 
BRANCH  42  43
HETATM   43  C   UNK N   1      26.919  15.304   2.904  0.00  0.00    -0.004 C 
HETATM   44  C   UNK N   1      28.096  14.945   2.019  0.00  0.00     0.005 C 
ENDBRANCH  42  43
ENDBRANCH  41  42
ENDBRANCH  40  41
BRANCH  40  45
HETATM   45  N   UNK N   1      28.858  18.582   5.331  0.00  0.00    -0.348 N 
HETATM   46  C   UNK N   1      28.162  18.686   6.492  0.00  0.00     0.214 C 
HETATM   47  O   UNK N   1      27.813  19.788   6.881  0.00  0.00    -0.274 OA
HETATM   48  C   UNK N   1      27.812  17.481   7.306  0.00  0.00     0.117 C 
HETATM   49  H   UNK N   1      29.073  19.409   4.841  0.00  0.00     0.163 HD
ENDBRANCH  40  45
ENDBRANCH  37  40
ENDBRANCH   1  36
BRANCH  26  50
HETATM   50  C   UNK N   1      33.167  13.254   3.452  0.00  0.00     0.093 C 
BRANCH  50  51
HETATM   51  C   UNK N   1      32.607  12.441   2.337  0.00  0.00     0.028 A 
HETATM   52  C   UNK N   1      33.175  11.334   1.758  0.00  0.00     0.114 A 
HETATM   53  N   UNK N   1      32.341  10.911   0.789  0.00  0.00    -0.360 N 
HETATM   54  C   UNK N   1      31.295  11.765   0.800  0.00  0.00     0.180 A 
ATOM     55  HN  UNK N   1      32.472  10.108   0.173  1.00  0.00     0.166 HD
HETATM   56  N   UNK N   1      31.438  12.715   1.743  0.00  0.00    -0.354 N 
HETATM   57  H   UNK N   1      30.818  13.451   1.950  0.00  0.00     0.166 HD
ENDBRANCH  50  51
ENDBRANCH  26  50
BRANCH  22  58
HETATM   58  C   UNK N   1      36.264  10.938   3.892  0.00  0.00     0.073 C 
BRANCH  58  59
HETATM   59  C   UNK N   1      37.207  11.609   2.944  0.00  0.00    -0.056 A 
HETATM   60  C   UNK N   1      38.531  11.163   2.827  0.00  0.00     0.007 A 
HETATM   61  C   UNK N   1      39.425  11.831   1.986  0.00  0.00     0.001 A 
HETATM   62  C   UNK N   1      39.002  12.954   1.268  0.00  0.00     0.000 A 
HETATM   63  C   UNK N   1      37.684  13.407   1.393  0.00  0.00     0.001 A 
HETATM   64  C   UNK N   1      36.790  12.739   2.234  0.00  0.00     0.007 A 
ENDBRANCH  58  59
ENDBRANCH  22  58
BRANCH  10  65
HETATM   65  C   UNK N   1      36.046  16.083  10.932  0.00  0.00     0.163 C 
HETATM   66  O   UNK N   1      36.063  17.271  10.658  0.00  0.00    -0.648 OA
BRANCH  65  67
HETATM   67  O   UNK N   1      36.437  15.676  12.154  0.00  0.00    -0.775 OA
HETATM   68  H   UNK N   1      37.146  15.087  12.325  0.00  0.00     0.167 HD
ENDBRANCH  65  67
ENDBRANCH  10  65
BRANCH  18  69
HETATM   69  C   UNK N   1      38.390  10.198   6.284  0.00  0.00     0.036 C 
BRANCH  69  70
HETATM   70  C   UNK N   1      38.260   8.713   5.986  0.00  0.00     0.023 C 
BRANCH  70  71
HETATM   71  C   UNK N   1      39.312   7.913   6.720  0.00  0.00     0.138 C 
BRANCH  71  72
HETATM   72  N   UNK N   1      38.682   6.778   7.347  0.00  0.00    -0.227 N 
HETATM   73  C   UNK N   1      38.507   6.700   8.753  0.00  0.00     0.665 C 
HETATM   74  N   UNK N   1      38.880   7.664   9.514  0.00  0.00    -0.235 N 
HETATM   75  N   UNK N   1      37.872   5.571   9.315  0.00  0.00    -0.235 N 
HETATM   76  H   UNK N   1      38.905   7.629  10.497  0.00  0.00     0.174 HD
ATOM     77  HN  UNK N   1      39.172   8.532   9.065  1.00  0.00     0.174 HD
HETATM   78  H   UNK N   1      37.152   5.108   8.829  0.00  0.00     0.174 HD
HETATM   79  H   UNK N   1      38.151   5.246  10.201  0.00  0.00     0.174 HD
HETATM   80  H   UNK N   1      38.364   6.036   6.783  0.00  0.00     0.177 HD
ENDBRANCH  71  72
ENDBRANCH  70  71
ENDBRANCH  69  70
ENDBRANCH  18  69
BRANCH  14  81
HETATM   81  C   UNK N   1      39.621  12.543   9.312  0.00  0.00     0.075 C 
BRANCH  81  82
HETATM   82  C   UNK N   1      40.478  12.323   8.112  0.00  0.00    -0.028 A 
HETATM   83  C   UNK N   1      41.456  11.352   7.913  0.00  0.00     0.096 A 
HETATM   84  N   UNK N   1      41.988  11.499   6.670  0.00  0.00    -0.365 N 
HETATM   85  C   UNK N   1      41.344  12.543   6.111  0.00  0.00     0.042 A 
HETATM   86  H   UNK N   1      42.699  10.955   6.262  0.00  0.00     0.165 HD
HETATM   87  C   UNK N   1      40.421  13.061   6.967  0.00  0.00    -0.002 A 
HETATM   88  C   UNK N   1      41.536  13.071   4.838  0.00  0.00     0.030 A 
HETATM   89  C   UNK N   1      39.615  14.145   6.630  0.00  0.00     0.014 A 
HETATM   90  C   UNK N   1      39.782  14.705   5.353  0.00  0.00     0.001 A 
HETATM   91  C   UNK N   1      40.738  14.171   4.459  0.00  0.00     0.002 A 
ENDBRANCH  81  82
ENDBRANCH  14  81
TORSDOF 18
ENDMDL
