REMARK  4 active torsions:
REMARK  status: ('A' for Active; 'I' for Inactive)
REMARK    1  A    between atoms: C_15  and  C_9 
REMARK    2  A    between atoms: C_16  and  C_11 
REMARK    3  A    between atoms: O_22  and  C_15 
REMARK    4  A    between atoms: N_18  and  C_16 
ROOT
HETATM    1  C   UNK N   1       3.837   3.528  -0.960  0.00  0.00     0.035 C 
HETATM    2  C   UNK N   1       0.338  -1.203  -0.154  0.00  0.00     0.061 A 
HETATM    3  C   UNK N   1       3.984   0.790   0.043  0.00  0.00     0.114 A 
HETATM    4  C   UNK N   1       1.585   3.717  -0.016  0.00  0.00     0.201 C 
HETATM    5  C   UNK N   1       2.919   2.975   0.121  0.00  0.00     0.110 C 
HETATM    6  C   UNK N   1       1.569  -0.548  -0.101  0.00  0.00     0.048 A 
HETATM    7  C   UNK N   1       3.991  -0.607  -0.015  0.00  0.00     0.104 A 
HETATM    8  C   UNK N   1      -0.852  -0.488  -0.112  0.00  0.00     0.129 A 
HETATM    9  C   UNK N   1      -0.842   0.917  -0.005  0.00  0.00     0.044 A 
HETATM   10  C   UNK N   1       1.612   0.863  -0.034  0.00  0.00     0.083 A 
HETATM   11  C   UNK N   1       2.762  -1.284  -0.091  0.00  0.00     0.202 A 
HETATM   12  C   UNK N   1       0.410   1.595   0.016  0.00  0.00     0.108 A 
HETATM   13  F   UNK N   1      -2.019  -1.177  -0.162  0.00  0.00    -0.205 F 
HETATM   14  N   UNK N   1       2.821   1.508   0.024  0.00  0.00    -0.346 N 
HETATM   15  O   UNK N   1       2.727  -2.503  -0.136  0.00  0.00    -0.286 OA
HETATM   16  O   UNK N   1       0.449   2.942   0.096  0.00  0.00    -0.346 OA
ENDROOT
BRANCH   9  17
HETATM   17  C   UNK N   1      -2.179   1.647   0.096  0.00  0.00     0.057 A 
HETATM   18  C   UNK N   1      -2.238   3.151   0.266  0.00  0.00     0.038 A 
HETATM   19  C   UNK N   1      -2.585   2.517  -1.072  0.00  0.00     0.038 A 
BRANCH  17  20
HETATM   20  N   UNK N   1      -3.286   0.981   0.764  0.00  0.00    -0.418 N 
HETATM   21  H   UNK N   1      -4.079   1.421   1.232  0.00  0.00     0.151 HD
HETATM   22  H   UNK N   1      -3.269  -0.038   0.764  0.00  0.00     0.151 HD
ENDBRANCH  17  20
ENDBRANCH   9  17
BRANCH   7  23
HETATM   23  C   UNK N   1       5.293  -1.326   0.019  0.00  0.00     0.181 C 
HETATM   24  O   UNK N   1       6.339  -0.696   0.058  0.00  0.00    -0.646 OA
BRANCH  23  25
HETATM   25  O   UNK N   1       5.340  -2.673   0.015  0.00  0.00    -0.772 OA
HETATM   26  H   UNK N   1       4.545  -3.169   0.012  0.00  0.00     0.167 HD
ENDBRANCH  23  25
ENDBRANCH   7  23
TORSDOF 4
