MODEL 1
REMARK VINA RESULT:      -7.8      0.000      0.000
REMARK  7 active torsions:
REMARK  status: ('A' for Active; 'I' for Inactive)
REMARK    1  A    between atoms: C_19  and  C_13 
REMARK    2  A    between atoms: N_26  and  C_13 
REMARK    3  A    between atoms: N_26  and  C_15 
REMARK    4  A    between atoms: C_19  and  C_17 
REMARK    5  A    between atoms: C_19  and  C_24 
REMARK    6  A    between atoms: C_20  and  O_33 
REMARK    7  A    between atoms: N_31  and  C_23 
REMARK       I    between atoms: N_32  and  C_24 
ROOT
HETATM    1  C   UNK N   1      33.974  17.058   6.926  0.00  0.00     0.144 C 
HETATM    2  C   UNK N   1      32.307  15.666   8.162  0.00  0.00     0.144 C 
HETATM    3  C   UNK N   1      33.623  16.333   5.652  0.00  0.00     0.145 C 
HETATM    4  C   UNK N   1      31.906  15.035   6.822  0.00  0.00     0.145 C 
HETATM    5  C   UNK N   1      31.303  16.743   5.144  0.00  0.00     0.230 C 
HETATM    6  N   UNK N   1      33.647  16.213   8.059  0.00  0.00    -0.364 N 
HETATM    7  N   UNK N   1      32.237  15.992   5.793  0.00  0.00    -0.348 N 
HETATM    8  O   UNK N   1      31.684  17.625   4.380  0.00  0.00    -0.273 OA
ENDROOT
BRANCH   5   9
HETATM    9  C   UNK N   1      29.801  16.572   5.308  0.00  0.00     0.128 C 
BRANCH   9  10
HETATM   10  C   UNK N   1      29.063  15.648   4.323  0.00  0.00     0.133 C 
BRANCH  10  11
HETATM   11  N   UNK N   1      29.713  15.491   3.031  0.00  0.00    -0.417 N 
HETATM   12  H   UNK N   1      30.704  15.606   2.819  0.00  0.00     0.153 HD
BRANCH  11  13
HETATM   13  C   UNK N   1      28.647  15.135   2.106  0.00  0.00     0.068 C 
HETATM   14  C   UNK N   1      27.310  15.628   2.622  0.00  0.00     0.031 C 
HETATM   15  C   UNK N   1      28.607  13.633   1.925  0.00  0.00     0.031 C 
ENDBRANCH  11  13
ENDBRANCH  10  11
ENDBRANCH   9  10
BRANCH   9  16
HETATM   16  C   UNK N   1      29.117  17.845   5.745  0.00  0.00    -0.043 A 
HETATM   17  C   UNK N   1      28.929  18.124   7.111  0.00  0.00     0.010 A 
HETATM   18  C   UNK N   1      28.122  19.187   7.514  0.00  0.00     0.024 A 
HETATM   19  C   UNK N   1      27.496  19.983   6.555  0.00  0.00     0.034 A 
HETATM   20  C   UNK N   1      27.701  19.735   5.194  0.00  0.00     0.024 A 
HETATM   21 Cl   UNK N   1      26.415  21.262   7.059  0.00  0.00    -0.084 Cl
HETATM   22  C   UNK N   1      28.504  18.665   4.790  0.00  0.00     0.010 A 
ENDBRANCH   9  16
ENDBRANCH   5   9
BRANCH   6  23
HETATM   23  C   UNK N   1      34.589  16.020   9.105  0.00  0.00     0.113 A 
HETATM   24  C   UNK N   1      35.627  15.071   9.025  0.00  0.00     0.015 A 
HETATM   25  C   UNK N   1      35.909  14.058   7.963  0.00  0.00     0.023 A 
HETATM   26  C   UNK N   1      36.509  14.965  10.052  0.00  0.00     0.049 A 
HETATM   27  C   UNK N   1      34.783  13.038   7.894  0.00  0.00     0.015 C 
HETATM   28  C   UNK N   1      37.190  13.367   8.452  0.00  0.00     0.047 A 
HETATM   29  C   UNK N   1      37.510  13.903   9.856  0.00  0.00     0.169 A 
HETATM   30  N   UNK N   1      36.413  15.752  11.156  0.00  0.00    -0.353 N 
HETATM   31  C   UNK N   1      35.409  16.666  11.242  0.00  0.00     0.182 A 
ATOM     32  HN  UNK N   1      37.089  15.659  11.914  1.00  0.00     0.166 HD
HETATM   33  N   UNK N   1      34.505  16.793  10.233  0.00  0.00    -0.338 N 
ATOM     34  HN  UNK N   1      33.750  17.474  10.317  1.00  0.00     0.168 HD
BRANCH  29  35
HETATM   35  O   UNK N   1      38.800  14.429   9.882  0.00  0.00    -0.389 OA
HETATM   36  H   UNK N   1      39.464  14.752   9.254  0.00  0.00     0.210 HD
ENDBRANCH  29  35
ENDBRANCH   6  23
TORSDOF 7
ENDMDL
MODEL 2
REMARK VINA RESULT:      -7.5      3.423      9.360
REMARK  7 active torsions:
REMARK  status: ('A' for Active; 'I' for Inactive)
REMARK    1  A    between atoms: C_19  and  C_13 
REMARK    2  A    between atoms: N_26  and  C_13 
REMARK    3  A    between atoms: N_26  and  C_15 
REMARK    4  A    between atoms: C_19  and  C_17 
REMARK    5  A    between atoms: C_19  and  C_24 
REMARK    6  A    between atoms: C_20  and  O_33 
REMARK    7  A    between atoms: N_31  and  C_23 
REMARK       I    between atoms: N_32  and  C_24 
ROOT
HETATM    1  C   UNK N   1      32.982  17.669   6.929  0.00  0.00     0.144 C 
HETATM    2  C   UNK N   1      32.300  15.278   7.180  0.00  0.00     0.144 C 
HETATM    3  C   UNK N   1      32.849  17.854   8.420  0.00  0.00     0.145 C 
HETATM    4  C   UNK N   1      32.287  15.487   8.700  0.00  0.00     0.145 C 
HETATM    5  C   UNK N   1      34.427  16.404   9.522  0.00  0.00     0.230 C 
HETATM    6  N   UNK N   1      32.147  16.558   6.513  0.00  0.00    -0.364 N 
HETATM    7  N   UNK N   1      33.189  16.579   8.980  0.00  0.00    -0.348 N 
HETATM    8  O   UNK N   1      35.177  17.373   9.602  0.00  0.00    -0.273 OA
ENDROOT
BRANCH   5   9
HETATM    9  C   UNK N   1      34.959  15.073  10.031  0.00  0.00     0.128 C 
BRANCH   9  10
HETATM   10  C   UNK N   1      34.860  14.780  11.539  0.00  0.00     0.133 C 
BRANCH  10  11
HETATM   11  N   UNK N   1      34.542  13.400  11.873  0.00  0.00    -0.417 N 
HETATM   12  H   UNK N   1      33.852  12.799  11.423  0.00  0.00     0.153 HD
BRANCH  11  13
HETATM   13  C   UNK N   1      35.418  13.063  12.985  0.00  0.00     0.068 C 
HETATM   14  C   UNK N   1      36.130  14.301  13.494  0.00  0.00     0.031 C 
HETATM   15  C   UNK N   1      36.433  12.032  12.543  0.00  0.00     0.031 C 
ENDBRANCH  11  13
ENDBRANCH  10  11
ENDBRANCH   9  10
BRANCH   9  16
HETATM   16  C   UNK N   1      36.199  14.626   9.295  0.00  0.00    -0.043 A 
HETATM   17  C   UNK N   1      36.111  14.126   7.982  0.00  0.00     0.010 A 
HETATM   18  C   UNK N   1      37.212  13.523   7.377  0.00  0.00     0.024 A 
HETATM   19  C   UNK N   1      38.414  13.413   8.077  0.00  0.00     0.034 A 
HETATM   20  C   UNK N   1      38.523  13.935   9.370  0.00  0.00     0.024 A 
HETATM   21 Cl   UNK N   1      39.769  12.580   7.352  0.00  0.00    -0.084 Cl
HETATM   22  C   UNK N   1      37.417  14.532   9.980  0.00  0.00     0.010 A 
ENDBRANCH   9  16
ENDBRANCH   5   9
BRANCH   6  23
HETATM   23  C   UNK N   1      31.279  16.693   5.397  0.00  0.00     0.113 A 
HETATM   24  C   UNK N   1      30.060  17.396   5.465  0.00  0.00     0.015 A 
HETATM   25  C   UNK N   1      29.394  18.030   6.642  0.00  0.00     0.023 A 
HETATM   26  C   UNK N   1      29.297  17.509   4.348  0.00  0.00     0.049 A 
HETATM   27  C   UNK N   1      28.999  16.972   7.660  0.00  0.00     0.015 C 
HETATM   28  C   UNK N   1      28.126  18.658   6.046  0.00  0.00     0.047 A 
HETATM   29  C   UNK N   1      28.031  18.227   4.574  0.00  0.00     0.169 A 
HETATM   30  N   UNK N   1      29.681  16.959   3.165  0.00  0.00    -0.353 N 
HETATM   31  C   UNK N   1      30.853  16.273   3.094  0.00  0.00     0.182 A 
ATOM     32  HN  UNK N   1      29.094  17.060   2.337  1.00  0.00     0.166 HD
HETATM   33  N   UNK N   1      31.638  16.135   4.198  0.00  0.00    -0.338 N 
ATOM     34  HN  UNK N   1      32.508  15.607   4.133  1.00  0.00     0.168 HD
BRANCH  29  35
HETATM   35  O   UNK N   1      27.946  19.350   3.753  0.00  0.00    -0.389 OA
HETATM   36  H   UNK N   1      28.199  20.286   3.777  0.00  0.00     0.210 HD
ENDBRANCH  29  35
ENDBRANCH   6  23
TORSDOF 7
ENDMDL
MODEL 3
REMARK VINA RESULT:      -7.3      8.862     11.294
REMARK  7 active torsions:
REMARK  status: ('A' for Active; 'I' for Inactive)
REMARK    1  A    between atoms: C_19  and  C_13 
REMARK    2  A    between atoms: N_26  and  C_13 
REMARK    3  A    between atoms: N_26  and  C_15 
REMARK    4  A    between atoms: C_19  and  C_17 
REMARK    5  A    between atoms: C_19  and  C_24 
REMARK    6  A    between atoms: C_20  and  O_33 
REMARK    7  A    between atoms: N_31  and  C_23 
REMARK       I    between atoms: N_32  and  C_24 
ROOT
HETATM    1  C   UNK N   1      22.260  12.407   6.594  0.00  0.00     0.144 C 
HETATM    2  C   UNK N   1      22.704  14.853   6.847  0.00  0.00     0.144 C 
HETATM    3  C   UNK N   1      20.862  12.717   6.123  0.00  0.00     0.145 C 
HETATM    4  C   UNK N   1      21.313  15.121   6.258  0.00  0.00     0.145 C 
HETATM    5  C   UNK N   1      21.001  13.994   4.083  0.00  0.00     0.230 C 
HETATM    6  N   UNK N   1      22.747  13.511   7.399  0.00  0.00    -0.364 N 
HETATM    7  N   UNK N   1      20.974  13.977   5.446  0.00  0.00    -0.348 N 
HETATM    8  O   UNK N   1      20.828  12.940   3.477  0.00  0.00    -0.273 OA
ENDROOT
BRANCH   5   9
HETATM    9  C   UNK N   1      21.245  15.241   3.247  0.00  0.00     0.128 C 
BRANCH   9  10
HETATM   10  C   UNK N   1      20.113  15.728   2.324  0.00  0.00     0.133 C 
BRANCH  10  11
HETATM   11  N   UNK N   1      19.156  14.703   1.938  0.00  0.00    -0.417 N 
HETATM   12  H   UNK N   1      18.611  14.102   2.557  0.00  0.00     0.153 HD
BRANCH  11  13
HETATM   13  C   UNK N   1      19.143  14.718   0.483  0.00  0.00     0.068 C 
HETATM   14  C   UNK N   1      19.188  16.142  -0.033  0.00  0.00     0.031 C 
HETATM   15  C   UNK N   1      17.896  14.027  -0.025  0.00  0.00     0.031 C 
ENDBRANCH  11  13
ENDBRANCH  10  11
ENDBRANCH   9  10
BRANCH   9  16
HETATM   16  C   UNK N   1      22.666  15.335   2.748  0.00  0.00    -0.043 A 
HETATM   17  C   UNK N   1      23.089  14.569   1.645  0.00  0.00     0.010 A 
HETATM   18  C   UNK N   1      24.440  14.494   1.311  0.00  0.00     0.024 A 
HETATM   19  C   UNK N   1      25.383  15.183   2.073  0.00  0.00     0.034 A 
HETATM   20  C   UNK N   1      24.971  15.973   3.152  0.00  0.00     0.024 A 
HETATM   21 Cl   UNK N   1      27.084  15.020   1.707  0.00  0.00    -0.084 Cl
HETATM   22  C   UNK N   1      23.618  16.043   3.493  0.00  0.00     0.010 A 
ENDBRANCH   9  16
ENDBRANCH   5   9
BRANCH   6  23
HETATM   23  C   UNK N   1      23.357  13.266   8.658  0.00  0.00     0.113 A 
HETATM   24  C   UNK N   1      22.621  12.880   9.796  0.00  0.00     0.015 A 
HETATM   25  C   UNK N   1      21.143  12.743   9.969  0.00  0.00     0.023 A 
HETATM   26  C   UNK N   1      23.278  12.633  10.958  0.00  0.00     0.049 A 
HETATM   27  C   UNK N   1      20.465  14.095   9.818  0.00  0.00     0.015 C 
HETATM   28  C   UNK N   1      20.992  12.259  11.419  0.00  0.00     0.047 A 
HETATM   29  C   UNK N   1      22.381  12.287  12.074  0.00  0.00     0.169 A 
HETATM   30  N   UNK N   1      24.629  12.750  11.050  0.00  0.00    -0.353 N 
HETATM   31  C   UNK N   1      25.345  13.129   9.957  0.00  0.00     0.182 A 
ATOM     32  HN  UNK N   1      25.103  12.555  11.932  1.00  0.00     0.166 HD
HETATM   33  N   UNK N   1      24.716  13.391   8.779  0.00  0.00    -0.338 N 
ATOM     34  HN  UNK N   1      25.264  13.686   7.971  1.00  0.00     0.168 HD
BRANCH  29  35
HETATM   35  O   UNK N   1      22.693  11.028  12.585  0.00  0.00    -0.389 OA
HETATM   36  H   UNK N   1      22.677  10.104  12.293  0.00  0.00     0.210 HD
ENDBRANCH  29  35
ENDBRANCH   6  23
TORSDOF 7
ENDMDL
MODEL 4
REMARK VINA RESULT:      -7.2      3.038      4.516
REMARK  7 active torsions:
REMARK  status: ('A' for Active; 'I' for Inactive)
REMARK    1  A    between atoms: C_19  and  C_13 
REMARK    2  A    between atoms: N_26  and  C_13 
REMARK    3  A    between atoms: N_26  and  C_15 
REMARK    4  A    between atoms: C_19  and  C_17 
REMARK    5  A    between atoms: C_19  and  C_24 
REMARK    6  A    between atoms: C_20  and  O_33 
REMARK    7  A    between atoms: N_31  and  C_23 
REMARK       I    between atoms: N_32  and  C_24 
ROOT
HETATM    1  C   UNK N   1      36.868  14.592   9.466  0.00  0.00     0.144 C 
HETATM    2  C   UNK N   1      34.520  13.906   9.977  0.00  0.00     0.144 C 
HETATM    3  C   UNK N   1      36.839  13.737   8.225  0.00  0.00     0.145 C 
HETATM    4  C   UNK N   1      34.502  13.139   8.648  0.00  0.00     0.145 C 
HETATM    5  C   UNK N   1      35.134  14.580   6.745  0.00  0.00     0.230 C 
HETATM    6  N   UNK N   1      35.893  14.087  10.414  0.00  0.00    -0.364 N 
HETATM    7  N   UNK N   1      35.474  13.770   7.787  0.00  0.00    -0.348 N 
HETATM    8  O   UNK N   1      36.025  15.180   6.150  0.00  0.00    -0.273 OA
ENDROOT
BRANCH   5   9
HETATM    9  C   UNK N   1      33.708  14.807   6.266  0.00  0.00     0.128 C 
BRANCH   9  10
HETATM   10  C   UNK N   1      33.451  14.856   4.750  0.00  0.00     0.133 C 
BRANCH  10  11
HETATM   11  N   UNK N   1      33.781  16.123   4.115  0.00  0.00    -0.417 N 
HETATM   12  H   UNK N   1      34.678  16.609   4.134  0.00  0.00     0.153 HD
BRANCH  11  13
HETATM   13  C   UNK N   1      32.559  16.548   3.448  0.00  0.00     0.068 C 
HETATM   14  C   UNK N   1      31.891  17.664   4.226  0.00  0.00     0.031 C 
HETATM   15  C   UNK N   1      31.613  15.375   3.317  0.00  0.00     0.031 C 
ENDBRANCH  11  13
ENDBRANCH  10  11
ENDBRANCH   9  10
BRANCH   9  16
HETATM   16  C   UNK N   1      32.945  15.761   7.153  0.00  0.00    -0.043 A 
HETATM   17  C   UNK N   1      31.573  15.565   7.399  0.00  0.00     0.010 A 
HETATM   18  C   UNK N   1      30.821  16.548   8.042  0.00  0.00     0.024 A 
HETATM   19  C   UNK N   1      31.432  17.735   8.446  0.00  0.00     0.034 A 
HETATM   20  C   UNK N   1      32.801  17.926   8.235  0.00  0.00     0.024 A 
HETATM   21 Cl   UNK N   1      30.472  19.002   9.173  0.00  0.00    -0.084 Cl
HETATM   22  C   UNK N   1      33.554  16.946   7.584  0.00  0.00     0.010 A 
ENDBRANCH   9  16
ENDBRANCH   5   9
BRANCH   6  23
HETATM   23  C   UNK N   1      36.252  13.884  11.773  0.00  0.00     0.113 A 
HETATM   24  C   UNK N   1      36.800  12.672  12.239  0.00  0.00     0.015 A 
HETATM   25  C   UNK N   1      37.024  11.388  11.509  0.00  0.00     0.023 A 
HETATM   26  C   UNK N   1      37.148  12.563  13.547  0.00  0.00     0.049 A 
HETATM   27  C   UNK N   1      35.696  10.784  11.082  0.00  0.00     0.015 C 
HETATM   28  C   UNK N   1      37.677  10.482  12.563  0.00  0.00     0.047 A 
HETATM   29  C   UNK N   1      37.661  11.229  13.905  0.00  0.00     0.169 A 
HETATM   30  N   UNK N   1      36.980  13.593  14.417  0.00  0.00    -0.353 N 
HETATM   31  C   UNK N   1      36.446  14.764  13.975  0.00  0.00     0.182 A 
ATOM     32  HN  UNK N   1      37.253  13.490  15.394  1.00  0.00     0.166 HD
HETATM   33  N   UNK N   1      36.080  14.904  12.671  0.00  0.00    -0.338 N 
ATOM     34  HN  UNK N   1      35.669  15.783  12.356  1.00  0.00     0.168 HD
BRANCH  29  35
HETATM   35  O   UNK N   1      38.955  11.319  14.416  0.00  0.00    -0.389 OA
HETATM   36  H   UNK N   1      39.865  11.339  14.084  0.00  0.00     0.210 HD
ENDBRANCH  29  35
ENDBRANCH   6  23
TORSDOF 7
ENDMDL
MODEL 5
REMARK VINA RESULT:      -7.1      3.644      8.931
REMARK  7 active torsions:
REMARK  status: ('A' for Active; 'I' for Inactive)
REMARK    1  A    between atoms: C_19  and  C_13 
REMARK    2  A    between atoms: N_26  and  C_13 
REMARK    3  A    between atoms: N_26  and  C_15 
REMARK    4  A    between atoms: C_19  and  C_17 
REMARK    5  A    between atoms: C_19  and  C_24 
REMARK    6  A    between atoms: C_20  and  O_33 
REMARK    7  A    between atoms: N_31  and  C_23 
REMARK       I    between atoms: N_32  and  C_24 
ROOT
HETATM    1  C   UNK N   1      32.172  14.742   8.201  0.00  0.00     0.144 C 
HETATM    2  C   UNK N   1      33.576  16.712   8.827  0.00  0.00     0.144 C 
HETATM    3  C   UNK N   1      33.229  14.313   7.214  0.00  0.00     0.145 C 
HETATM    4  C   UNK N   1      34.668  16.175   7.892  0.00  0.00     0.145 C 
HETATM    5  C   UNK N   1      35.262  13.836   8.417  0.00  0.00     0.230 C 
HETATM    6  N   UNK N   1      32.289  16.169   8.432  0.00  0.00    -0.364 N 
HETATM    7  N   UNK N   1      34.468  14.749   7.789  0.00  0.00    -0.348 N 
HETATM    8  O   UNK N   1      34.938  12.652   8.383  0.00  0.00    -0.273 OA
ENDROOT
BRANCH   5   9
HETATM    9  C   UNK N   1      36.532  14.185   9.178  0.00  0.00     0.128 C 
BRANCH   9  10
HETATM   10  C   UNK N   1      37.883  13.802   8.548  0.00  0.00     0.133 C 
BRANCH  10  11
HETATM   11  N   UNK N   1      37.806  12.790   7.505  0.00  0.00    -0.417 N 
HETATM   12  H   UNK N   1      37.261  12.831   6.644  0.00  0.00     0.153 HD
BRANCH  11  13
HETATM   13  C   UNK N   1      38.670  11.709   7.955  0.00  0.00     0.068 C 
HETATM   14  C   UNK N   1      37.848  10.594   8.571  0.00  0.00     0.031 C 
HETATM   15  C   UNK N   1      39.663  12.235   8.968  0.00  0.00     0.031 C 
ENDBRANCH  11  13
ENDBRANCH  10  11
ENDBRANCH   9  10
BRANCH   9  16
HETATM   16  C   UNK N   1      36.371  14.038  10.672  0.00  0.00    -0.043 A 
HETATM   17  C   UNK N   1      35.937  15.125  11.454  0.00  0.00     0.010 A 
HETATM   18  C   UNK N   1      35.984  15.060  12.846  0.00  0.00     0.024 A 
HETATM   19  C   UNK N   1      36.465  13.909  13.470  0.00  0.00     0.034 A 
HETATM   20  C   UNK N   1      36.869  12.812  12.703  0.00  0.00     0.024 A 
HETATM   21 Cl   UNK N   1      36.605  13.860  15.212  0.00  0.00    -0.084 Cl
HETATM   22  C   UNK N   1      36.829  12.878  11.308  0.00  0.00     0.010 A 
ENDBRANCH   9  16
ENDBRANCH   5   9
BRANCH   6  23
HETATM   23  C   UNK N   1      31.139  17.000   8.382  0.00  0.00     0.113 A 
HETATM   24  C   UNK N   1      30.387  17.185   7.206  0.00  0.00     0.015 A 
HETATM   25  C   UNK N   1      30.646  16.681   5.824  0.00  0.00     0.023 A 
HETATM   26  C   UNK N   1      29.280  17.971   7.243  0.00  0.00     0.049 A 
HETATM   27  C   UNK N   1      31.924  17.291   5.269  0.00  0.00     0.015 C 
HETATM   28  C   UNK N   1      29.446  17.198   5.018  0.00  0.00     0.047 A 
HETATM   29  C   UNK N   1      28.620  18.114   5.934  0.00  0.00     0.169 A 
HETATM   30  N   UNK N   1      28.881  18.583   8.389  0.00  0.00    -0.353 N 
HETATM   31  C   UNK N   1      29.606  18.414   9.527  0.00  0.00     0.182 A 
ATOM     32  HN  UNK N   1      28.043  19.165   8.396  1.00  0.00     0.166 HD
HETATM   33  N   UNK N   1      30.725  17.638   9.522  0.00  0.00    -0.338 N 
ATOM     34  HN  UNK N   1      31.265  17.531  10.380  1.00  0.00     0.168 HD
BRANCH  29  35
HETATM   35  O   UNK N   1      27.302  17.665   5.994  0.00  0.00    -0.389 OA
HETATM   36  H   UNK N   1      26.661  17.221   5.418  0.00  0.00     0.210 HD
ENDBRANCH  29  35
ENDBRANCH   6  23
TORSDOF 7
ENDMDL
MODEL 6
REMARK VINA RESULT:      -7.1      4.770     10.654
REMARK  7 active torsions:
REMARK  status: ('A' for Active; 'I' for Inactive)
REMARK    1  A    between atoms: C_19  and  C_13 
REMARK    2  A    between atoms: N_26  and  C_13 
REMARK    3  A    between atoms: N_26  and  C_15 
REMARK    4  A    between atoms: C_19  and  C_17 
REMARK    5  A    between atoms: C_19  and  C_24 
REMARK    6  A    between atoms: C_20  and  O_33 
REMARK    7  A    between atoms: N_31  and  C_23 
REMARK       I    between atoms: N_32  and  C_24 
ROOT
HETATM    1  C   UNK N   1      24.759  15.142   4.932  0.00  0.00     0.144 C 
HETATM    2  C   UNK N   1      25.148  16.721   3.035  0.00  0.00     0.144 C 
HETATM    3  C   UNK N   1      26.038  14.423   4.586  0.00  0.00     0.145 C 
HETATM    4  C   UNK N   1      26.495  16.027   2.791  0.00  0.00     0.145 C 
HETATM    5  C   UNK N   1      27.879  15.959   4.836  0.00  0.00     0.230 C 
HETATM    6  N   UNK N   1      24.262  15.823   3.751  0.00  0.00    -0.364 N 
HETATM    7  N   UNK N   1      26.896  15.438   4.047  0.00  0.00    -0.348 N 
HETATM    8  O   UNK N   1      28.062  15.471   5.947  0.00  0.00    -0.273 OA
ENDROOT
BRANCH   5   9
HETATM    9  C   UNK N   1      28.771  17.124   4.436  0.00  0.00     0.128 C 
BRANCH   9  10
HETATM   10  C   UNK N   1      30.286  16.876   4.330  0.00  0.00     0.133 C 
BRANCH  10  11
HETATM   11  N   UNK N   1      31.075  18.052   3.998  0.00  0.00    -0.417 N 
HETATM   12  H   UNK N   1      30.738  19.004   3.859  0.00  0.00     0.153 HD
BRANCH  11  13
HETATM   13  C   UNK N   1      32.448  17.578   3.904  0.00  0.00     0.068 C 
HETATM   14  C   UNK N   1      32.518  16.314   3.071  0.00  0.00     0.031 C 
HETATM   15  C   UNK N   1      32.993  17.311   5.290  0.00  0.00     0.031 C 
ENDBRANCH  11  13
ENDBRANCH  10  11
ENDBRANCH   9  10
BRANCH   9  16
HETATM   16  C   UNK N   1      28.298  18.438   5.010  0.00  0.00    -0.043 A 
HETATM   17  C   UNK N   1      28.371  18.681   6.394  0.00  0.00     0.010 A 
HETATM   18  C   UNK N   1      27.751  19.799   6.951  0.00  0.00     0.024 A 
HETATM   19  C   UNK N   1      27.053  20.685   6.131  0.00  0.00     0.034 A 
HETATM   20  C   UNK N   1      27.002  20.471   4.750  0.00  0.00     0.024 A 
HETATM   21 Cl   UNK N   1      26.204  22.038   6.840  0.00  0.00    -0.084 Cl
HETATM   22  C   UNK N   1      27.616  19.347   4.192  0.00  0.00     0.010 A 
ENDBRANCH   9  16
ENDBRANCH   5   9
BRANCH   6  23
HETATM   23  C   UNK N   1      22.898  15.698   3.373  0.00  0.00     0.113 A 
HETATM   24  C   UNK N   1      21.981  16.762   3.479  0.00  0.00     0.015 A 
HETATM   25  C   UNK N   1      22.173  18.127   4.055  0.00  0.00     0.023 A 
HETATM   26  C   UNK N   1      20.701  16.577   3.067  0.00  0.00     0.049 A 
HETATM   27  C   UNK N   1      22.453  18.037   5.547  0.00  0.00     0.015 C 
HETATM   28  C   UNK N   1      20.814  18.807   3.834  0.00  0.00     0.047 A 
HETATM   29  C   UNK N   1      19.842  17.754   3.280  0.00  0.00     0.169 A 
HETATM   30  N   UNK N   1      20.282  15.389   2.556  0.00  0.00    -0.353 N 
HETATM   31  C   UNK N   1      21.161  14.355   2.457  0.00  0.00     0.182 A 
ATOM     32  HN  UNK N   1      19.317  15.273   2.249  1.00  0.00     0.166 HD
HETATM   33  N   UNK N   1      22.451  14.506   2.867  0.00  0.00    -0.338 N 
ATOM     34  HN  UNK N   1      23.095  13.718   2.798  1.00  0.00     0.168 HD
BRANCH  29  35
HETATM   35  O   UNK N   1      19.300  18.195   2.074  0.00  0.00    -0.389 OA
HETATM   36  H   UNK N   1      18.662  18.856   1.765  0.00  0.00     0.210 HD
ENDBRANCH  29  35
ENDBRANCH   6  23
TORSDOF 7
ENDMDL
MODEL 7
REMARK VINA RESULT:      -7.0      3.640      9.258
REMARK  7 active torsions:
REMARK  status: ('A' for Active; 'I' for Inactive)
REMARK    1  A    between atoms: C_19  and  C_13 
REMARK    2  A    between atoms: N_26  and  C_13 
REMARK    3  A    between atoms: N_26  and  C_15 
REMARK    4  A    between atoms: C_19  and  C_17 
REMARK    5  A    between atoms: C_19  and  C_24 
REMARK    6  A    between atoms: C_20  and  O_33 
REMARK    7  A    between atoms: N_31  and  C_23 
REMARK       I    between atoms: N_32  and  C_24 
ROOT
HETATM    1  C   UNK N   1      34.241  16.950   9.273  0.00  0.00     0.144 C 
HETATM    2  C   UNK N   1      33.450  14.656   8.672  0.00  0.00     0.144 C 
HETATM    3  C   UNK N   1      34.772  16.415  10.579  0.00  0.00     0.145 C 
HETATM    4  C   UNK N   1      34.104  14.141   9.962  0.00  0.00     0.145 C 
HETATM    5  C   UNK N   1      36.483  14.785  10.109  0.00  0.00     0.230 C 
HETATM    6  N   UNK N   1      33.183  16.078   8.798  0.00  0.00    -0.364 N 
HETATM    7  N   UNK N   1      35.162  15.065  10.293  0.00  0.00    -0.348 N 
HETATM    8  O   UNK N   1      37.306  15.678  10.292  0.00  0.00    -0.273 OA
ENDROOT
BRANCH   5   9
HETATM    9  C   UNK N   1      37.019  13.429   9.674  0.00  0.00     0.128 C 
BRANCH   9  10
HETATM   10  C   UNK N   1      37.541  12.473  10.761  0.00  0.00     0.133 C 
BRANCH  10  11
HETATM   11  N   UNK N   1      37.813  13.100  12.046  0.00  0.00    -0.417 N 
HETATM   12  H   UNK N   1      38.565  13.751  12.269  0.00  0.00     0.153 HD
BRANCH  11  13
HETATM   13  C   UNK N   1      36.783  12.598  12.944  0.00  0.00     0.068 C 
HETATM   14  C   UNK N   1      36.071  13.747  13.630  0.00  0.00     0.031 C 
HETATM   15  C   UNK N   1      37.406  11.687  13.979  0.00  0.00     0.031 C 
ENDBRANCH  11  13
ENDBRANCH  10  11
ENDBRANCH   9  10
BRANCH   9  16
HETATM   16  C   UNK N   1      37.760  13.493   8.361  0.00  0.00    -0.043 A 
HETATM   17  C   UNK N   1      39.165  13.409   8.328  0.00  0.00     0.010 A 
HETATM   18  C   UNK N   1      39.863  13.674   7.150  0.00  0.00     0.024 A 
HETATM   19  C   UNK N   1      39.165  14.023   5.994  0.00  0.00     0.034 A 
HETATM   20  C   UNK N   1      37.768  14.079   6.008  0.00  0.00     0.024 A 
HETATM   21 Cl   UNK N   1      40.045  14.439   4.542  0.00  0.00    -0.084 Cl
HETATM   22  C   UNK N   1      37.068  13.821   7.189  0.00  0.00     0.010 A 
ENDBRANCH   9  16
ENDBRANCH   5   9
BRANCH   6  23
HETATM   23  C   UNK N   1      31.948  16.623   8.357  0.00  0.00     0.113 A 
HETATM   24  C   UNK N   1      31.626  16.766   6.993  0.00  0.00     0.015 A 
HETATM   25  C   UNK N   1      32.464  16.497   5.786  0.00  0.00     0.023 A 
HETATM   26  C   UNK N   1      30.412  17.267   6.648  0.00  0.00     0.049 A 
HETATM   27  C   UNK N   1      33.654  17.444   5.747  0.00  0.00     0.015 C 
HETATM   28  C   UNK N   1      31.524  16.815   4.615  0.00  0.00     0.047 A 
HETATM   29  C   UNK N   1      30.230  17.406   5.193  0.00  0.00     0.169 A 
HETATM   30  N   UNK N   1      29.501  17.635   7.587  0.00  0.00    -0.353 N 
HETATM   31  C   UNK N   1      29.808  17.506   8.906  0.00  0.00     0.182 A 
ATOM     32  HN  UNK N   1      28.593  18.005   7.305  1.00  0.00     0.166 HD
HETATM   33  N   UNK N   1      31.019  17.013   9.286  0.00  0.00    -0.338 N 
ATOM     34  HN  UNK N   1      31.240  16.934  10.278  1.00  0.00     0.168 HD
BRANCH  29  35
HETATM   35  O   UNK N   1      29.132  16.664   4.761  0.00  0.00    -0.389 OA
HETATM   36  H   UNK N   1      28.585  15.929   5.077  0.00  0.00     0.210 HD
ENDBRANCH  29  35
ENDBRANCH   6  23
TORSDOF 7
ENDMDL
MODEL 8
REMARK VINA RESULT:      -6.9      4.820      6.704
REMARK  7 active torsions:
REMARK  status: ('A' for Active; 'I' for Inactive)
REMARK    1  A    between atoms: C_19  and  C_13 
REMARK    2  A    between atoms: N_26  and  C_13 
REMARK    3  A    between atoms: N_26  and  C_15 
REMARK    4  A    between atoms: C_19  and  C_17 
REMARK    5  A    between atoms: C_19  and  C_24 
REMARK    6  A    between atoms: C_20  and  O_33 
REMARK    7  A    between atoms: N_31  and  C_23 
REMARK       I    between atoms: N_32  and  C_24 
ROOT
HETATM    1  C   UNK N   1      27.262  18.291   5.782  0.00  0.00     0.144 C 
HETATM    2  C   UNK N   1      26.767  16.037   6.742  0.00  0.00     0.144 C 
HETATM    3  C   UNK N   1      27.186  17.707   4.394  0.00  0.00     0.145 C 
HETATM    4  C   UNK N   1      26.591  15.515   5.310  0.00  0.00     0.145 C 
HETATM    5  C   UNK N   1      24.959  16.858   4.033  0.00  0.00     0.230 C 
HETATM    6  N   UNK N   1      27.585  17.236   6.724  0.00  0.00    -0.364 N 
HETATM    7  N   UNK N   1      26.225  16.647   4.493  0.00  0.00    -0.348 N 
HETATM    8  O   UNK N   1      24.710  17.914   3.458  0.00  0.00    -0.273 OA
ENDROOT
BRANCH   5   9
HETATM    9  C   UNK N   1      23.814  15.871   4.193  0.00  0.00     0.128 C 
BRANCH   9  10
HETATM   10  C   UNK N   1      23.094  15.383   2.924  0.00  0.00     0.133 C 
BRANCH  10  11
HETATM   11  N   UNK N   1      22.296  14.178   3.099  0.00  0.00    -0.417 N 
HETATM   12  H   UNK N   1      22.605  13.283   3.476  0.00  0.00     0.153 HD
BRANCH  11  13
HETATM   13  C   UNK N   1      20.967  14.525   2.620  0.00  0.00     0.068 C 
HETATM   14  C   UNK N   1      21.011  15.808   1.814  0.00  0.00     0.031 C 
HETATM   15  C   UNK N   1      20.026  14.687   3.794  0.00  0.00     0.031 C 
ENDBRANCH  11  13
ENDBRANCH  10  11
ENDBRANCH   9  10
BRANCH   9  16
HETATM   16  C   UNK N   1      22.987  16.138   5.427  0.00  0.00    -0.043 A 
HETATM   17  C   UNK N   1      22.863  15.159   6.431  0.00  0.00     0.010 A 
HETATM   18  C   UNK N   1      21.943  15.318   7.466  0.00  0.00     0.024 A 
HETATM   19  C   UNK N   1      21.137  16.455   7.509  0.00  0.00     0.034 A 
HETATM   20  C   UNK N   1      21.273  17.449   6.535  0.00  0.00     0.024 A 
HETATM   21 Cl   UNK N   1      19.923  16.612   8.757  0.00  0.00    -0.084 Cl
HETATM   22  C   UNK N   1      22.190  17.288   5.493  0.00  0.00     0.010 A 
ENDBRANCH   9  16
ENDBRANCH   5   9
BRANCH   6  23
HETATM   23  C   UNK N   1      28.613  17.424   7.686  0.00  0.00     0.113 A 
HETATM   24  C   UNK N   1      29.980  17.287   7.373  0.00  0.00     0.015 A 
HETATM   25  C   UNK N   1      30.622  16.852   6.096  0.00  0.00     0.023 A 
HETATM   26  C   UNK N   1      30.907  17.513   8.338  0.00  0.00     0.049 A 
HETATM   27  C   UNK N   1      30.264  15.406   5.789  0.00  0.00     0.015 C 
HETATM   28  C   UNK N   1      32.125  16.949   6.395  0.00  0.00     0.047 A 
HETATM   29  C   UNK N   1      32.290  17.286   7.885  0.00  0.00     0.169 A 
HETATM   30  N   UNK N   1      30.548  17.868   9.600  0.00  0.00    -0.353 N 
HETATM   31  C   UNK N   1      29.230  17.997   9.911  0.00  0.00     0.182 A 
ATOM     32  HN  UNK N   1      31.262  18.038  10.309  1.00  0.00     0.166 HD
HETATM   33  N   UNK N   1      28.275  17.770   8.968  0.00  0.00    -0.338 N 
ATOM     34  HN  UNK N   1      27.290  17.858   9.219  1.00  0.00     0.168 HD
BRANCH  29  35
HETATM   35  O   UNK N   1      33.053  18.444   8.030  0.00  0.00    -0.389 OA
HETATM   36  H   UNK N   1      33.733  18.793   8.626  0.00  0.00     0.210 HD
ENDBRANCH  29  35
ENDBRANCH   6  23
TORSDOF 7
ENDMDL
MODEL 9
REMARK VINA RESULT:      -6.8     12.143     14.861
REMARK  7 active torsions:
REMARK  status: ('A' for Active; 'I' for Inactive)
REMARK    1  A    between atoms: C_19  and  C_13 
REMARK    2  A    between atoms: N_26  and  C_13 
REMARK    3  A    between atoms: N_26  and  C_15 
REMARK    4  A    between atoms: C_19  and  C_17 
REMARK    5  A    between atoms: C_19  and  C_24 
REMARK    6  A    between atoms: C_20  and  O_33 
REMARK    7  A    between atoms: N_31  and  C_23 
REMARK       I    between atoms: N_32  and  C_24 
ROOT
HETATM    1  C   UNK N   1      29.948  21.690  -3.103  0.00  0.00     0.144 C 
HETATM    2  C   UNK N   1      30.643  23.207  -4.962  0.00  0.00     0.144 C 
HETATM    3  C   UNK N   1      29.674  22.893  -2.235  0.00  0.00     0.145 C 
HETATM    4  C   UNK N   1      30.246  24.399  -4.080  0.00  0.00     0.145 C 
HETATM    5  C   UNK N   1      27.927  24.201  -3.256  0.00  0.00     0.230 C 
HETATM    6  N   UNK N   1      30.911  22.052  -4.126  0.00  0.00    -0.364 N 
HETATM    7  N   UNK N   1      29.255  23.917  -3.148  0.00  0.00    -0.348 N 
HETATM    8  O   UNK N   1      27.141  23.641  -2.497  0.00  0.00    -0.273 OA
ENDROOT
BRANCH   5   9
HETATM    9  C   UNK N   1      27.338  25.167  -4.273  0.00  0.00     0.128 C 
BRANCH   9  10
HETATM   10  C   UNK N   1      26.437  26.303  -3.756  0.00  0.00     0.133 C 
BRANCH  10  11
HETATM   11  N   UNK N   1      27.016  27.634  -3.856  0.00  0.00    -0.417 N 
HETATM   12  H   UNK N   1      27.758  28.030  -3.279  0.00  0.00     0.153 HD
BRANCH  11  13
HETATM   13  C   UNK N   1      26.310  28.280  -4.953  0.00  0.00     0.068 C 
HETATM   14  C   UNK N   1      25.040  27.522  -5.284  0.00  0.00     0.031 C 
HETATM   15  C   UNK N   1      27.205  28.342  -6.171  0.00  0.00     0.031 C 
ENDBRANCH  11  13
ENDBRANCH  10  11
ENDBRANCH   9  10
BRANCH   9  16
HETATM   16  C   UNK N   1      26.963  24.488  -5.567  0.00  0.00    -0.043 A 
HETATM   17  C   UNK N   1      25.926  23.537  -5.602  0.00  0.00     0.010 A 
HETATM   18  C   UNK N   1      25.714  22.761  -6.740  0.00  0.00     0.024 A 
HETATM   19  C   UNK N   1      26.534  22.927  -7.856  0.00  0.00     0.034 A 
HETATM   20  C   UNK N   1      27.547  23.891  -7.844  0.00  0.00     0.024 A 
HETATM   21 Cl   UNK N   1      26.324  21.894  -9.251  0.00  0.00    -0.084 Cl
HETATM   22  C   UNK N   1      27.766  24.665  -6.701  0.00  0.00     0.010 A 
ENDBRANCH   9  16
ENDBRANCH   5   9
BRANCH   6  23
HETATM   23  C   UNK N   1      32.036  21.222  -4.377  0.00  0.00     0.113 A 
HETATM   24  C   UNK N   1      32.298  20.662  -5.642  0.00  0.00     0.015 A 
HETATM   25  C   UNK N   1      31.481  20.715  -6.892  0.00  0.00     0.023 A 
HETATM   26  C   UNK N   1      33.411  19.904  -5.814  0.00  0.00     0.049 A 
HETATM   27  C   UNK N   1      30.159  19.990  -6.691  0.00  0.00     0.015 C 
HETATM   28  C   UNK N   1      32.331  19.946  -7.913  0.00  0.00     0.047 A 
HETATM   29  C   UNK N   1      33.534  19.345  -7.171  0.00  0.00     0.169 A 
HETATM   30  N   UNK N   1      34.278  19.672  -4.793  0.00  0.00    -0.353 N 
HETATM   31  C   UNK N   1      34.028  20.204  -3.567  0.00  0.00     0.182 A 
ATOM     32  HN  UNK N   1      35.111  19.103  -4.945  1.00  0.00     0.166 HD
HETATM   33  N   UNK N   1      32.917  20.964  -3.360  0.00  0.00    -0.338 N 
ATOM     34  HN  UNK N   1      32.735  21.346  -2.432  1.00  0.00     0.168 HD
BRANCH  29  35
HETATM   35  O   UNK N   1      34.721  19.761  -7.771  0.00  0.00    -0.389 OA
HETATM   36  H   UNK N   1      35.002  20.249  -8.559  0.00  0.00     0.210 HD
ENDBRANCH  29  35
ENDBRANCH   6  23
TORSDOF 7
ENDMDL
