MODEL 1
REMARK VINA RESULT:      -7.3      0.000      0.000
REMARK  5 active torsions:
REMARK  status: ('A' for Active; 'I' for Inactive)
REMARK    1  A    between atoms: C_3  and  C_8 
REMARK    2  A    between atoms: C_11  and  S_14 
REMARK    3  A    between atoms: S_14  and  C_15 
REMARK    4  A    between atoms: C_19  and  C_21 
REMARK    5  A    between atoms: C_21  and  C_27 
REMARK       I    between atoms: C_27  and  N_29 
ROOT
HETATM    1  C   UNK N   1      28.893  17.506   7.087  0.00  0.00     0.006 A 
HETATM    2  C   UNK N   1      28.641  18.497   8.048  0.00  0.00     0.019 A 
HETATM    3  C   UNK N   1      29.571  18.779   9.043  0.00  0.00     0.002 A 
HETATM    4  C   UNK N   1      30.775  18.084   9.080  0.00  0.00     0.008 A 
HETATM    5  C   UNK N   1      31.080  17.113   8.109  0.00  0.00    -0.039 A 
HETATM    6  C   UNK N   1      30.116  16.832   7.117  0.00  0.00     0.027 A 
ENDROOT
BRANCH   1   7
HETATM    7  S   UNK N   1      27.650  17.031   5.844  0.00  0.00    -0.091 SA
BRANCH   7   8
HETATM    8  C   UNK N   1      28.742  16.056   4.801  0.00  0.00     0.005 A 
HETATM    9  C   UNK N   1      29.417  16.666   3.739  0.00  0.00     0.020 A 
HETATM   10  C   UNK N   1      30.426  15.979   3.069  0.00  0.00     0.015 A 
HETATM   11  C   UNK N   1      30.747  14.663   3.424  0.00  0.00    -0.008 A 
HETATM   12  C   UNK N   1      30.008  14.026   4.435  0.00  0.00     0.015 A 
HETATM   13  C   UNK N   1      29.023  14.728   5.137  0.00  0.00     0.020 A 
BRANCH  11  14
HETATM   14  C   UNK N   1      31.892  13.970   2.795  0.00  0.00     0.061 A 
HETATM   15  N   UNK N   1      31.816  12.940   1.928  0.00  0.00    -0.296 N 
HETATM   16  C   UNK N   1      30.619  12.295   1.408  0.00  0.00     0.178 C 
HETATM   17  N   UNK N   1      33.030  12.608   1.536  0.00  0.00    -0.310 N 
HETATM   18  C   UNK N   1      33.914  13.423   2.149  0.00  0.00     0.109 A 
ATOM     19  HN  UNK N   1      33.263  11.862   0.880  1.00  0.00     0.186 HD
HETATM   20  C   UNK N   1      33.220  14.316   2.955  0.00  0.00     0.050 A 
ENDBRANCH  11  14
ENDBRANCH   7   8
ENDBRANCH   1   7
BRANCH   5  21
HETATM   21  C   UNK N   1      32.428  16.379   8.123  0.00  0.00     0.071 C 
HETATM   22  C   UNK N   1      32.888  16.084   6.672  0.00  0.00     0.050 C 
HETATM   23  C   UNK N   1      33.422  17.351   5.991  0.00  0.00     0.169 C 
HETATM   24  O   UNK N   1      34.494  17.875   6.735  0.00  0.00    -0.391 OA
HETATM   25  C   UNK N   1      33.941  18.400   7.914  0.00  0.00     0.169 C 
HETATM   26  C   UNK N   1      33.496  17.248   8.817  0.00  0.00     0.050 C 
BRANCH  21  27
HETATM   27  C   UNK N   1      32.350  15.067   8.899  0.00  0.00     0.229 C 
HETATM   28  O   UNK N   1      32.243  13.999   8.313  0.00  0.00    -0.273 OA
HETATM   29  N   UNK N   1      32.411  15.070  10.249  0.00  0.00    -0.369 N 
HETATM   30  H   UNK N   1      32.918  14.862  11.066  0.00  0.00     0.159 HD
HETATM   31  H   UNK N   1      31.559  15.458  10.554  0.00  0.00     0.159 HD
ENDBRANCH  21  27
ENDBRANCH   5  21
TORSDOF 5
ENDMDL
MODEL 2
REMARK VINA RESULT:      -7.1      3.493      5.097
REMARK  5 active torsions:
REMARK  status: ('A' for Active; 'I' for Inactive)
REMARK    1  A    between atoms: C_3  and  C_8 
REMARK    2  A    between atoms: C_11  and  S_14 
REMARK    3  A    between atoms: S_14  and  C_15 
REMARK    4  A    between atoms: C_19  and  C_21 
REMARK    5  A    between atoms: C_21  and  C_27 
REMARK       I    between atoms: C_27  and  N_29 
ROOT
HETATM    1  C   UNK N   1      29.153  17.568   6.472  0.00  0.00     0.006 A 
HETATM    2  C   UNK N   1      28.550  18.164   7.591  0.00  0.00     0.019 A 
HETATM    3  C   UNK N   1      29.167  18.131   8.837  0.00  0.00     0.002 A 
HETATM    4  C   UNK N   1      30.406  17.514   8.978  0.00  0.00     0.008 A 
HETATM    5  C   UNK N   1      31.059  16.942   7.871  0.00  0.00    -0.039 A 
HETATM    6  C   UNK N   1      30.409  16.974   6.619  0.00  0.00     0.027 A 
ENDROOT
BRANCH   1   7
HETATM    7  S   UNK N   1      28.321  17.493   4.855  0.00  0.00    -0.091 SA
BRANCH   7   8
HETATM    8  C   UNK N   1      27.218  16.127   5.238  0.00  0.00     0.005 A 
HETATM    9  C   UNK N   1      27.679  14.810   5.135  0.00  0.00     0.020 A 
HETATM   10  C   UNK N   1      26.912  13.762   5.638  0.00  0.00     0.015 A 
HETATM   11  C   UNK N   1      25.660  14.010   6.213  0.00  0.00    -0.008 A 
HETATM   12  C   UNK N   1      25.164  15.324   6.236  0.00  0.00     0.015 A 
HETATM   13  C   UNK N   1      25.950  16.382   5.770  0.00  0.00     0.020 A 
BRANCH  11  14
HETATM   14  C   UNK N   1      24.893  12.917   6.850  0.00  0.00     0.061 A 
HETATM   15  N   UNK N   1      24.709  12.745   8.175  0.00  0.00    -0.296 N 
HETATM   16  C   UNK N   1      25.194  13.584   9.261  0.00  0.00     0.178 C 
HETATM   17  N   UNK N   1      23.935  11.697   8.376  0.00  0.00    -0.310 N 
HETATM   18  C   UNK N   1      23.608  11.171   7.178  0.00  0.00     0.109 A 
ATOM     19  HN  UNK N   1      23.634  11.343   9.285  1.00  0.00     0.186 HD
HETATM   20  C   UNK N   1      24.195  11.933   6.176  0.00  0.00     0.050 A 
ENDBRANCH  11  14
ENDBRANCH   7   8
ENDBRANCH   1   7
BRANCH   5  21
HETATM   21  C   UNK N   1      32.447  16.302   8.018  0.00  0.00     0.071 C 
HETATM   22  C   UNK N   1      33.072  16.062   6.620  0.00  0.00     0.050 C 
HETATM   23  C   UNK N   1      33.583  17.373   6.008  0.00  0.00     0.169 C 
HETATM   24  O   UNK N   1      34.535  17.957   6.863  0.00  0.00    -0.391 OA
HETATM   25  C   UNK N   1      33.829  18.425   7.984  0.00  0.00     0.169 C 
HETATM   26  C   UNK N   1      33.375  17.232   8.826  0.00  0.00     0.050 C 
BRANCH  21  27
HETATM   27  C   UNK N   1      32.381  14.975   8.771  0.00  0.00     0.229 C 
HETATM   28  O   UNK N   1      32.214  13.924   8.171  0.00  0.00    -0.273 OA
HETATM   29  N   UNK N   1      32.520  14.949  10.115  0.00  0.00    -0.369 N 
HETATM   30  H   UNK N   1      33.068  14.711  10.896  0.00  0.00     0.159 HD
HETATM   31  H   UNK N   1      31.697  15.349  10.476  0.00  0.00     0.159 HD
ENDBRANCH  21  27
ENDBRANCH   5  21
TORSDOF 5
ENDMDL
MODEL 3
REMARK VINA RESULT:      -7.1     12.693     14.755
REMARK  5 active torsions:
REMARK  status: ('A' for Active; 'I' for Inactive)
REMARK    1  A    between atoms: C_3  and  C_8 
REMARK    2  A    between atoms: C_11  and  S_14 
REMARK    3  A    between atoms: S_14  and  C_15 
REMARK    4  A    between atoms: C_19  and  C_21 
REMARK    5  A    between atoms: C_21  and  C_27 
REMARK       I    between atoms: C_27  and  N_29 
ROOT
HETATM    1  C   UNK N   1      29.490  24.499  -3.367  0.00  0.00     0.006 A 
HETATM    2  C   UNK N   1      30.634  25.265  -3.636  0.00  0.00     0.019 A 
HETATM    3  C   UNK N   1      30.533  26.512  -4.243  0.00  0.00     0.002 A 
HETATM    4  C   UNK N   1      29.280  27.019  -4.575  0.00  0.00     0.008 A 
HETATM    5  C   UNK N   1      28.108  26.297  -4.284  0.00  0.00    -0.039 A 
HETATM    6  C   UNK N   1      28.235  25.028  -3.681  0.00  0.00     0.027 A 
ENDROOT
BRANCH   1   7
HETATM    7  S   UNK N   1      29.596  22.817  -2.681  0.00  0.00    -0.091 SA
BRANCH   7   8
HETATM    8  C   UNK N   1      30.099  21.991  -4.195  0.00  0.00     0.005 A 
HETATM    9  C   UNK N   1      31.003  20.925  -4.139  0.00  0.00     0.020 A 
HETATM   10  C   UNK N   1      31.227  20.141  -5.268  0.00  0.00     0.015 A 
HETATM   11  C   UNK N   1      30.583  20.434  -6.476  0.00  0.00    -0.008 A 
HETATM   12  C   UNK N   1      29.742  21.556  -6.550  0.00  0.00     0.015 A 
HETATM   13  C   UNK N   1      29.484  22.320  -5.407  0.00  0.00     0.020 A 
BRANCH  11  14
HETATM   14  C   UNK N   1      30.728  19.539  -7.644  0.00  0.00     0.061 A 
HETATM   15  N   UNK N   1      31.838  19.387  -8.395  0.00  0.00    -0.296 N 
HETATM   16  C   UNK N   1      33.128  20.040  -8.224  0.00  0.00     0.178 C 
HETATM   17  N   UNK N   1      31.620  18.473  -9.319  0.00  0.00    -0.310 N 
HETATM   18  C   UNK N   1      30.357  18.019  -9.181  0.00  0.00     0.109 A 
ATOM     19  HN  UNK N   1      32.292  18.161 -10.021  1.00  0.00     0.186 HD
HETATM   20  C   UNK N   1      29.759  18.671  -8.111  0.00  0.00     0.050 A 
ENDBRANCH  11  14
ENDBRANCH   7   8
ENDBRANCH   1   7
BRANCH   5  21
HETATM   21  C   UNK N   1      26.724  26.876  -4.609  0.00  0.00     0.071 C 
HETATM   22  C   UNK N   1      26.825  27.849  -5.811  0.00  0.00     0.050 C 
HETATM   23  C   UNK N   1      26.974  27.085  -7.133  0.00  0.00     0.169 C 
HETATM   24  O   UNK N   1      25.879  26.221  -7.309  0.00  0.00    -0.391 OA
HETATM   25  C   UNK N   1      26.031  25.189  -6.368  0.00  0.00     0.169 C 
HETATM   26  C   UNK N   1      25.746  25.739  -4.969  0.00  0.00     0.050 C 
BRANCH  21  27
HETATM   27  C   UNK N   1      26.126  27.616  -3.415  0.00  0.00     0.229 C 
HETATM   28  O   UNK N   1      25.952  27.043  -2.349  0.00  0.00    -0.273 OA
HETATM   29  N   UNK N   1      25.791  28.920  -3.521  0.00  0.00    -0.369 N 
HETATM   30  H   UNK N   1      25.978  29.856  -3.280  0.00  0.00     0.159 HD
HETATM   31  H   UNK N   1      25.000  28.947  -4.105  0.00  0.00     0.159 HD
ENDBRANCH  21  27
ENDBRANCH   5  21
TORSDOF 5
ENDMDL
MODEL 4
REMARK VINA RESULT:      -7.0     13.339     15.440
REMARK  5 active torsions:
REMARK  status: ('A' for Active; 'I' for Inactive)
REMARK    1  A    between atoms: C_3  and  C_8 
REMARK    2  A    between atoms: C_11  and  S_14 
REMARK    3  A    between atoms: S_14  and  C_15 
REMARK    4  A    between atoms: C_19  and  C_21 
REMARK    5  A    between atoms: C_21  and  C_27 
REMARK       I    between atoms: C_27  and  N_29 
ROOT
HETATM    1  C   UNK N   1      30.088  28.038  -5.203  0.00  0.00     0.006 A 
HETATM    2  C   UNK N   1      30.111  28.606  -6.486  0.00  0.00     0.019 A 
HETATM    3  C   UNK N   1      28.953  28.691  -7.251  0.00  0.00     0.002 A 
HETATM    4  C   UNK N   1      27.749  28.222  -6.734  0.00  0.00     0.008 A 
HETATM    5  C   UNK N   1      27.680  27.683  -5.436  0.00  0.00    -0.039 A 
HETATM    6  C   UNK N   1      28.869  27.594  -4.683  0.00  0.00     0.027 A 
ENDROOT
BRANCH   1   7
HETATM    7  S   UNK N   1      31.605  27.806  -4.224  0.00  0.00    -0.091 SA
BRANCH   7   8
HETATM    8  C   UNK N   1      31.699  26.019  -4.380  0.00  0.00     0.005 A 
HETATM    9  C   UNK N   1      32.645  25.443  -5.235  0.00  0.00     0.020 A 
HETATM   10  C   UNK N   1      32.875  24.071  -5.196  0.00  0.00     0.015 A 
HETATM   11  C   UNK N   1      32.138  23.251  -4.333  0.00  0.00    -0.008 A 
HETATM   12  C   UNK N   1      31.131  23.821  -3.538  0.00  0.00     0.015 A 
HETATM   13  C   UNK N   1      30.927  25.205  -3.545  0.00  0.00     0.020 A 
BRANCH  11  14
HETATM   14  C   UNK N   1      32.457  21.812  -4.204  0.00  0.00     0.061 A 
HETATM   15  N   UNK N   1      31.712  20.790  -4.671  0.00  0.00    -0.296 N 
HETATM   16  C   UNK N   1      30.458  20.860  -5.406  0.00  0.00     0.178 C 
HETATM   17  N   UNK N   1      32.326  19.650  -4.419  0.00  0.00    -0.310 N 
HETATM   18  C   UNK N   1      33.483  19.921  -3.780  0.00  0.00     0.109 A 
ATOM     19  HN  UNK N   1      31.984  18.721  -4.665  1.00  0.00     0.186 HD
HETATM   20  C   UNK N   1      33.606  21.296  -3.635  0.00  0.00     0.050 A 
ENDBRANCH  11  14
ENDBRANCH   7   8
ENDBRANCH   1   7
BRANCH   5  21
HETATM   21  C   UNK N   1      26.342  27.209  -4.850  0.00  0.00     0.071 C 
HETATM   22  C   UNK N   1      25.268  27.141  -5.965  0.00  0.00     0.050 C 
HETATM   23  C   UNK N   1      25.475  25.913  -6.861  0.00  0.00     0.169 C 
HETATM   24  O   UNK N   1      25.430  24.743  -6.083  0.00  0.00    -0.391 OA
HETATM   25  C   UNK N   1      26.605  24.732  -5.313  0.00  0.00     0.169 C 
HETATM   26  C   UNK N   1      26.505  25.806  -4.229  0.00  0.00     0.050 C 
BRANCH  21  27
HETATM   27  C   UNK N   1      25.853  28.133  -3.738  0.00  0.00     0.229 C 
HETATM   28  O   UNK N   1      25.440  27.676  -2.681  0.00  0.00    -0.273 OA
HETATM   29  N   UNK N   1      25.881  29.473  -3.905  0.00  0.00    -0.369 N 
HETATM   30  H   UNK N   1      26.283  30.339  -3.667  0.00  0.00     0.159 HD
HETATM   31  H   UNK N   1      25.181  29.675  -4.566  0.00  0.00     0.159 HD
ENDBRANCH  21  27
ENDBRANCH   5  21
TORSDOF 5
ENDMDL
MODEL 5
REMARK VINA RESULT:      -6.9      6.686      9.461
REMARK  5 active torsions:
REMARK  status: ('A' for Active; 'I' for Inactive)
REMARK    1  A    between atoms: C_3  and  C_8 
REMARK    2  A    between atoms: C_11  and  S_14 
REMARK    3  A    between atoms: S_14  and  C_15 
REMARK    4  A    between atoms: C_19  and  C_21 
REMARK    5  A    between atoms: C_21  and  C_27 
REMARK       I    between atoms: C_27  and  N_29 
ROOT
HETATM    1  C   UNK N   1      23.469  20.022   3.121  0.00  0.00     0.006 A 
HETATM    2  C   UNK N   1      22.409  20.850   2.722  0.00  0.00     0.019 A 
HETATM    3  C   UNK N   1      21.089  20.495   2.983  0.00  0.00     0.002 A 
HETATM    4  C   UNK N   1      20.813  19.314   3.664  0.00  0.00     0.008 A 
HETATM    5  C   UNK N   1      21.853  18.480   4.116  0.00  0.00    -0.039 A 
HETATM    6  C   UNK N   1      23.183  18.851   3.828  0.00  0.00     0.027 A 
ENDROOT
BRANCH   1   7
HETATM    7  S   UNK N   1      25.198  20.398   2.694  0.00  0.00    -0.091 SA
BRANCH   7   8
HETATM    8  C   UNK N   1      25.945  19.741   4.190  0.00  0.00     0.005 A 
HETATM    9  C   UNK N   1      26.247  18.378   4.276  0.00  0.00     0.020 A 
HETATM   10  C   UNK N   1      27.021  17.901   5.331  0.00  0.00     0.015 A 
HETATM   11  C   UNK N   1      27.470  18.770   6.333  0.00  0.00    -0.008 A 
HETATM   12  C   UNK N   1      27.092  20.122   6.288  0.00  0.00     0.015 A 
HETATM   13  C   UNK N   1      26.349  20.610   5.207  0.00  0.00     0.020 A 
BRANCH  11  14
HETATM   14  C   UNK N   1      28.386  18.292   7.391  0.00  0.00     0.061 A 
HETATM   15  N   UNK N   1      29.565  17.667   7.197  0.00  0.00    -0.296 N 
HETATM   16  C   UNK N   1      30.206  17.340   5.932  0.00  0.00     0.178 C 
HETATM   17  N   UNK N   1      30.132  17.431   8.364  0.00  0.00    -0.310 N 
HETATM   18  C   UNK N   1      29.322  17.900   9.335  0.00  0.00     0.109 A 
ATOM     19  HN  UNK N   1      31.031  16.971   8.508  1.00  0.00     0.186 HD
HETATM   20  C   UNK N   1      28.199  18.469   8.749  0.00  0.00     0.050 A 
ENDBRANCH  11  14
ENDBRANCH   7   8
ENDBRANCH   1   7
BRANCH   5  21
HETATM   21  C   UNK N   1      21.549  17.200   4.907  0.00  0.00     0.071 C 
HETATM   22  C   UNK N   1      20.223  16.570   4.410  0.00  0.00     0.050 C 
HETATM   23  C   UNK N   1      20.415  15.863   3.062  0.00  0.00     0.169 C 
HETATM   24  O   UNK N   1      21.400  14.867   3.184  0.00  0.00    -0.391 OA
HETATM   25  C   UNK N   1      22.626  15.536   3.329  0.00  0.00     0.169 C 
HETATM   26  C   UNK N   1      22.688  16.177   4.716  0.00  0.00     0.050 C 
BRANCH  21  27
HETATM   27  C   UNK N   1      21.443  17.473   6.406  0.00  0.00     0.229 C 
HETATM   28  O   UNK N   1      21.358  18.617   6.828  0.00  0.00    -0.273 OA
HETATM   29  N   UNK N   1      21.430  16.447   7.285  0.00  0.00    -0.369 N 
HETATM   30  H   UNK N   1      20.924  15.900   7.928  0.00  0.00     0.159 HD
HETATM   31  H   UNK N   1      22.343  16.079   7.279  0.00  0.00     0.159 HD
ENDBRANCH  21  27
ENDBRANCH   5  21
TORSDOF 5
ENDMDL
MODEL 6
REMARK VINA RESULT:      -6.9      6.291      9.094
REMARK  5 active torsions:
REMARK  status: ('A' for Active; 'I' for Inactive)
REMARK    1  A    between atoms: C_3  and  C_8 
REMARK    2  A    between atoms: C_11  and  S_14 
REMARK    3  A    between atoms: S_14  and  C_15 
REMARK    4  A    between atoms: C_19  and  C_21 
REMARK    5  A    between atoms: C_21  and  C_27 
REMARK       I    between atoms: C_27  and  N_29 
ROOT
HETATM    1  C   UNK N   1      25.134  18.090   3.771  0.00  0.00     0.006 A 
HETATM    2  C   UNK N   1      25.379  16.782   3.325  0.00  0.00     0.019 A 
HETATM    3  C   UNK N   1      24.383  15.813   3.371  0.00  0.00     0.002 A 
HETATM    4  C   UNK N   1      23.118  16.144   3.849  0.00  0.00     0.008 A 
HETATM    5  C   UNK N   1      22.824  17.456   4.266  0.00  0.00    -0.039 A 
HETATM    6  C   UNK N   1      23.854  18.419   4.225  0.00  0.00     0.027 A 
ENDROOT
BRANCH   1   7
HETATM    7  S   UNK N   1      26.447  19.349   3.833  0.00  0.00    -0.091 SA
BRANCH   7   8
HETATM    8  C   UNK N   1      27.614  18.403   4.819  0.00  0.00     0.005 A 
HETATM    9  C   UNK N   1      28.896  18.145   4.322  0.00  0.00     0.020 A 
HETATM   10  C   UNK N   1      29.873  17.613   5.159  0.00  0.00     0.015 A 
HETATM   11  C   UNK N   1      29.574  17.294   6.489  0.00  0.00    -0.008 A 
HETATM   12  C   UNK N   1      28.262  17.475   6.958  0.00  0.00     0.015 A 
HETATM   13  C   UNK N   1      27.291  18.049   6.132  0.00  0.00     0.020 A 
BRANCH  11  14
HETATM   14  C   UNK N   1      30.635  16.836   7.412  0.00  0.00     0.061 A 
HETATM   15  N   UNK N   1      30.989  17.429   8.570  0.00  0.00    -0.296 N 
HETATM   16  C   UNK N   1      30.413  18.620   9.177  0.00  0.00     0.178 C 
HETATM   17  N   UNK N   1      31.936  16.720   9.153  0.00  0.00    -0.310 N 
HETATM   18  C   UNK N   1      32.211  15.654   8.374  0.00  0.00     0.109 A 
ATOM     19  HN  UNK N   1      32.385  16.941  10.042  1.00  0.00     0.186 HD
HETATM   20  C   UNK N   1      31.389  15.688   7.255  0.00  0.00     0.050 A 
ENDBRANCH  11  14
ENDBRANCH   7   8
ENDBRANCH   1   7
BRANCH   5  21
HETATM   21  C   UNK N   1      21.417  17.832   4.751  0.00  0.00     0.071 C 
HETATM   22  C   UNK N   1      21.041  19.247   4.243  0.00  0.00     0.050 C 
HETATM   23  C   UNK N   1      20.678  19.224   2.753  0.00  0.00     0.169 C 
HETATM   24  O   UNK N   1      19.606  18.340   2.538  0.00  0.00    -0.391 OA
HETATM   25  C   UNK N   1      20.116  17.044   2.725  0.00  0.00     0.169 C 
HETATM   26  C   UNK N   1      20.385  16.820   4.214  0.00  0.00     0.050 C 
BRANCH  21  27
HETATM   27  C   UNK N   1      21.316  17.803   6.274  0.00  0.00     0.229 C 
HETATM   28  O   UNK N   1      21.076  18.823   6.904  0.00  0.00    -0.273 OA
HETATM   29  N   UNK N   1      21.480  16.642   6.945  0.00  0.00    -0.369 N 
HETATM   30  H   UNK N   1      21.079  15.916   7.475  0.00  0.00     0.159 HD
HETATM   31  H   UNK N   1      22.436  16.422   6.869  0.00  0.00     0.159 HD
ENDBRANCH  21  27
ENDBRANCH   5  21
TORSDOF 5
ENDMDL
MODEL 7
REMARK VINA RESULT:      -6.8     13.617     16.446
REMARK  5 active torsions:
REMARK  status: ('A' for Active; 'I' for Inactive)
REMARK    1  A    between atoms: C_3  and  C_8 
REMARK    2  A    between atoms: C_11  and  S_14 
REMARK    3  A    between atoms: S_14  and  C_15 
REMARK    4  A    between atoms: C_19  and  C_21 
REMARK    5  A    between atoms: C_21  and  C_27 
REMARK       I    between atoms: C_27  and  N_29 
ROOT
HETATM    1  C   UNK N   1      29.935  21.474  -5.734  0.00  0.00     0.006 A 
HETATM    2  C   UNK N   1      30.324  20.202  -6.181  0.00  0.00     0.019 A 
HETATM    3  C   UNK N   1      29.716  19.617  -7.286  0.00  0.00     0.002 A 
HETATM    4  C   UNK N   1      28.720  20.306  -7.972  0.00  0.00     0.008 A 
HETATM    5  C   UNK N   1      28.334  21.600  -7.578  0.00  0.00    -0.039 A 
HETATM    6  C   UNK N   1      28.953  22.169  -6.445  0.00  0.00     0.027 A 
ENDROOT
BRANCH   1   7
HETATM    7  S   UNK N   1      30.628  22.218  -4.224  0.00  0.00    -0.091 SA
BRANCH   7   8
HETATM    8  C   UNK N   1      29.503  23.615  -4.128  0.00  0.00     0.005 A 
HETATM    9  C   UNK N   1      29.734  24.750  -4.913  0.00  0.00     0.020 A 
HETATM   10  C   UNK N   1      28.759  25.738  -5.014  0.00  0.00     0.015 A 
HETATM   11  C   UNK N   1      27.557  25.625  -4.305  0.00  0.00    -0.008 A 
HETATM   12  C   UNK N   1      27.364  24.526  -3.452  0.00  0.00     0.015 A 
HETATM   13  C   UNK N   1      28.325  23.513  -3.381  0.00  0.00     0.020 A 
BRANCH  11  14
HETATM   14  C   UNK N   1      26.472  26.613  -4.497  0.00  0.00     0.061 A 
HETATM   15  N   UNK N   1      26.375  27.813  -3.891  0.00  0.00    -0.296 N 
HETATM   16  C   UNK N   1      27.300  28.412  -2.941  0.00  0.00     0.178 C 
HETATM   17  N   UNK N   1      25.307  28.444  -4.338  0.00  0.00    -0.310 N 
HETATM   18  C   UNK N   1      24.693  27.654  -5.244  0.00  0.00     0.109 A 
ATOM     19  HN  UNK N   1      24.997  29.372  -4.048  1.00  0.00     0.186 HD
HETATM   20  C   UNK N   1      25.417  26.478  -5.380  0.00  0.00     0.050 A 
ENDBRANCH  11  14
ENDBRANCH   7   8
ENDBRANCH   1   7
BRANCH   5  21
HETATM   21  C   UNK N   1      27.268  22.378  -8.362  0.00  0.00     0.071 C 
HETATM   22  C   UNK N   1      26.147  21.416  -8.833  0.00  0.00     0.050 C 
HETATM   23  C   UNK N   1      25.220  21.034  -7.672  0.00  0.00     0.169 C 
HETATM   24  O   UNK N   1      24.651  22.193  -7.117  0.00  0.00    -0.391 OA
HETATM   25  C   UNK N   1      25.687  22.861  -6.442  0.00  0.00     0.169 C 
HETATM   26  C   UNK N   1      26.644  23.469  -7.468  0.00  0.00     0.050 C 
BRANCH  21  27
HETATM   27  C   UNK N   1      27.863  23.086  -9.577  0.00  0.00     0.229 C 
HETATM   28  O   UNK N   1      28.696  23.970  -9.438  0.00  0.00    -0.273 OA
HETATM   29  N   UNK N   1      27.484  22.732 -10.824  0.00  0.00    -0.369 N 
HETATM   30  H   UNK N   1      27.711  22.301 -11.679  0.00  0.00     0.159 HD
HETATM   31  H   UNK N   1      26.559  23.052 -10.923  0.00  0.00     0.159 HD
ENDBRANCH  21  27
ENDBRANCH   5  21
TORSDOF 5
ENDMDL
MODEL 8
REMARK VINA RESULT:      -6.7      4.867      6.387
REMARK  5 active torsions:
REMARK  status: ('A' for Active; 'I' for Inactive)
REMARK    1  A    between atoms: C_3  and  C_8 
REMARK    2  A    between atoms: C_11  and  S_14 
REMARK    3  A    between atoms: S_14  and  C_15 
REMARK    4  A    between atoms: C_19  and  C_21 
REMARK    5  A    between atoms: C_21  and  C_27 
REMARK       I    between atoms: C_27  and  N_29 
ROOT
HETATM    1  C   UNK N   1      28.625  18.319   5.558  0.00  0.00     0.006 A 
HETATM    2  C   UNK N   1      28.148  18.507   6.864  0.00  0.00     0.019 A 
HETATM    3  C   UNK N   1      28.772  17.899   7.947  0.00  0.00     0.002 A 
HETATM    4  C   UNK N   1      29.897  17.105   7.740  0.00  0.00     0.008 A 
HETATM    5  C   UNK N   1      30.428  16.927   6.449  0.00  0.00    -0.039 A 
HETATM    6  C   UNK N   1      29.770  17.542   5.363  0.00  0.00     0.027 A 
ENDROOT
BRANCH   1   7
HETATM    7  S   UNK N   1      27.763  19.005   4.109  0.00  0.00    -0.091 SA
BRANCH   7   8
HETATM    8  C   UNK N   1      26.166  18.241   4.419  0.00  0.00     0.005 A 
HETATM    9  C   UNK N   1      25.058  19.041   4.718  0.00  0.00     0.020 A 
HETATM   10  C   UNK N   1      23.783  18.484   4.740  0.00  0.00     0.015 A 
HETATM   11  C   UNK N   1      23.599  17.117   4.502  0.00  0.00    -0.008 A 
HETATM   12  C   UNK N   1      24.723  16.302   4.287  0.00  0.00     0.015 A 
HETATM   13  C   UNK N   1      26.001  16.867   4.223  0.00  0.00     0.020 A 
BRANCH  11  14
HETATM   14  C   UNK N   1      22.239  16.543   4.411  0.00  0.00     0.061 A 
HETATM   15  N   UNK N   1      21.524  16.031   5.433  0.00  0.00    -0.296 N 
HETATM   16  C   UNK N   1      21.906  15.942   6.835  0.00  0.00     0.178 C 
HETATM   17  N   UNK N   1      20.339  15.656   4.993  0.00  0.00    -0.310 N 
HETATM   18  C   UNK N   1      20.271  15.920   3.672  0.00  0.00     0.109 A 
ATOM     19  HN  UNK N   1      19.598  15.238   5.556  1.00  0.00     0.186 HD
HETATM   20  C   UNK N   1      21.467  16.498   3.266  0.00  0.00     0.050 A 
ENDBRANCH  11  14
ENDBRANCH   7   8
ENDBRANCH   1   7
BRANCH   5  21
HETATM   21  C   UNK N   1      31.695  16.089   6.227  0.00  0.00     0.071 C 
HETATM   22  C   UNK N   1      32.310  16.414   4.841  0.00  0.00     0.050 C 
HETATM   23  C   UNK N   1      33.034  17.767   4.859  0.00  0.00     0.169 C 
HETATM   24  O   UNK N   1      34.043  17.753   5.838  0.00  0.00    -0.391 OA
HETATM   25  C   UNK N   1      33.391  17.766   7.082  0.00  0.00     0.169 C 
HETATM   26  C   UNK N   1      32.736  16.405   7.320  0.00  0.00     0.050 C 
BRANCH  21  27
HETATM   27  C   UNK N   1      31.405  14.593   6.307  0.00  0.00     0.229 C 
HETATM   28  O   UNK N   1      31.983  13.887   7.121  0.00  0.00    -0.273 OA
HETATM   29  N   UNK N   1      30.492  14.031   5.485  0.00  0.00    -0.369 N 
HETATM   30  H   UNK N   1      29.606  13.617   5.374  0.00  0.00     0.159 HD
HETATM   31  H   UNK N   1      30.898  14.041   4.589  0.00  0.00     0.159 HD
ENDBRANCH  21  27
ENDBRANCH   5  21
TORSDOF 5
ENDMDL
MODEL 9
REMARK VINA RESULT:      -6.6     12.636     15.198
REMARK  5 active torsions:
REMARK  status: ('A' for Active; 'I' for Inactive)
REMARK    1  A    between atoms: C_3  and  C_8 
REMARK    2  A    between atoms: C_11  and  S_14 
REMARK    3  A    between atoms: S_14  and  C_15 
REMARK    4  A    between atoms: C_19  and  C_21 
REMARK    5  A    between atoms: C_21  and  C_27 
REMARK       I    between atoms: C_27  and  N_29 
ROOT
HETATM    1  C   UNK N   1      28.417  21.111  -7.740  0.00  0.00     0.006 A 
HETATM    2  C   UNK N   1      28.970  19.829  -7.885  0.00  0.00     0.019 A 
HETATM    3  C   UNK N   1      30.073  19.438  -7.132  0.00  0.00     0.002 A 
HETATM    4  C   UNK N   1      30.627  20.321  -6.210  0.00  0.00     0.008 A 
HETATM    5  C   UNK N   1      30.073  21.598  -6.008  0.00  0.00    -0.039 A 
HETATM    6  C   UNK N   1      28.964  21.979  -6.792  0.00  0.00     0.027 A 
ENDROOT
BRANCH   1   7
HETATM    7  S   UNK N   1      27.049  21.694  -8.790  0.00  0.00    -0.091 SA
BRANCH   7   8
HETATM    8  C   UNK N   1      26.536  23.063  -7.746  0.00  0.00     0.005 A 
HETATM    9  C   UNK N   1      25.779  22.816  -6.595  0.00  0.00     0.020 A 
HETATM   10  C   UNK N   1      25.568  23.833  -5.669  0.00  0.00     0.015 A 
HETATM   11  C   UNK N   1      26.075  25.118  -5.896  0.00  0.00    -0.008 A 
HETATM   12  C   UNK N   1      26.761  25.383  -7.092  0.00  0.00     0.015 A 
HETATM   13  C   UNK N   1      27.010  24.352  -8.005  0.00  0.00     0.020 A 
BRANCH  11  14
HETATM   14  C   UNK N   1      25.953  26.170  -4.863  0.00  0.00     0.061 A 
HETATM   15  N   UNK N   1      26.380  26.084  -3.587  0.00  0.00    -0.296 N 
HETATM   16  C   UNK N   1      27.061  24.969  -2.947  0.00  0.00     0.178 C 
HETATM   17  N   UNK N   1      26.149  27.225  -2.970  0.00  0.00    -0.310 N 
HETATM   18  C   UNK N   1      25.562  28.071  -3.843  0.00  0.00     0.109 A 
ATOM     19  HN  UNK N   1      26.374  27.435  -1.997  1.00  0.00     0.186 HD
HETATM   20  C   UNK N   1      25.431  27.434  -5.069  0.00  0.00     0.050 A 
ENDBRANCH  11  14
ENDBRANCH   7   8
ENDBRANCH   1   7
BRANCH   5  21
HETATM   21  C   UNK N   1      30.657  22.553  -4.958  0.00  0.00     0.071 C 
HETATM   22  C   UNK N   1      32.171  22.764  -5.214  0.00  0.00     0.050 C 
HETATM   23  C   UNK N   1      32.407  23.701  -6.406  0.00  0.00     0.169 C 
HETATM   24  O   UNK N   1      31.787  24.939  -6.167  0.00  0.00    -0.391 OA
HETATM   25  C   UNK N   1      30.403  24.715  -6.255  0.00  0.00     0.169 C 
HETATM   26  C   UNK N   1      29.945  23.919  -5.031  0.00  0.00     0.050 C 
BRANCH  21  27
HETATM   27  C   UNK N   1      30.458  22.024  -3.539  0.00  0.00     0.229 C 
HETATM   28  O   UNK N   1      29.415  22.230  -2.936  0.00  0.00    -0.273 OA
HETATM   29  N   UNK N   1      31.434  21.309  -2.937  0.00  0.00    -0.369 N 
HETATM   30  H   UNK N   1      31.752  20.439  -2.605  0.00  0.00     0.159 HD
HETATM   31  H   UNK N   1      32.154  21.951  -2.742  0.00  0.00     0.159 HD
ENDBRANCH  21  27
ENDBRANCH   5  21
TORSDOF 5
ENDMDL
