MODEL 1
REMARK VINA RESULT:      -8.8      0.000      0.000
REMARK  4 active torsions:
REMARK  status: ('A' for Active; 'I' for Inactive)
REMARK    1  A    between atoms: C_5  and  C_8 
REMARK    2  A    between atoms: C_8  and  N_9 
REMARK       I    between atoms: N_9  and  C_10 
REMARK    3  A    between atoms: C_10  and  C_12 
REMARK    4  A    between atoms: C_16  and  O_19 
ROOT
HETATM    1  C   UNK N   1      35.991  14.367  10.430  0.00  0.00     0.100 A 
HETATM    2  C   UNK N   1      34.921  13.778   9.770  0.00  0.00     0.113 A 
HETATM    3  N   UNK N   1      33.969  14.523   9.157  0.00  0.00    -0.345 N 
HETATM    4  C   UNK N   1      34.043  15.891   9.137  0.00  0.00     0.141 A 
HETATM    5  C   UNK N   1      35.126  16.536   9.783  0.00  0.00     0.150 A 
HETATM    6  C   UNK N   1      36.097  15.766  10.433  0.00  0.00     0.224 A 
HETATM    7  O   UNK N   1      37.054  16.313  10.953  0.00  0.00    -0.284 OA
HETATM    8  C   UNK N   1      33.012  16.667   8.405  0.00  0.00     0.276 A 
HETATM    9  O   UNK N   1      33.078  17.890   8.369  0.00  0.00    -0.266 OA
HETATM   10  N   UNK N   1      32.020  16.028   7.724  0.00  0.00    -0.313 N 
HETATM   11  C   UNK N   1      31.115  16.779   6.857  0.00  0.00     0.092 C 
HETATM   12  C   UNK N   1      31.913  17.178   5.621  0.00  0.00     0.028 C 
HETATM   13  C   UNK N   1      32.005  15.896   4.790  0.00  0.00     0.034 C 
HETATM   14  C   UNK N   1      31.089  14.896   5.491  0.00  0.00     0.126 C 
HETATM   15  C   UNK N   1      30.119  15.817   6.232  0.00  0.00     0.057 C 
HETATM   16  O   UNK N   1      31.878  14.085   6.371  0.00  0.00    -0.359 OA
HETATM   17  C   UNK N   1      31.888  14.574   7.707  0.00  0.00     0.245 A 
HETATM   18  C   UNK N   1      32.883  13.775   8.538  0.00  0.00     0.182 A 
ENDROOT
BRANCH   1  19
HETATM   19  C   UNK N   1      36.995  13.489  11.075  0.00  0.00     0.257 C 
HETATM   20  N   UNK N   1      37.080  13.360  12.422  0.00  0.00    -0.352 N 
HETATM   21  H   UNK N   1      37.856  12.887  12.800  0.00  0.00     0.163 HD
HETATM   22  O   UNK N   1      37.708  12.792  10.371  0.00  0.00    -0.267 OA
BRANCH  20  23
HETATM   23  C   UNK N   1      36.084  13.885  13.329  0.00  0.00     0.167 C 
BRANCH  23  24
HETATM   24  C   UNK N   1      35.587  12.838  14.268  0.00  0.00     0.037 A 
HETATM   25  C   UNK N   1      34.737  11.813  13.819  0.00  0.00     0.130 A 
HETATM   26  C   UNK N   1      34.278  10.846  14.716  0.00  0.00     0.085 A 
HETATM   27  F   UNK N   1      34.356  11.750  12.518  0.00  0.00    -0.205 F 
HETATM   28  C   UNK N   1      34.655  10.900  16.060  0.00  0.00     0.122 A 
HETATM   29  C   UNK N   1      35.485  11.927  16.514  0.00  0.00     0.085 A 
HETATM   30  F   UNK N   1      34.210   9.960  16.926  0.00  0.00    -0.206 F 
HETATM   31  C   UNK N   1      35.950  12.897  15.623  0.00  0.00     0.130 A 
HETATM   32  F   UNK N   1      36.740  13.900  16.084  0.00  0.00    -0.205 F 
ENDBRANCH  23  24
ENDBRANCH  20  23
ENDBRANCH   1  19
BRANCH   5  33
HETATM   33  O   UNK N   1      35.249  17.877   9.765  0.00  0.00    -0.355 OA
HETATM   34  H   UNK N   1      35.787  18.323  10.390  0.00  0.00     0.218 HD
ENDBRANCH   5  33
TORSDOF 4
ENDMDL
MODEL 2
REMARK VINA RESULT:      -8.8      0.037      1.475
REMARK  4 active torsions:
REMARK  status: ('A' for Active; 'I' for Inactive)
REMARK    1  A    between atoms: C_5  and  C_8 
REMARK    2  A    between atoms: C_8  and  N_9 
REMARK       I    between atoms: N_9  and  C_10 
REMARK    3  A    between atoms: C_10  and  C_12 
REMARK    4  A    between atoms: C_16  and  O_19 
ROOT
HETATM    1  C   UNK N   1      35.974  14.378  10.417  0.00  0.00     0.100 A 
HETATM    2  C   UNK N   1      34.908  13.783   9.756  0.00  0.00     0.113 A 
HETATM    3  N   UNK N   1      33.954  14.523   9.137  0.00  0.00    -0.345 N 
HETATM    4  C   UNK N   1      34.024  15.891   9.112  0.00  0.00     0.141 A 
HETATM    5  C   UNK N   1      35.104  16.542   9.758  0.00  0.00     0.150 A 
HETATM    6  C   UNK N   1      36.076  15.778  10.413  0.00  0.00     0.224 A 
HETATM    7  O   UNK N   1      37.029  16.330  10.935  0.00  0.00    -0.284 OA
HETATM    8  C   UNK N   1      32.993  16.661   8.373  0.00  0.00     0.276 A 
HETATM    9  O   UNK N   1      33.055  17.884   8.333  0.00  0.00    -0.266 OA
HETATM   10  N   UNK N   1      32.005  16.016   7.692  0.00  0.00    -0.313 N 
HETATM   11  C   UNK N   1      31.100  16.760   6.820  0.00  0.00     0.092 C 
HETATM   12  C   UNK N   1      31.900  17.157   5.585  0.00  0.00     0.028 C 
HETATM   13  C   UNK N   1      31.998  15.871   4.759  0.00  0.00     0.034 C 
HETATM   14  C   UNK N   1      31.084  14.872   5.461  0.00  0.00     0.126 C 
HETATM   15  C   UNK N   1      30.109  15.792   6.196  0.00  0.00     0.057 C 
HETATM   16  O   UNK N   1      31.873  14.067   6.347  0.00  0.00    -0.359 OA
HETATM   17  C   UNK N   1      31.878  14.561   7.681  0.00  0.00     0.245 A 
HETATM   18  C   UNK N   1      32.873  13.769   8.518  0.00  0.00     0.182 A 
ENDROOT
BRANCH   1  19
HETATM   19  C   UNK N   1      36.979  13.507  11.068  0.00  0.00     0.257 C 
HETATM   20  N   UNK N   1      37.064  13.388  12.416  0.00  0.00    -0.352 N 
HETATM   21  H   UNK N   1      37.841  12.919  12.797  0.00  0.00     0.163 HD
HETATM   22  O   UNK N   1      37.693  12.805  10.368  0.00  0.00    -0.267 OA
BRANCH  20  23
HETATM   23  C   UNK N   1      36.068  13.918  13.319  0.00  0.00     0.167 C 
BRANCH  23  24
HETATM   24  C   UNK N   1      35.579  12.881  14.273  0.00  0.00     0.037 A 
HETATM   25  C   UNK N   1      35.972  12.903  15.622  0.00  0.00     0.130 A 
HETATM   26  C   UNK N   1      35.508  11.919  16.498  0.00  0.00     0.085 A 
HETATM   27  F   UNK N   1      36.799  13.873  16.087  0.00  0.00    -0.205 F 
HETATM   28  C   UNK N   1      34.661  10.909  16.034  0.00  0.00     0.122 A 
HETATM   29  C   UNK N   1      34.283  10.874  14.691  0.00  0.00     0.085 A 
HETATM   30  F   UNK N   1      34.212   9.959  16.887  0.00  0.00    -0.206 F 
HETATM   31  C   UNK N   1      34.741  11.855  13.809  0.00  0.00     0.130 A 
HETATM   32  F   UNK N   1      34.380  11.795  12.502  0.00  0.00    -0.205 F 
ENDBRANCH  23  24
ENDBRANCH  20  23
ENDBRANCH   1  19
BRANCH   5  33
HETATM   33  O   UNK N   1      35.222  17.884   9.735  0.00  0.00    -0.355 OA
HETATM   34  H   UNK N   1      35.389  18.342   8.935  0.00  0.00     0.218 HD
ENDBRANCH   5  33
TORSDOF 4
ENDMDL
MODEL 3
REMARK VINA RESULT:      -8.5      1.526      2.358
REMARK  4 active torsions:
REMARK  status: ('A' for Active; 'I' for Inactive)
REMARK    1  A    between atoms: C_5  and  C_8 
REMARK    2  A    between atoms: C_8  and  N_9 
REMARK       I    between atoms: N_9  and  C_10 
REMARK    3  A    between atoms: C_10  and  C_12 
REMARK    4  A    between atoms: C_16  and  O_19 
ROOT
HETATM    1  C   UNK N   1      35.703  12.584  10.875  0.00  0.00     0.100 A 
HETATM    2  C   UNK N   1      34.520  12.761  10.170  0.00  0.00     0.113 A 
HETATM    3  N   UNK N   1      34.117  13.989   9.757  0.00  0.00    -0.345 N 
HETATM    4  C   UNK N   1      34.880  15.102   9.993  0.00  0.00     0.141 A 
HETATM    5  C   UNK N   1      36.104  14.967  10.694  0.00  0.00     0.150 A 
HETATM    6  C   UNK N   1      36.508  13.703  11.136  0.00  0.00     0.224 A 
HETATM    7  O   UNK N   1      37.580  13.574  11.703  0.00  0.00    -0.284 OA
HETATM    8  C   UNK N   1      34.431  16.417   9.474  0.00  0.00     0.276 A 
HETATM    9  O   UNK N   1      35.115  17.415   9.667  0.00  0.00    -0.266 OA
HETATM   10  N   UNK N   1      33.291  16.516   8.735  0.00  0.00    -0.313 N 
HETATM   11  C   UNK N   1      32.946  17.771   8.072  0.00  0.00     0.092 C 
HETATM   12  C   UNK N   1      33.902  17.931   6.896  0.00  0.00     0.028 C 
HETATM   13  C   UNK N   1      33.370  16.965   5.833  0.00  0.00     0.034 C 
HETATM   14  C   UNK N   1      32.036  16.463   6.378  0.00  0.00     0.126 C 
HETATM   15  C   UNK N   1      31.634  17.591   7.328  0.00  0.00     0.057 C 
HETATM   16  O   UNK N   1      32.251  15.213   7.047  0.00  0.00    -0.359 OA
HETATM   17  C   UNK N   1      32.437  15.367   8.450  0.00  0.00     0.245 A 
HETATM   18  C   UNK N   1      32.837  14.032   9.064  0.00  0.00     0.182 A 
ENDROOT
BRANCH   1  19
HETATM   19  C   UNK N   1      36.081  11.214  11.291  0.00  0.00     0.257 C 
HETATM   20  N   UNK N   1      35.539  10.616  12.380  0.00  0.00    -0.352 N 
HETATM   21  H   UNK N   1      35.933   9.771  12.697  0.00  0.00     0.163 HD
HETATM   22  O   UNK N   1      36.836  10.569  10.580  0.00  0.00    -0.267 OA
BRANCH  20  23
HETATM   23  C   UNK N   1      34.408  11.160  13.097  0.00  0.00     0.167 C 
BRANCH  23  24
HETATM   24  C   UNK N   1      34.751  11.469  14.516  0.00  0.00     0.037 A 
HETATM   25  C   UNK N   1      35.052  12.783  14.914  0.00  0.00     0.130 A 
HETATM   26  C   UNK N   1      35.376  13.049  16.246  0.00  0.00     0.085 A 
HETATM   27  F   UNK N   1      35.030  13.801  14.016  0.00  0.00    -0.205 F 
HETATM   28  C   UNK N   1      35.409  12.012  17.181  0.00  0.00     0.122 A 
HETATM   29  C   UNK N   1      35.128  10.703  16.786  0.00  0.00     0.085 A 
HETATM   30  F   UNK N   1      35.722  12.275  18.472  0.00  0.00    -0.206 F 
HETATM   31  C   UNK N   1      34.802  10.428  15.457  0.00  0.00     0.130 A 
HETATM   32  F   UNK N   1      34.550   9.148  15.085  0.00  0.00    -0.205 F 
ENDBRANCH  23  24
ENDBRANCH  20  23
ENDBRANCH   1  19
BRANCH   5  33
HETATM   33  O   UNK N   1      36.895  16.033  10.924  0.00  0.00    -0.355 OA
HETATM   34  H   UNK N   1      36.806  16.544  11.705  0.00  0.00     0.218 HD
ENDBRANCH   5  33
TORSDOF 4
ENDMDL
MODEL 4
REMARK VINA RESULT:      -8.4      3.561      8.299
REMARK  4 active torsions:
REMARK  status: ('A' for Active; 'I' for Inactive)
REMARK    1  A    between atoms: C_5  and  C_8 
REMARK    2  A    between atoms: C_8  and  N_9 
REMARK       I    between atoms: N_9  and  C_10 
REMARK    3  A    between atoms: C_10  and  C_12 
REMARK    4  A    between atoms: C_16  and  O_19 
ROOT
HETATM    1  C   UNK N   1      33.762  16.076   6.678  0.00  0.00     0.100 A 
HETATM    2  C   UNK N   1      34.148  14.797   7.054  0.00  0.00     0.113 A 
HETATM    3  N   UNK N   1      34.899  14.580   8.163  0.00  0.00    -0.345 N 
HETATM    4  C   UNK N   1      35.279  15.616   8.975  0.00  0.00     0.141 A 
HETATM    5  C   UNK N   1      34.893  16.937   8.640  0.00  0.00     0.150 A 
HETATM    6  C   UNK N   1      34.136  17.161   7.485  0.00  0.00     0.224 A 
HETATM    7  O   UNK N   1      33.765  18.290   7.214  0.00  0.00    -0.284 OA
HETATM    8  C   UNK N   1      36.049  15.329  10.211  0.00  0.00     0.276 A 
HETATM    9  O   UNK N   1      36.381  16.248  10.950  0.00  0.00    -0.266 OA
HETATM   10  N   UNK N   1      36.345  14.046  10.558  0.00  0.00    -0.313 N 
HETATM   11  C   UNK N   1      36.941  13.751  11.859  0.00  0.00     0.092 C 
HETATM   12  C   UNK N   1      35.847  13.942  12.903  0.00  0.00     0.028 C 
HETATM   13  C   UNK N   1      34.968  12.695  12.773  0.00  0.00     0.034 C 
HETATM   14  C   UNK N   1      35.716  11.774  11.814  0.00  0.00     0.126 C 
HETATM   15  C   UNK N   1      37.160  12.252  11.972  0.00  0.00     0.057 C 
HETATM   16  O   UNK N   1      35.201  11.969  10.490  0.00  0.00    -0.359 OA
HETATM   17  C   UNK N   1      35.967  12.901   9.735  0.00  0.00     0.245 A 
HETATM   18  C   UNK N   1      35.264  13.193   8.416  0.00  0.00     0.182 A 
ENDROOT
BRANCH   1  19
HETATM   19  C   UNK N   1      32.940  16.237   5.456  0.00  0.00     0.257 C 
HETATM   20  N   UNK N   1      31.615  15.950   5.437  0.00  0.00    -0.352 N 
HETATM   21  H   UNK N   1      31.152  15.930   4.568  0.00  0.00     0.163 HD
HETATM   22  O   UNK N   1      33.450  16.729   4.462  0.00  0.00    -0.267 OA
BRANCH  20  23
HETATM   23  C   UNK N   1      30.851  15.673   6.632  0.00  0.00     0.167 C 
BRANCH  23  24
HETATM   24  C   UNK N   1      29.942  16.804   6.981  0.00  0.00     0.037 A 
HETATM   25  C   UNK N   1      30.174  17.587   8.126  0.00  0.00     0.130 A 
HETATM   26  C   UNK N   1      29.309  18.637   8.438  0.00  0.00     0.085 A 
HETATM   27  F   UNK N   1      31.235  17.334   8.934  0.00  0.00    -0.205 F 
HETATM   28  C   UNK N   1      28.209  18.906   7.620  0.00  0.00     0.122 A 
HETATM   29  C   UNK N   1      27.965  18.120   6.492  0.00  0.00     0.085 A 
HETATM   30  F   UNK N   1      27.373  19.927   7.925  0.00  0.00    -0.206 F 
HETATM   31  C   UNK N   1      28.826  17.069   6.172  0.00  0.00     0.130 A 
HETATM   32  F   UNK N   1      28.564  16.302   5.084  0.00  0.00    -0.205 F 
ENDBRANCH  23  24
ENDBRANCH  20  23
ENDBRANCH   1  19
BRANCH   5  33
HETATM   33  O   UNK N   1      35.225  17.980   9.425  0.00  0.00    -0.355 OA
HETATM   34  H   UNK N   1      36.032  17.991   9.902  0.00  0.00     0.218 HD
ENDBRANCH   5  33
TORSDOF 4
ENDMDL
MODEL 5
REMARK VINA RESULT:      -8.3     11.328     15.665
REMARK  4 active torsions:
REMARK  status: ('A' for Active; 'I' for Inactive)
REMARK    1  A    between atoms: C_5  and  C_8 
REMARK    2  A    between atoms: C_8  and  N_9 
REMARK       I    between atoms: N_9  and  C_10 
REMARK    3  A    between atoms: C_10  and  C_12 
REMARK    4  A    between atoms: C_16  and  O_19 
ROOT
HETATM    1  C   UNK N   1      21.137  17.782   3.530  0.00  0.00     0.100 A 
HETATM    2  C   UNK N   1      22.348  17.214   3.898  0.00  0.00     0.113 A 
HETATM    3  N   UNK N   1      23.506  17.919   3.854  0.00  0.00    -0.345 N 
HETATM    4  C   UNK N   1      23.520  19.235   3.472  0.00  0.00     0.141 A 
HETATM    5  C   UNK N   1      22.304  19.862   3.104  0.00  0.00     0.150 A 
HETATM    6  C   UNK N   1      21.114  19.127   3.131  0.00  0.00     0.224 A 
HETATM    7  O   UNK N   1      20.059  19.673   2.857  0.00  0.00    -0.284 OA
HETATM    8  C   UNK N   1      24.798  19.988   3.494  0.00  0.00     0.276 A 
HETATM    9  O   UNK N   1      24.817  21.168   3.169  0.00  0.00    -0.266 OA
HETATM   10  N   UNK N   1      25.944  19.390   3.925  0.00  0.00    -0.313 N 
HETATM   11  C   UNK N   1      27.160  20.177   4.118  0.00  0.00     0.092 C 
HETATM   12  C   UNK N   1      26.950  21.020   5.370  0.00  0.00     0.028 C 
HETATM   13  C   UNK N   1      27.132  20.039   6.532  0.00  0.00     0.034 C 
HETATM   14  C   UNK N   1      27.633  18.748   5.892  0.00  0.00     0.126 C 
HETATM   15  C   UNK N   1      28.270  19.258   4.599  0.00  0.00     0.057 C 
HETATM   16  O   UNK N   1      26.514  17.881   5.663  0.00  0.00    -0.359 OA
HETATM   17  C   UNK N   1      25.993  17.993   4.344  0.00  0.00     0.245 A 
HETATM   18  C   UNK N   1      24.707  17.186   4.230  0.00  0.00     0.182 A 
ENDROOT
BRANCH   1  19
HETATM   19  C   UNK N   1      19.912  16.952   3.607  0.00  0.00     0.257 C 
HETATM   20  N   UNK N   1      19.436  16.269   2.537  0.00  0.00    -0.352 N 
HETATM   21  H   UNK N   1      18.543  15.859   2.601  0.00  0.00     0.163 HD
HETATM   22  O   UNK N   1      19.367  16.805   4.690  0.00  0.00    -0.267 OA
BRANCH  20  23
HETATM   23  C   UNK N   1      20.178  16.116   1.306  0.00  0.00     0.167 C 
BRANCH  23  24
HETATM   24  C   UNK N   1      20.479  14.684   1.018  0.00  0.00     0.037 A 
HETATM   25  C   UNK N   1      19.450  13.782   0.698  0.00  0.00     0.130 A 
HETATM   26  C   UNK N   1      19.752  12.444   0.437  0.00  0.00     0.085 A 
HETATM   27  F   UNK N   1      18.159  14.198   0.637  0.00  0.00    -0.205 F 
HETATM   28  C   UNK N   1      21.074  11.998   0.501  0.00  0.00     0.122 A 
HETATM   29  C   UNK N   1      22.098  12.887   0.836  0.00  0.00     0.085 A 
HETATM   30  F   UNK N   1      21.364  10.701   0.246  0.00  0.00    -0.206 F 
HETATM   31  C   UNK N   1      21.804  14.227   1.096  0.00  0.00     0.130 A 
HETATM   32  F   UNK N   1      22.808  15.073   1.439  0.00  0.00    -0.205 F 
ENDBRANCH  23  24
ENDBRANCH  20  23
ENDBRANCH   1  19
BRANCH   5  33
HETATM   33  O   UNK N   1      22.271  21.161   2.747  0.00  0.00    -0.355 OA
HETATM   34  H   UNK N   1      21.777  21.787   3.240  0.00  0.00     0.218 HD
ENDBRANCH   5  33
TORSDOF 4
ENDMDL
MODEL 6
REMARK VINA RESULT:      -8.3      4.487      9.442
REMARK  4 active torsions:
REMARK  status: ('A' for Active; 'I' for Inactive)
REMARK    1  A    between atoms: C_5  and  C_8 
REMARK    2  A    between atoms: C_8  and  N_9 
REMARK       I    between atoms: N_9  and  C_10 
REMARK    3  A    between atoms: C_10  and  C_12 
REMARK    4  A    between atoms: C_16  and  O_19 
ROOT
HETATM    1  C   UNK N   1      31.935  16.488   5.480  0.00  0.00     0.100 A 
HETATM    2  C   UNK N   1      32.544  17.082   6.578  0.00  0.00     0.113 A 
HETATM    3  N   UNK N   1      32.972  16.348   7.634  0.00  0.00    -0.345 N 
HETATM    4  C   UNK N   1      32.850  14.983   7.646  0.00  0.00     0.141 A 
HETATM    5  C   UNK N   1      32.252  14.332   6.539  0.00  0.00     0.150 A 
HETATM    6  C   UNK N   1      31.792  15.092   5.459  0.00  0.00     0.224 A 
HETATM    7  O   UNK N   1      31.314  14.535   4.486  0.00  0.00    -0.284 OA
HETATM    8  C   UNK N   1      33.386  14.212   8.795  0.00  0.00     0.276 A 
HETATM    9  O   UNK N   1      33.294  12.991   8.807  0.00  0.00    -0.266 OA
HETATM   10  N   UNK N   1      34.028  14.848   9.814  0.00  0.00    -0.313 N 
HETATM   11  C   UNK N   1      34.712  14.079  10.851  0.00  0.00     0.092 C 
HETATM   12  C   UNK N   1      35.971  13.500  10.218  0.00  0.00     0.028 C 
HETATM   13  C   UNK N   1      36.942  14.681  10.140  0.00  0.00     0.034 C 
HETATM   14  C   UNK N   1      36.264  15.810  10.912  0.00  0.00     0.126 C 
HETATM   15  C   UNK N   1      35.333  15.041  11.850  0.00  0.00     0.057 C 
HETATM   16  O   UNK N   1      35.563  16.648   9.984  0.00  0.00    -0.359 OA
HETATM   17  C   UNK N   1      34.189  16.298   9.859  0.00  0.00     0.245 A 
HETATM   18  C   UNK N   1      33.555  17.105   8.733  0.00  0.00     0.182 A 
ENDROOT
BRANCH   1  19
HETATM   19  C   UNK N   1      31.495  17.352   4.360  0.00  0.00     0.257 C 
HETATM   20  N   UNK N   1      30.184  17.558   4.081  0.00  0.00    -0.352 N 
HETATM   21  H   UNK N   1      29.949  18.014   3.242  0.00  0.00     0.163 HD
HETATM   22  O   UNK N   1      32.336  17.970   3.726  0.00  0.00    -0.267 OA
BRANCH  20  23
HETATM   23  C   UNK N   1      29.116  17.139   4.960  0.00  0.00     0.167 C 
BRANCH  23  24
HETATM   24  C   UNK N   1      28.422  18.304   5.581  0.00  0.00     0.037 A 
HETATM   25  C   UNK N   1      27.680  19.202   4.795  0.00  0.00     0.130 A 
HETATM   26  C   UNK N   1      27.042  20.290   5.394  0.00  0.00     0.085 A 
HETATM   27  F   UNK N   1      27.573  19.023   3.453  0.00  0.00    -0.205 F 
HETATM   28  C   UNK N   1      27.147  20.492   6.772  0.00  0.00     0.122 A 
HETATM   29  C   UNK N   1      27.898  19.612   7.555  0.00  0.00     0.085 A 
HETATM   30  F   UNK N   1      26.526  21.547   7.350  0.00  0.00    -0.206 F 
HETATM   31  C   UNK N   1      28.537  18.521   6.963  0.00  0.00     0.130 A 
HETATM   32  F   UNK N   1      29.279  17.686   7.734  0.00  0.00    -0.205 F 
ENDBRANCH  23  24
ENDBRANCH  20  23
ENDBRANCH   1  19
BRANCH   5  33
HETATM   33  O   UNK N   1      32.136  12.990   6.500  0.00  0.00    -0.355 OA
HETATM   34  H   UNK N   1      32.388  12.503   5.740  0.00  0.00     0.218 HD
ENDBRANCH   5  33
TORSDOF 4
ENDMDL
MODEL 7
REMARK VINA RESULT:      -8.0     17.184     19.572
REMARK  4 active torsions:
REMARK  status: ('A' for Active; 'I' for Inactive)
REMARK    1  A    between atoms: C_5  and  C_8 
REMARK    2  A    between atoms: C_8  and  N_9 
REMARK       I    between atoms: N_9  and  C_10 
REMARK    3  A    between atoms: C_10  and  C_12 
REMARK    4  A    between atoms: C_16  and  O_19 
ROOT
HETATM    1  C   UNK N   1      31.315  23.023  -4.337  0.00  0.00     0.100 A 
HETATM    2  C   UNK N   1      30.639  23.738  -5.316  0.00  0.00     0.113 A 
HETATM    3  N   UNK N   1      29.380  24.200  -5.115  0.00  0.00    -0.345 N 
HETATM    4  C   UNK N   1      28.736  24.006  -3.921  0.00  0.00     0.141 A 
HETATM    5  C   UNK N   1      29.394  23.297  -2.886  0.00  0.00     0.150 A 
HETATM    6  C   UNK N   1      30.685  22.803  -3.102  0.00  0.00     0.224 A 
HETATM    7  O   UNK N   1      31.272  22.229  -2.202  0.00  0.00    -0.284 OA
HETATM    8  C   UNK N   1      27.382  24.579  -3.721  0.00  0.00     0.276 A 
HETATM    9  O   UNK N   1      26.805  24.423  -2.652  0.00  0.00    -0.266 OA
HETATM   10  N   UNK N   1      26.796  25.324  -4.699  0.00  0.00    -0.313 N 
HETATM   11  C   UNK N   1      25.547  26.037  -4.437  0.00  0.00     0.092 C 
HETATM   12  C   UNK N   1      25.890  27.216  -3.534  0.00  0.00     0.028 C 
HETATM   13  C   UNK N   1      26.540  28.241  -4.467  0.00  0.00     0.034 C 
HETATM   14  C   UNK N   1      26.350  27.681  -5.874  0.00  0.00     0.126 C 
HETATM   15  C   UNK N   1      25.129  26.778  -5.696  0.00  0.00     0.057 C 
HETATM   16  O   UNK N   1      27.532  26.962  -6.248  0.00  0.00    -0.359 OA
HETATM   17  C   UNK N   1      27.430  25.566  -5.991  0.00  0.00     0.245 A 
HETATM   18  C   UNK N   1      28.776  24.898  -6.241  0.00  0.00     0.182 A 
ENDROOT
BRANCH   1  19
HETATM   19  C   UNK N   1      32.690  22.552  -4.626  0.00  0.00     0.257 C 
HETATM   20  N   UNK N   1      32.976  21.241  -4.820  0.00  0.00    -0.352 N 
HETATM   21  H   UNK N   1      33.921  20.968  -4.857  0.00  0.00     0.163 HD
HETATM   22  O   UNK N   1      33.575  23.378  -4.784  0.00  0.00    -0.267 OA
BRANCH  20  23
HETATM   23  C   UNK N   1      31.958  20.226  -4.974  0.00  0.00     0.167 C 
BRANCH  23  24
HETATM   24  C   UNK N   1      31.563  20.053  -6.401  0.00  0.00     0.037 A 
HETATM   25  C   UNK N   1      30.266  20.382  -6.834  0.00  0.00     0.130 A 
HETATM   26  C   UNK N   1      29.914  20.208  -8.174  0.00  0.00     0.085 A 
HETATM   27  F   UNK N   1      29.349  20.871  -5.961  0.00  0.00    -0.205 F 
HETATM   28  C   UNK N   1      30.844  19.699  -9.083  0.00  0.00     0.122 A 
HETATM   29  C   UNK N   1      32.128  19.355  -8.654  0.00  0.00     0.085 A 
HETATM   30  F   UNK N   1      30.500  19.534 -10.382  0.00  0.00    -0.206 F 
HETATM   31  C   UNK N   1      32.489  19.528  -7.317  0.00  0.00     0.130 A 
HETATM   32  F   UNK N   1      33.733  19.170  -6.912  0.00  0.00    -0.205 F 
ENDBRANCH  23  24
ENDBRANCH  20  23
ENDBRANCH   1  19
BRANCH   5  33
HETATM   33  O   UNK N   1      28.805  23.106  -1.689  0.00  0.00    -0.355 OA
HETATM   34  H   UNK N   1      28.765  22.255  -1.298  0.00  0.00     0.218 HD
ENDBRANCH   5  33
TORSDOF 4
ENDMDL
MODEL 8
REMARK VINA RESULT:      -8.0     16.990     20.293
REMARK  4 active torsions:
REMARK  status: ('A' for Active; 'I' for Inactive)
REMARK    1  A    between atoms: C_5  and  C_8 
REMARK    2  A    between atoms: C_8  and  N_9 
REMARK       I    between atoms: N_9  and  C_10 
REMARK    3  A    between atoms: C_10  and  C_12 
REMARK    4  A    between atoms: C_16  and  O_19 
ROOT
HETATM    1  C   UNK N   1      27.320  23.706  -5.201  0.00  0.00     0.100 A 
HETATM    2  C   UNK N   1      28.351  23.318  -6.046  0.00  0.00     0.113 A 
HETATM    3  N   UNK N   1      29.597  23.064  -5.575  0.00  0.00    -0.345 N 
HETATM    4  C   UNK N   1      29.880  23.149  -4.237  0.00  0.00     0.141 A 
HETATM    5  C   UNK N   1      28.855  23.524  -3.335  0.00  0.00     0.150 A 
HETATM    6  C   UNK N   1      27.575  23.806  -3.825  0.00  0.00     0.224 A 
HETATM    7  O   UNK N   1      26.678  24.087  -3.049  0.00  0.00    -0.284 OA
HETATM    8  C   UNK N   1      31.241  22.806  -3.756  0.00  0.00     0.276 A 
HETATM    9  O   UNK N   1      31.499  22.865  -2.560  0.00  0.00    -0.266 OA
HETATM   10  N   UNK N   1      32.193  22.372  -4.629  0.00  0.00    -0.313 N 
HETATM   11  C   UNK N   1      33.471  21.863  -4.136  0.00  0.00     0.092 C 
HETATM   12  C   UNK N   1      33.196  20.496  -3.520  0.00  0.00     0.028 C 
HETATM   13  C   UNK N   1      33.031  19.559  -4.720  0.00  0.00     0.034 C 
HETATM   14  C   UNK N   1      33.419  20.393  -5.938  0.00  0.00     0.126 C 
HETATM   15  C   UNK N   1      34.329  21.455  -5.321  0.00  0.00     0.057 C 
HETATM   16  O   UNK N   1      32.228  20.941  -6.519  0.00  0.00    -0.359 OA
HETATM   17  C   UNK N   1      31.953  22.260  -6.064  0.00  0.00     0.245 A 
HETATM   18  C   UNK N   1      30.590  22.706  -6.579  0.00  0.00     0.182 A 
ENDROOT
BRANCH   1  19
HETATM   19  C   UNK N   1      25.984  23.963  -5.786  0.00  0.00     0.257 C 
HETATM   20  N   UNK N   1      25.652  25.163  -6.324  0.00  0.00    -0.352 N 
HETATM   21  H   UNK N   1      24.710  25.327  -6.559  0.00  0.00     0.163 HD
HETATM   22  O   UNK N   1      25.188  23.041  -5.868  0.00  0.00    -0.267 OA
BRANCH  20  23
HETATM   23  C   UNK N   1      26.617  26.211  -6.569  0.00  0.00     0.167 C 
BRANCH  23  24
HETATM   24  C   UNK N   1      26.811  27.074  -5.368  0.00  0.00     0.037 A 
HETATM   25  C   UNK N   1      25.733  27.782  -4.808  0.00  0.00     0.130 A 
HETATM   26  C   UNK N   1      25.938  28.588  -3.686  0.00  0.00     0.085 A 
HETATM   27  F   UNK N   1      24.490  27.689  -5.345  0.00  0.00    -0.205 F 
HETATM   28  C   UNK N   1      27.212  28.699  -3.125  0.00  0.00     0.122 A 
HETATM   29  C   UNK N   1      28.288  28.012  -3.689  0.00  0.00     0.085 A 
HETATM   30  F   UNK N   1      27.405  29.481  -2.037  0.00  0.00    -0.206 F 
HETATM   31  C   UNK N   1      28.093  27.202  -4.809  0.00  0.00     0.130 A 
HETATM   32  F   UNK N   1      29.153  26.556  -5.356  0.00  0.00    -0.205 F 
ENDBRANCH  23  24
ENDBRANCH  20  23
ENDBRANCH   1  19
BRANCH   5  33
HETATM   33  O   UNK N   1      29.085  23.595  -2.009  0.00  0.00    -0.355 OA
HETATM   34  H   UNK N   1      29.846  24.027  -1.672  0.00  0.00     0.218 HD
ENDBRANCH   5  33
TORSDOF 4
ENDMDL
MODEL 9
REMARK VINA RESULT:      -7.8      3.455      5.505
REMARK  4 active torsions:
REMARK  status: ('A' for Active; 'I' for Inactive)
REMARK    1  A    between atoms: C_5  and  C_8 
REMARK    2  A    between atoms: C_8  and  N_9 
REMARK       I    between atoms: N_9  and  C_10 
REMARK    3  A    between atoms: C_10  and  C_12 
REMARK    4  A    between atoms: C_16  and  O_19 
ROOT
HETATM    1  C   UNK N   1      33.124  17.797   7.538  0.00  0.00     0.100 A 
HETATM    2  C   UNK N   1      31.798  17.896   7.934  0.00  0.00     0.113 A 
HETATM    3  N   UNK N   1      30.780  17.664   7.068  0.00  0.00    -0.345 N 
HETATM    4  C   UNK N   1      31.023  17.291   5.773  0.00  0.00     0.141 A 
HETATM    5  C   UNK N   1      32.362  17.160   5.329  0.00  0.00     0.150 A 
HETATM    6  C   UNK N   1      33.411  17.419   6.218  0.00  0.00     0.224 A 
HETATM    7  O   UNK N   1      34.564  17.268   5.854  0.00  0.00    -0.284 OA
HETATM    8  C   UNK N   1      29.881  16.989   4.874  0.00  0.00     0.276 A 
HETATM    9  O   UNK N   1      30.089  16.640   3.718  0.00  0.00    -0.266 OA
HETATM   10  N   UNK N   1      28.602  17.044   5.340  0.00  0.00    -0.313 N 
HETATM   11  C   UNK N   1      27.493  16.574   4.513  0.00  0.00     0.092 C 
HETATM   12  C   UNK N   1      27.577  15.053   4.481  0.00  0.00     0.028 C 
HETATM   13  C   UNK N   1      27.041  14.608   5.845  0.00  0.00     0.034 C 
HETATM   14  C   UNK N   1      26.496  15.877   6.495  0.00  0.00     0.126 C 
HETATM   15  C   UNK N   1      26.195  16.755   5.280  0.00  0.00     0.057 C 
HETATM   16  O   UNK N   1      27.506  16.427   7.350  0.00  0.00    -0.359 OA
HETATM   17  C   UNK N   1      28.280  17.435   6.708  0.00  0.00     0.245 A 
HETATM   18  C   UNK N   1      29.439  17.843   7.608  0.00  0.00     0.182 A 
ENDROOT
BRANCH   1  19
HETATM   19  C   UNK N   1      34.184  18.061   8.540  0.00  0.00     0.257 C 
HETATM   20  N   UNK N   1      34.510  17.159   9.498  0.00  0.00    -0.352 N 
HETATM   21  H   UNK N   1      35.110  17.443  10.225  0.00  0.00     0.163 HD
HETATM   22  O   UNK N   1      34.846  19.082   8.443  0.00  0.00    -0.267 OA
BRANCH  20  23
HETATM   23  C   UNK N   1      34.017  15.800   9.503  0.00  0.00     0.167 C 
BRANCH  23  24
HETATM   24  C   UNK N   1      35.119  14.813   9.688  0.00  0.00     0.037 A 
HETATM   25  C   UNK N   1      35.895  14.387   8.596  0.00  0.00     0.130 A 
HETATM   26  C   UNK N   1      36.919  13.459   8.789  0.00  0.00     0.085 A 
HETATM   27  F   UNK N   1      35.660  14.871   7.349  0.00  0.00    -0.205 F 
HETATM   28  C   UNK N   1      37.170  12.945  10.064  0.00  0.00     0.122 A 
HETATM   29  C   UNK N   1      36.390  13.353  11.149  0.00  0.00     0.085 A 
HETATM   30  F   UNK N   1      38.165  12.047  10.248  0.00  0.00    -0.206 F 
HETATM   31  C   UNK N   1      35.365  14.283  10.964  0.00  0.00     0.130 A 
HETATM   32  F   UNK N   1      34.605  14.654  12.025  0.00  0.00    -0.205 F 
ENDBRANCH  23  24
ENDBRANCH  20  23
ENDBRANCH   1  19
BRANCH   5  33
HETATM   33  O   UNK N   1      32.643  16.771   4.070  0.00  0.00    -0.355 OA
HETATM   34  H   UNK N   1      33.058  17.353   3.463  0.00  0.00     0.218 HD
ENDBRANCH   5  33
TORSDOF 4
ENDMDL
