MODEL 1
REMARK VINA RESULT:      -8.6      0.000      0.000
REMARK  9 active torsions:
REMARK  status: ('A' for Active; 'I' for Inactive)
REMARK    1  A    between atoms: N_2  and  C_4 
REMARK    2  A    between atoms: C_4  and  C_5 
REMARK    3  A    between atoms: N_9  and  C_37 
REMARK    4  A    between atoms: N_12  and  C_28 
REMARK    5  A    between atoms: C_15  and  C_16 
REMARK    6  A    between atoms: C_19  and  N_22 
REMARK       I    between atoms: N_22  and  C_23 
REMARK       I    between atoms: C_23  and  N_25 
REMARK    7  A    between atoms: N_25  and  O_26 
REMARK    8  A    between atoms: C_28  and  C_29 
REMARK    9  A    between atoms: C_40  and  O_45 
ROOT
HETATM    1  C   UNK N   1      30.151  16.937   6.699  0.00  0.00     0.006 A 
HETATM    2  C   UNK N   1      31.412  16.287   6.850  0.00  0.00     0.076 A 
HETATM    3  C   UNK N   1      31.984  15.843   8.030  0.00  0.00     0.271 A 
HETATM    4  O   UNK N   1      31.376  15.979   9.078  0.00  0.00    -0.266 OA
HETATM    5  N   UNK N   1      33.247  15.254   8.004  0.00  0.00    -0.212 N 
HETATM    6  C   UNK N   1      33.902  15.097   6.770  0.00  0.00     0.338 A 
HETATM    7  O   UNK N   1      35.003  14.581   6.734  0.00  0.00    -0.246 OA
HETATM    8  N   UNK N   1      33.326  15.561   5.589  0.00  0.00    -0.287 N 
HETATM    9  C   UNK N   1      32.102  16.137   5.667  0.00  0.00     0.097 A 
HETATM   10  S   UNK N   1      31.189  16.794   4.448  0.00  0.00    -0.070 SA
HETATM   11  C   UNK N   1      29.871  17.265   5.350  0.00  0.00     0.026 A 
ENDROOT
BRANCH  11  12
HETATM   12  C   UNK N   1      28.647  17.875   4.819  0.00  0.00    -0.018 A 
HETATM   13  C   UNK N   1      27.572  17.089   4.376  0.00  0.00     0.015 A 
HETATM   14  C   UNK N   1      26.435  17.701   3.836  0.00  0.00     0.030 A 
HETATM   15  C   UNK N   1      26.364  19.099   3.755  0.00  0.00     0.036 A 
HETATM   16  C   UNK N   1      27.423  19.867   4.251  0.00  0.00     0.030 A 
HETATM   17  C   UNK N   1      28.544  19.262   4.778  0.00  0.00     0.015 A 
BRANCH  15  18
HETATM   18  N   UNK N   1      25.307  19.700   3.021  0.00  0.00    -0.307 N 
HETATM   19  C   UNK N   1      24.011  19.716   3.439  0.00  0.00     0.344 C 
HETATM   20  O   UNK N   1      23.669  19.133   4.460  0.00  0.00    -0.245 OA
HETATM   21  N   UNK N   1      23.116  20.488   2.790  0.00  0.00    -0.217 N 
HETATM   22  H   UNK N   1      23.371  20.931   1.949  0.00  0.00     0.199 HD
HETATM   23  H   UNK N   1      25.523  20.129   2.161  0.00  0.00     0.170 HD
BRANCH  21  24
HETATM   24  O   UNK N   1      21.878  20.656   3.282  0.00  0.00    -0.281 OA
HETATM   25  C   UNK N   1      21.038  20.614   2.161  0.00  0.00     0.237 C 
ENDBRANCH  21  24
ENDBRANCH  15  18
ENDBRANCH  11  12
BRANCH   1  26
HETATM   26  C   UNK N   1      29.248  17.247   7.867  0.00  0.00     0.312 C 
BRANCH  26  27
HETATM   27  N   UNK N   1      29.340  18.656   8.237  0.00  0.00     0.084 N 
HETATM   28  C   UNK N   1      29.780  18.737   9.621  0.00  0.00     0.309 C 
HETATM   29  C   UNK N   1      27.994  19.200   8.208  0.00  0.00     0.309 C 
ENDBRANCH  26  27
ENDBRANCH   1  26
BRANCH   8  30
HETATM   30  C   UNK N   1      34.004  15.585   4.274  0.00  0.00     0.179 C 
BRANCH  30  31
HETATM   31  C   UNK N   1      34.124  14.294   3.513  0.00  0.00     0.037 A 
HETATM   32  C   UNK N   1      33.013  13.791   2.811  0.00  0.00     0.127 A 
HETATM   33  C   UNK N   1      33.101  12.569   2.141  0.00  0.00     0.043 A 
HETATM   34  F   UNK N   1      31.841  14.478   2.790  0.00  0.00    -0.205 F 
HETATM   35  C   UNK N   1      34.284  11.832   2.182  0.00  0.00     0.006 A 
HETATM   36  C   UNK N   1      35.380  12.309   2.905  0.00  0.00     0.043 A 
HETATM   37  C   UNK N   1      35.305  13.536   3.572  0.00  0.00     0.127 A 
HETATM   38  F   UNK N   1      36.368  13.969   4.294  0.00  0.00    -0.205 F 
ENDBRANCH  30  31
ENDBRANCH   8  30
BRANCH   5  39
HETATM   39  C   UNK N   1      33.899  14.907   9.273  0.00  0.00     0.133 A 
HETATM   40  C   UNK N   1      34.591  15.858  10.037  0.00  0.00     0.055 A 
HETATM   41  C   UNK N   1      35.053  15.525  11.306  0.00  0.00     0.061 A 
HETATM   42  C   UNK N   1      34.803  14.253  11.808  0.00  0.00     0.156 A 
HETATM   43  N   UNK N   1      34.158  13.346  11.029  0.00  0.00    -0.278 N 
HETATM   44  N   UNK N   1      33.726  13.663   9.809  0.00  0.00    -0.283 N 
ATOM     45  HN  UNK N   1      34.000  12.403  11.385  1.00  0.00     0.189 HD
ATOM     46  HN  UNK N   1      33.250  12.951   9.256  1.00  0.00     0.188 HD
BRANCH  42  47
HETATM   47  O   UNK N   1      35.176  13.944  13.068  0.00  0.00    -0.340 OA
HETATM   48  C   UNK N   1      36.403  14.300  13.576  0.00  0.00     0.211 C 
ENDBRANCH  42  47
ENDBRANCH   5  39
TORSDOF 9
ENDMDL
MODEL 2
REMARK VINA RESULT:      -8.6      0.206      1.274
REMARK  9 active torsions:
REMARK  status: ('A' for Active; 'I' for Inactive)
REMARK    1  A    between atoms: N_2  and  C_4 
REMARK    2  A    between atoms: C_4  and  C_5 
REMARK    3  A    between atoms: N_9  and  C_37 
REMARK    4  A    between atoms: N_12  and  C_28 
REMARK    5  A    between atoms: C_15  and  C_16 
REMARK    6  A    between atoms: C_19  and  N_22 
REMARK       I    between atoms: N_22  and  C_23 
REMARK       I    between atoms: C_23  and  N_25 
REMARK    7  A    between atoms: N_25  and  O_26 
REMARK    8  A    between atoms: C_28  and  C_29 
REMARK    9  A    between atoms: C_40  and  O_45 
ROOT
HETATM    1  C   UNK N   1      30.157  16.899   6.769  0.00  0.00     0.006 A 
HETATM    2  C   UNK N   1      31.432  16.275   6.916  0.00  0.00     0.076 A 
HETATM    3  C   UNK N   1      32.024  15.858   8.096  0.00  0.00     0.271 A 
HETATM    4  O   UNK N   1      31.423  15.997   9.148  0.00  0.00    -0.266 OA
HETATM    5  N   UNK N   1      33.297  15.293   8.065  0.00  0.00    -0.212 N 
HETATM    6  C   UNK N   1      33.942  15.131   6.827  0.00  0.00     0.338 A 
HETATM    7  O   UNK N   1      35.053  14.636   6.787  0.00  0.00    -0.246 OA
HETATM    8  N   UNK N   1      33.346  15.567   5.645  0.00  0.00    -0.287 N 
HETATM    9  C   UNK N   1      32.113  16.121   5.728  0.00  0.00     0.097 A 
HETATM   10  S   UNK N   1      31.175  16.744   4.510  0.00  0.00    -0.070 SA
HETATM   11  C   UNK N   1      29.858  17.203   5.419  0.00  0.00     0.026 A 
ENDROOT
BRANCH  11  12
HETATM   12  C   UNK N   1      28.617  17.782   4.891  0.00  0.00    -0.018 A 
HETATM   13  C   UNK N   1      27.539  16.971   4.504  0.00  0.00     0.015 A 
HETATM   14  C   UNK N   1      26.385  17.553   3.966  0.00  0.00     0.030 A 
HETATM   15  C   UNK N   1      26.301  18.946   3.832  0.00  0.00     0.036 A 
HETATM   16  C   UNK N   1      27.363  19.741   4.273  0.00  0.00     0.030 A 
HETATM   17  C   UNK N   1      28.501  19.165   4.799  0.00  0.00     0.015 A 
BRANCH  15  18
HETATM   18  N   UNK N   1      25.223  19.509   3.099  0.00  0.00    -0.307 N 
HETATM   19  C   UNK N   1      23.938  19.538   3.548  0.00  0.00     0.344 C 
HETATM   20  O   UNK N   1      23.624  19.000   4.602  0.00  0.00    -0.245 OA
HETATM   21  N   UNK N   1      23.022  20.278   2.888  0.00  0.00    -0.217 N 
HETATM   22  H   UNK N   1      23.255  20.684   2.022  0.00  0.00     0.199 HD
HETATM   23  H   UNK N   1      25.414  19.900   2.216  0.00  0.00     0.170 HD
BRANCH  21  24
HETATM   24  O   UNK N   1      21.796  20.462   3.403  0.00  0.00    -0.281 OA
HETATM   25  C   UNK N   1      20.970  20.678   2.292  0.00  0.00     0.237 C 
ENDBRANCH  21  24
ENDBRANCH  15  18
ENDBRANCH  11  12
BRANCH   1  26
HETATM   26  C   UNK N   1      29.260  17.208   7.941  0.00  0.00     0.312 C 
BRANCH  26  27
HETATM   27  N   UNK N   1      29.331  18.623   8.294  0.00  0.00     0.084 N 
HETATM   28  C   UNK N   1      29.744  18.727   9.685  0.00  0.00     0.309 C 
HETATM   29  C   UNK N   1      27.982  19.154   8.231  0.00  0.00     0.309 C 
ENDBRANCH  26  27
ENDBRANCH   1  26
BRANCH   8  30
HETATM   30  C   UNK N   1      34.010  15.586   4.323  0.00  0.00     0.179 C 
BRANCH  30  31
HETATM   31  C   UNK N   1      34.105  14.296   3.558  0.00  0.00     0.037 A 
HETATM   32  C   UNK N   1      35.310  13.568   3.562  0.00  0.00     0.127 A 
HETATM   33  C   UNK N   1      35.422  12.394   2.815  0.00  0.00     0.043 A 
HETATM   34  F   UNK N   1      36.377  14.005   4.279  0.00  0.00    -0.205 F 
HETATM   35  C   UNK N   1      34.349  11.948   2.044  0.00  0.00     0.006 A 
HETATM   36  C   UNK N   1      33.161  12.684   2.008  0.00  0.00     0.043 A 
HETATM   37  C   UNK N   1      33.036  13.857   2.760  0.00  0.00     0.127 A 
HETATM   38  F   UNK N   1      31.887  14.575   2.688  0.00  0.00    -0.205 F 
ENDBRANCH  30  31
ENDBRANCH   8  30
BRANCH   5  39
HETATM   39  C   UNK N   1      33.968  14.976   9.333  0.00  0.00     0.133 A 
HETATM   40  C   UNK N   1      34.776  15.908   9.998  0.00  0.00     0.055 A 
HETATM   41  C   UNK N   1      35.260  15.624  11.271  0.00  0.00     0.061 A 
HETATM   42  C   UNK N   1      34.916  14.419  11.874  0.00  0.00     0.156 A 
HETATM   43  N   UNK N   1      34.157  13.525  11.189  0.00  0.00    -0.278 N 
HETATM   44  N   UNK N   1      33.705  13.795   9.965  0.00  0.00    -0.283 N 
ATOM     45  HN  UNK N   1      33.929  12.628  11.619  1.00  0.00     0.189 HD
ATOM     46  HN  UNK N   1      33.142  13.094   9.484  1.00  0.00     0.188 HD
BRANCH  42  47
HETATM   47  O   UNK N   1      35.312  14.166  13.140  0.00  0.00    -0.340 OA
HETATM   48  C   UNK N   1      36.396  13.367  13.422  0.00  0.00     0.211 C 
ENDBRANCH  42  47
ENDBRANCH   5  39
TORSDOF 9
ENDMDL
MODEL 3
REMARK VINA RESULT:      -7.9      3.685      6.866
REMARK  9 active torsions:
REMARK  status: ('A' for Active; 'I' for Inactive)
REMARK    1  A    between atoms: N_2  and  C_4 
REMARK    2  A    between atoms: C_4  and  C_5 
REMARK    3  A    between atoms: N_9  and  C_37 
REMARK    4  A    between atoms: N_12  and  C_28 
REMARK    5  A    between atoms: C_15  and  C_16 
REMARK    6  A    between atoms: C_19  and  N_22 
REMARK       I    between atoms: N_22  and  C_23 
REMARK       I    between atoms: C_23  and  N_25 
REMARK    7  A    between atoms: N_25  and  O_26 
REMARK    8  A    between atoms: C_28  and  C_29 
REMARK    9  A    between atoms: C_40  and  O_45 
ROOT
HETATM    1  C   UNK N   1      33.832  15.607   6.974  0.00  0.00     0.006 A 
HETATM    2  C   UNK N   1      34.858  14.780   7.520  0.00  0.00     0.076 A 
HETATM    3  C   UNK N   1      36.125  14.573   7.002  0.00  0.00     0.271 A 
HETATM    4  O   UNK N   1      36.456  15.154   5.982  0.00  0.00    -0.266 OA
HETATM    5  N   UNK N   1      37.000  13.702   7.649  0.00  0.00    -0.212 N 
HETATM    6  C   UNK N   1      36.583  13.072   8.835  0.00  0.00     0.338 A 
HETATM    7  O   UNK N   1      37.339  12.312   9.410  0.00  0.00    -0.246 OA
HETATM    8  N   UNK N   1      35.301  13.274   9.341  0.00  0.00    -0.287 N 
HETATM    9  C   UNK N   1      34.483  14.121   8.671  0.00  0.00     0.097 A 
HETATM   10  S   UNK N   1      32.915  14.536   9.017  0.00  0.00    -0.070 SA
HETATM   11  C   UNK N   1      32.651  15.588   7.755  0.00  0.00     0.026 A 
ENDROOT
BRANCH  11  12
HETATM   12  C   UNK N   1      31.426  16.365   7.533  0.00  0.00    -0.018 A 
HETATM   13  C   UNK N   1      31.164  17.538   8.256  0.00  0.00     0.015 A 
HETATM   14  C   UNK N   1      29.966  18.233   8.051  0.00  0.00     0.030 A 
HETATM   15  C   UNK N   1      29.039  17.766   7.109  0.00  0.00     0.036 A 
HETATM   16  C   UNK N   1      29.342  16.625   6.359  0.00  0.00     0.030 A 
HETATM   17  C   UNK N   1      30.520  15.939   6.566  0.00  0.00     0.015 A 
BRANCH  15  18
HETATM   18  N   UNK N   1      27.746  18.353   7.056  0.00  0.00    -0.307 N 
HETATM   19  C   UNK N   1      27.354  19.229   6.090  0.00  0.00     0.344 C 
HETATM   20  O   UNK N   1      28.139  19.624   5.238  0.00  0.00    -0.245 OA
HETATM   21  N   UNK N   1      26.052  19.569   5.995  0.00  0.00    -0.217 N 
HETATM   22  H   UNK N   1      25.420  19.286   6.695  0.00  0.00     0.199 HD
HETATM   23  H   UNK N   1      27.098  18.113   7.757  0.00  0.00     0.170 HD
BRANCH  21  24
HETATM   24  O   UNK N   1      25.611  20.291   4.952  0.00  0.00    -0.281 OA
HETATM   25  C   UNK N   1      24.805  19.409   4.220  0.00  0.00     0.237 C 
ENDBRANCH  21  24
ENDBRANCH  15  18
ENDBRANCH  11  12
BRANCH   1  26
HETATM   26  C   UNK N   1      34.006  16.385   5.693  0.00  0.00     0.312 C 
BRANCH  26  27
HETATM   27  N   UNK N   1      33.156  15.847   4.636  0.00  0.00     0.084 N 
HETATM   28  C   UNK N   1      33.957  14.947   3.820  0.00  0.00     0.309 C 
HETATM   29  C   UNK N   1      32.785  16.953   3.773  0.00  0.00     0.309 C 
ENDBRANCH  26  27
ENDBRANCH   1  26
BRANCH   8  30
HETATM   30  C   UNK N   1      34.721  12.536  10.486  0.00  0.00     0.179 C 
BRANCH  30  31
HETATM   31  C   UNK N   1      35.354  12.712  11.838  0.00  0.00     0.037 A 
HETATM   32  C   UNK N   1      35.385  13.987  12.434  0.00  0.00     0.127 A 
HETATM   33  C   UNK N   1      36.013  14.169  13.667  0.00  0.00     0.043 A 
HETATM   34  F   UNK N   1      34.819  15.053  11.812  0.00  0.00    -0.205 F 
HETATM   35  C   UNK N   1      36.631  13.093  14.305  0.00  0.00     0.006 A 
HETATM   36  C   UNK N   1      36.634  11.832  13.702  0.00  0.00     0.043 A 
HETATM   37  C   UNK N   1      36.000  11.638  12.470  0.00  0.00     0.127 A 
HETATM   38  F   UNK N   1      36.040  10.415  11.886  0.00  0.00    -0.205 F 
ENDBRANCH  30  31
ENDBRANCH   8  30
BRANCH   5  39
HETATM   39  C   UNK N   1      38.290  13.389   7.021  0.00  0.00     0.133 A 
HETATM   40  C   UNK N   1      38.438  12.328   6.116  0.00  0.00     0.055 A 
HETATM   41  C   UNK N   1      39.633  12.168   5.424  0.00  0.00     0.061 A 
HETATM   42  C   UNK N   1      40.663  13.080   5.628  0.00  0.00     0.156 A 
HETATM   43  N   UNK N   1      40.498  14.077   6.535  0.00  0.00    -0.278 N 
HETATM   44  N   UNK N   1      39.356  14.221   7.206  0.00  0.00    -0.283 N 
ATOM     45  HN  UNK N   1      41.265  14.729   6.707  1.00  0.00     0.189 HD
ATOM     46  HN  UNK N   1      39.276  14.981   7.881  1.00  0.00     0.188 HD
BRANCH  42  47
HETATM   47  O   UNK N   1      41.799  12.982   4.904  0.00  0.00    -0.340 OA
HETATM   48  C   UNK N   1      42.491  14.091   4.475  0.00  0.00     0.211 C 
ENDBRANCH  42  47
ENDBRANCH   5  39
TORSDOF 9
ENDMDL
MODEL 4
REMARK VINA RESULT:      -7.9      2.840     10.058
REMARK  9 active torsions:
REMARK  status: ('A' for Active; 'I' for Inactive)
REMARK    1  A    between atoms: N_2  and  C_4 
REMARK    2  A    between atoms: C_4  and  C_5 
REMARK    3  A    between atoms: N_9  and  C_37 
REMARK    4  A    between atoms: N_12  and  C_28 
REMARK    5  A    between atoms: C_15  and  C_16 
REMARK    6  A    between atoms: C_19  and  N_22 
REMARK       I    between atoms: N_22  and  C_23 
REMARK       I    between atoms: C_23  and  N_25 
REMARK    7  A    between atoms: N_25  and  O_26 
REMARK    8  A    between atoms: C_28  and  C_29 
REMARK    9  A    between atoms: C_40  and  O_45 
ROOT
HETATM    1  C   UNK N   1      29.577  17.306   6.571  0.00  0.00     0.006 A 
HETATM    2  C   UNK N   1      28.648  17.202   5.493  0.00  0.00     0.076 A 
HETATM    3  C   UNK N   1      27.535  17.996   5.274  0.00  0.00     0.271 A 
HETATM    4  O   UNK N   1      27.291  18.909   6.043  0.00  0.00    -0.266 OA
HETATM    5  N   UNK N   1      26.708  17.736   4.182  0.00  0.00    -0.212 N 
HETATM    6  C   UNK N   1      27.042  16.687   3.307  0.00  0.00     0.338 A 
HETATM    7  O   UNK N   1      26.330  16.453   2.349  0.00  0.00    -0.246 OA
HETATM    8  N   UNK N   1      28.155  15.883   3.544  0.00  0.00    -0.287 N 
HETATM    9  C   UNK N   1      28.921  16.168   4.625  0.00  0.00     0.097 A 
HETATM   10  S   UNK N   1      30.278  15.382   5.167  0.00  0.00    -0.070 SA
HETATM   11  C   UNK N   1      30.600  16.330   6.497  0.00  0.00     0.026 A 
ENDROOT
BRANCH  11  12
HETATM   12  C   UNK N   1      31.754  16.181   7.391  0.00  0.00    -0.018 A 
HETATM   13  C   UNK N   1      32.581  17.270   7.704  0.00  0.00     0.015 A 
HETATM   14  C   UNK N   1      33.698  17.086   8.528  0.00  0.00     0.030 A 
HETATM   15  C   UNK N   1      33.977  15.817   9.053  0.00  0.00     0.036 A 
HETATM   16  C   UNK N   1      33.111  14.755   8.774  0.00  0.00     0.030 A 
HETATM   17  C   UNK N   1      32.015  14.938   7.959  0.00  0.00     0.015 A 
BRANCH  15  18
HETATM   18  N   UNK N   1      35.217  15.594   9.710  0.00  0.00    -0.307 N 
HETATM   19  C   UNK N   1      35.323  15.101  10.975  0.00  0.00     0.344 C 
HETATM   20  O   UNK N   1      34.329  14.887  11.656  0.00  0.00    -0.245 OA
HETATM   21  N   UNK N   1      36.533  14.722  11.438  0.00  0.00    -0.217 N 
HETATM   22  H   UNK N   1      37.341  14.923  10.914  0.00  0.00     0.199 HD
HETATM   23  H   UNK N   1      36.046  15.810   9.225  0.00  0.00     0.170 HD
BRANCH  21  24
HETATM   24  O   UNK N   1      36.641  14.076  12.610  0.00  0.00    -0.281 OA
HETATM   25  C   UNK N   1      37.024  12.773  12.266  0.00  0.00     0.237 C 
ENDBRANCH  21  24
ENDBRANCH  15  18
ENDBRANCH  11  12
BRANCH   1  26
HETATM   26  C   UNK N   1      29.446  18.336   7.665  0.00  0.00     0.312 C 
BRANCH  26  27
HETATM   27  N   UNK N   1      29.314  17.697   8.970  0.00  0.00     0.084 N 
HETATM   28  C   UNK N   1      27.900  17.463   9.223  0.00  0.00     0.309 C 
HETATM   29  C   UNK N   1      29.750  18.656   9.968  0.00  0.00     0.309 C 
ENDBRANCH  26  27
ENDBRANCH   1  26
BRANCH   8  30
HETATM   30  C   UNK N   1      28.493  14.665   2.776  0.00  0.00     0.179 C 
BRANCH  30  31
HETATM   31  C   UNK N   1      28.308  13.330   3.443  0.00  0.00     0.037 A 
HETATM   32  C   UNK N   1      29.372  12.408   3.467  0.00  0.00     0.127 A 
HETATM   33  C   UNK N   1      29.195  11.149   4.042  0.00  0.00     0.043 A 
HETATM   34  F   UNK N   1      30.574  12.727   2.921  0.00  0.00    -0.205 F 
HETATM   35  C   UNK N   1      27.958  10.789   4.576  0.00  0.00     0.006 A 
HETATM   36  C   UNK N   1      26.888  11.687   4.525  0.00  0.00     0.043 A 
HETATM   37  C   UNK N   1      27.057  12.955   3.958  0.00  0.00     0.127 A 
HETATM   38  F   UNK N   1      26.000  13.801   3.890  0.00  0.00    -0.205 F 
ENDBRANCH  30  31
ENDBRANCH   8  30
BRANCH   5  39
HETATM   39  C   UNK N   1      25.462  18.499   4.033  0.00  0.00     0.133 A 
HETATM   40  C   UNK N   1      25.423  19.738   3.378  0.00  0.00     0.055 A 
HETATM   41  C   UNK N   1      24.201  20.347   3.119  0.00  0.00     0.061 A 
HETATM   42  C   UNK N   1      23.027  19.705   3.499  0.00  0.00     0.156 A 
HETATM   43  N   UNK N   1      23.102  18.521   4.160  0.00  0.00    -0.278 N 
HETATM   44  N   UNK N   1      24.275  17.945   4.418  0.00  0.00    -0.283 N 
ATOM     45  HN  UNK N   1      22.243  18.063   4.465  1.00  0.00     0.189 HD
ATOM     46  HN  UNK N   1      24.287  17.057   4.920  1.00  0.00     0.188 HD
BRANCH  42  47
HETATM   47  O   UNK N   1      21.832  20.248   3.181  0.00  0.00    -0.340 OA
HETATM   48  C   UNK N   1      20.648  19.576   3.379  0.00  0.00     0.211 C 
ENDBRANCH  42  47
ENDBRANCH   5  39
TORSDOF 9
ENDMDL
MODEL 5
REMARK VINA RESULT:      -7.6      5.723     11.608
REMARK  9 active torsions:
REMARK  status: ('A' for Active; 'I' for Inactive)
REMARK    1  A    between atoms: N_2  and  C_4 
REMARK    2  A    between atoms: C_4  and  C_5 
REMARK    3  A    between atoms: N_9  and  C_37 
REMARK    4  A    between atoms: N_12  and  C_28 
REMARK    5  A    between atoms: C_15  and  C_16 
REMARK    6  A    between atoms: C_19  and  N_22 
REMARK       I    between atoms: N_22  and  C_23 
REMARK       I    between atoms: C_23  and  N_25 
REMARK    7  A    between atoms: N_25  and  O_26 
REMARK    8  A    between atoms: C_28  and  C_29 
REMARK    9  A    between atoms: C_40  and  O_45 
ROOT
HETATM    1  C   UNK N   1      36.567  13.197  10.806  0.00  0.00     0.006 A 
HETATM    2  C   UNK N   1      36.386  13.712   9.488  0.00  0.00     0.076 A 
HETATM    3  C   UNK N   1      37.079  13.344   8.348  0.00  0.00     0.271 A 
HETATM    4  O   UNK N   1      37.932  12.476   8.420  0.00  0.00    -0.266 OA
HETATM    5  N   UNK N   1      36.798  13.976   7.137  0.00  0.00    -0.212 N 
HETATM    6  C   UNK N   1      35.790  14.955   7.097  0.00  0.00     0.338 A 
HETATM    7  O   UNK N   1      35.533  15.510   6.045  0.00  0.00    -0.246 OA
HETATM    8  N   UNK N   1      35.107  15.329   8.252  0.00  0.00    -0.287 N 
HETATM    9  C   UNK N   1      35.424  14.696   9.406  0.00  0.00     0.097 A 
HETATM   10  S   UNK N   1      34.804  14.941  10.925  0.00  0.00    -0.070 SA
HETATM   11  C   UNK N   1      35.693  13.797  11.745  0.00  0.00     0.026 A 
ENDROOT
BRANCH  11  12
HETATM   12  C   UNK N   1      35.555  13.468  13.168  0.00  0.00    -0.018 A 
HETATM   13  C   UNK N   1      34.607  12.534  13.614  0.00  0.00     0.015 A 
HETATM   14  C   UNK N   1      34.473  12.274  14.983  0.00  0.00     0.030 A 
HETATM   15  C   UNK N   1      35.298  12.932  15.905  0.00  0.00     0.036 A 
HETATM   16  C   UNK N   1      36.274  13.819  15.438  0.00  0.00     0.030 A 
HETATM   17  C   UNK N   1      36.401  14.078  14.090  0.00  0.00     0.015 A 
BRANCH  15  18
HETATM   18  N   UNK N   1      35.017  12.821  17.293  0.00  0.00    -0.307 N 
HETATM   19  C   UNK N   1      35.441  11.785  18.068  0.00  0.00     0.344 C 
HETATM   20  O   UNK N   1      36.037  10.833  17.581  0.00  0.00    -0.245 OA
HETATM   21  N   UNK N   1      35.312  11.866  19.409  0.00  0.00    -0.217 N 
HETATM   22  H   UNK N   1      34.803  12.608  19.807  0.00  0.00     0.199 HD
HETATM   23  H   UNK N   1      34.486  13.532  17.718  0.00  0.00     0.170 HD
BRANCH  21  24
HETATM   24  O   UNK N   1      35.874  10.941  20.204  0.00  0.00    -0.281 OA
HETATM   25  C   UNK N   1      34.795  10.303  20.829  0.00  0.00     0.237 C 
ENDBRANCH  21  24
ENDBRANCH  15  18
ENDBRANCH  11  12
BRANCH   1  26
HETATM   26  C   UNK N   1      37.597  12.145  11.137  0.00  0.00     0.312 C 
BRANCH  26  27
HETATM   27  N   UNK N   1      36.957  10.888  11.512  0.00  0.00     0.084 N 
HETATM   28  C   UNK N   1      37.567  10.415  12.746  0.00  0.00     0.309 C 
HETATM   29  C   UNK N   1      37.294   9.910  10.494  0.00  0.00     0.309 C 
ENDBRANCH  26  27
ENDBRANCH   1  26
BRANCH   8  30
HETATM   30  C   UNK N   1      34.150  16.455   8.337  0.00  0.00     0.179 C 
BRANCH  30  31
HETATM   31  C   UNK N   1      32.936  16.423   7.452  0.00  0.00     0.037 A 
HETATM   32  C   UNK N   1      31.936  15.457   7.671  0.00  0.00     0.127 A 
HETATM   33  C   UNK N   1      30.828  15.389   6.824  0.00  0.00     0.043 A 
HETATM   34  F   UNK N   1      32.044  14.573   8.696  0.00  0.00    -0.205 F 
HETATM   35  C   UNK N   1      30.717  16.265   5.745  0.00  0.00     0.006 A 
HETATM   36  C   UNK N   1      31.723  17.205   5.500  0.00  0.00     0.043 A 
HETATM   37  C   UNK N   1      32.833  17.286   6.348  0.00  0.00     0.127 A 
HETATM   38  F   UNK N   1      33.813  18.183   6.078  0.00  0.00    -0.205 F 
ENDBRANCH  30  31
ENDBRANCH   8  30
BRANCH   5  39
HETATM   39  C   UNK N   1      37.628  13.673   5.965  0.00  0.00     0.133 A 
HETATM   40  C   UNK N   1      37.234  12.737   4.997  0.00  0.00     0.055 A 
HETATM   41  C   UNK N   1      37.969  12.599   3.825  0.00  0.00     0.061 A 
HETATM   42  C   UNK N   1      39.081  13.410   3.622  0.00  0.00     0.156 A 
HETATM   43  N   UNK N   1      39.453  14.283   4.593  0.00  0.00    -0.278 N 
HETATM   44  N   UNK N   1      38.754  14.405   5.720  0.00  0.00    -0.283 N 
ATOM     45  HN  UNK N   1      40.286  14.857   4.457  1.00  0.00     0.189 HD
ATOM     46  HN  UNK N   1      39.071  15.069   6.425  1.00  0.00     0.188 HD
BRANCH  42  47
HETATM   47  O   UNK N   1      39.755  13.342   2.454  0.00  0.00    -0.340 OA
HETATM   48  C   UNK N   1      39.122  13.438   1.237  0.00  0.00     0.211 C 
ENDBRANCH  42  47
ENDBRANCH   5  39
TORSDOF 9
ENDMDL
MODEL 6
REMARK VINA RESULT:      -7.6      3.674      6.514
REMARK  9 active torsions:
REMARK  status: ('A' for Active; 'I' for Inactive)
REMARK    1  A    between atoms: N_2  and  C_4 
REMARK    2  A    between atoms: C_4  and  C_5 
REMARK    3  A    between atoms: N_9  and  C_37 
REMARK    4  A    between atoms: N_12  and  C_28 
REMARK    5  A    between atoms: C_15  and  C_16 
REMARK    6  A    between atoms: C_19  and  N_22 
REMARK       I    between atoms: N_22  and  C_23 
REMARK       I    between atoms: C_23  and  N_25 
REMARK    7  A    between atoms: N_25  and  O_26 
REMARK    8  A    between atoms: C_28  and  C_29 
REMARK    9  A    between atoms: C_40  and  O_45 
ROOT
HETATM    1  C   UNK N   1      29.108  15.306   4.540  0.00  0.00     0.006 A 
HETATM    2  C   UNK N   1      30.503  15.578   4.665  0.00  0.00     0.076 A 
HETATM    3  C   UNK N   1      31.520  15.101   3.855  0.00  0.00     0.271 A 
HETATM    4  O   UNK N   1      31.245  14.386   2.907  0.00  0.00    -0.266 OA
HETATM    5  N   UNK N   1      32.842  15.440   4.139  0.00  0.00    -0.212 N 
HETATM    6  C   UNK N   1      33.111  16.287   5.229  0.00  0.00     0.338 A 
HETATM    7  O   UNK N   1      34.260  16.592   5.484  0.00  0.00    -0.246 OA
HETATM    8  N   UNK N   1      32.082  16.750   6.048  0.00  0.00    -0.287 N 
HETATM    9  C   UNK N   1      30.816  16.383   5.738  0.00  0.00     0.097 A 
HETATM   10  S   UNK N   1      29.408  16.757   6.532  0.00  0.00    -0.070 SA
HETATM   11  C   UNK N   1      28.341  15.950   5.540  0.00  0.00     0.026 A 
ENDROOT
BRANCH  11  12
HETATM   12  C   UNK N   1      26.881  15.950   5.680  0.00  0.00    -0.018 A 
HETATM   13  C   UNK N   1      26.071  16.789   4.898  0.00  0.00     0.015 A 
HETATM   14  C   UNK N   1      24.684  16.794   5.085  0.00  0.00     0.030 A 
HETATM   15  C   UNK N   1      24.103  15.947   6.039  0.00  0.00     0.036 A 
HETATM   16  C   UNK N   1      24.920  15.079   6.770  0.00  0.00     0.030 A 
HETATM   17  C   UNK N   1      26.287  15.079   6.588  0.00  0.00     0.015 A 
BRANCH  15  18
HETATM   18  N   UNK N   1      22.731  16.107   6.367  0.00  0.00    -0.307 N 
HETATM   19  C   UNK N   1      21.732  15.359   5.821  0.00  0.00     0.344 C 
HETATM   20  O   UNK N   1      21.964  14.539   4.943  0.00  0.00    -0.245 OA
HETATM   21  N   UNK N   1      20.490  15.432   6.343  0.00  0.00    -0.217 N 
HETATM   22  H   UNK N   1      20.285  16.113   7.024  0.00  0.00     0.199 HD
HETATM   23  H   UNK N   1      22.487  16.798   7.024  0.00  0.00     0.170 HD
BRANCH  21  24
HETATM   24  O   UNK N   1      19.531  14.583   5.940  0.00  0.00    -0.281 OA
HETATM   25  C   UNK N   1      18.691  15.352   5.124  0.00  0.00     0.237 C 
ENDBRANCH  21  24
ENDBRANCH  15  18
ENDBRANCH  11  12
BRANCH   1  26
HETATM   26  C   UNK N   1      28.544  14.411   3.464  0.00  0.00     0.312 C 
BRANCH  26  27
HETATM   27  N   UNK N   1      27.911  13.232   4.047  0.00  0.00     0.084 N 
HETATM   28  C   UNK N   1      28.935  12.221   4.261  0.00  0.00     0.309 C 
HETATM   29  C   UNK N   1      27.008  12.688   3.049  0.00  0.00     0.309 C 
ENDBRANCH  26  27
ENDBRANCH   1  26
BRANCH   8  30
HETATM   30  C   UNK N   1      32.281  17.508   7.303  0.00  0.00     0.179 C 
BRANCH  30  31
HETATM   31  C   UNK N   1      33.102  16.876   8.392  0.00  0.00     0.037 A 
HETATM   32  C   UNK N   1      34.284  17.504   8.830  0.00  0.00     0.127 A 
HETATM   33  C   UNK N   1      35.078  16.901   9.806  0.00  0.00     0.043 A 
HETATM   34  F   UNK N   1      34.671  18.693   8.299  0.00  0.00    -0.205 F 
HETATM   35  C   UNK N   1      34.716  15.663  10.338  0.00  0.00     0.006 A 
HETATM   36  C   UNK N   1      33.563  15.018   9.883  0.00  0.00     0.043 A 
HETATM   37  C   UNK N   1      32.756  15.618   8.910  0.00  0.00     0.127 A 
HETATM   38  F   UNK N   1      31.658  14.963   8.459  0.00  0.00    -0.205 F 
ENDBRANCH  30  31
ENDBRANCH   8  30
BRANCH   5  39
HETATM   39  C   UNK N   1      33.921  14.825   3.356  0.00  0.00     0.133 A 
HETATM   40  C   UNK N   1      34.729  13.805   3.878  0.00  0.00     0.055 A 
HETATM   41  C   UNK N   1      35.629  13.141   3.052  0.00  0.00     0.061 A 
HETATM   42  C   UNK N   1      35.699  13.488   1.707  0.00  0.00     0.156 A 
HETATM   43  N   UNK N   1      34.925  14.502   1.241  0.00  0.00    -0.278 N 
HETATM   44  N   UNK N   1      34.072  15.144   2.037  0.00  0.00    -0.283 N 
ATOM     45  HN  UNK N   1      34.997  14.777   0.261  1.00  0.00     0.189 HD
ATOM     46  HN  UNK N   1      33.512  15.902   1.648  1.00  0.00     0.188 HD
BRANCH  42  47
HETATM   47  O   UNK N   1      36.510  12.797   0.877  0.00  0.00    -0.340 OA
HETATM   48  C   UNK N   1      36.033  11.822   0.032  0.00  0.00     0.211 C 
ENDBRANCH  42  47
ENDBRANCH   5  39
TORSDOF 9
ENDMDL
MODEL 7
REMARK VINA RESULT:      -7.5      5.365      7.820
REMARK  9 active torsions:
REMARK  status: ('A' for Active; 'I' for Inactive)
REMARK    1  A    between atoms: N_2  and  C_4 
REMARK    2  A    between atoms: C_4  and  C_5 
REMARK    3  A    between atoms: N_9  and  C_37 
REMARK    4  A    between atoms: N_12  and  C_28 
REMARK    5  A    between atoms: C_15  and  C_16 
REMARK    6  A    between atoms: C_19  and  N_22 
REMARK       I    between atoms: N_22  and  C_23 
REMARK       I    between atoms: C_23  and  N_25 
REMARK    7  A    between atoms: N_25  and  O_26 
REMARK    8  A    between atoms: C_28  and  C_29 
REMARK    9  A    between atoms: C_40  and  O_45 
ROOT
HETATM    1  C   UNK N   1      29.665  13.267   4.620  0.00  0.00     0.006 A 
HETATM    2  C   UNK N   1      29.896  14.434   5.407  0.00  0.00     0.076 A 
HETATM    3  C   UNK N   1      31.078  14.799   6.029  0.00  0.00     0.271 A 
HETATM    4  O   UNK N   1      32.062  14.091   5.905  0.00  0.00    -0.266 OA
HETATM    5  N   UNK N   1      31.122  15.964   6.793  0.00  0.00    -0.212 N 
HETATM    6  C   UNK N   1      29.969  16.762   6.889  0.00  0.00     0.338 A 
HETATM    7  O   UNK N   1      29.997  17.783   7.550  0.00  0.00    -0.246 OA
HETATM    8  N   UNK N   1      28.780  16.380   6.272  0.00  0.00    -0.287 N 
HETATM    9  C   UNK N   1      28.782  15.233   5.551  0.00  0.00     0.097 A 
HETATM   10  S   UNK N   1      27.526  14.522   4.733  0.00  0.00    -0.070 SA
HETATM   11  C   UNK N   1      28.337  13.197   4.134  0.00  0.00     0.026 A 
ENDROOT
BRANCH  11  12
HETATM   12  C   UNK N   1      27.767  12.180   3.245  0.00  0.00    -0.018 A 
HETATM   13  C   UNK N   1      27.220  10.990   3.750  0.00  0.00     0.015 A 
HETATM   14  C   UNK N   1      26.722  10.021   2.871  0.00  0.00     0.030 A 
HETATM   15  C   UNK N   1      26.753  10.249   1.488  0.00  0.00     0.036 A 
HETATM   16  C   UNK N   1      27.251  11.463   1.006  0.00  0.00     0.030 A 
HETATM   17  C   UNK N   1      27.746  12.414   1.873  0.00  0.00     0.015 A 
BRANCH  15  18
HETATM   18  N   UNK N   1      26.441   9.184   0.602  0.00  0.00    -0.307 N 
HETATM   19  C   UNK N   1      25.231   9.036  -0.005  0.00  0.00     0.344 C 
HETATM   20  O   UNK N   1      24.301   9.790   0.247  0.00  0.00    -0.245 OA
HETATM   21  N   UNK N   1      25.091   8.124  -0.990  0.00  0.00    -0.217 N 
HETATM   22  H   UNK N   1      25.821   7.489  -1.174  0.00  0.00     0.199 HD
HETATM   23  H   UNK N   1      27.139   8.514   0.415  0.00  0.00     0.170 HD
BRANCH  21  24
HETATM   24  O   UNK N   1      23.965   8.076  -1.719  0.00  0.00    -0.281 OA
HETATM   25  C   UNK N   1      23.528   6.748  -1.616  0.00  0.00     0.237 C 
ENDBRANCH  21  24
ENDBRANCH  15  18
ENDBRANCH  11  12
BRANCH   1  26
HETATM   26  C   UNK N   1      30.730  12.228   4.369  0.00  0.00     0.312 C 
BRANCH  26  27
HETATM   27  N   UNK N   1      31.182  12.270   2.982  0.00  0.00     0.084 N 
HETATM   28  C   UNK N   1      31.105  10.925   2.435  0.00  0.00     0.309 C 
HETATM   29  C   UNK N   1      32.590  12.621   2.996  0.00  0.00     0.309 C 
ENDBRANCH  26  27
ENDBRANCH   1  26
BRANCH   8  30
HETATM   30  C   UNK N   1      27.481  17.067   6.448  0.00  0.00     0.179 C 
BRANCH  30  31
HETATM   31  C   UNK N   1      27.306  18.426   5.831  0.00  0.00     0.037 A 
HETATM   32  C   UNK N   1      27.160  18.547   4.436  0.00  0.00     0.127 A 
HETATM   33  C   UNK N   1      27.046  19.808   3.850  0.00  0.00     0.043 A 
HETATM   34  F   UNK N   1      27.142  17.442   3.647  0.00  0.00    -0.205 F 
HETATM   35  C   UNK N   1      27.097  20.956   4.640  0.00  0.00     0.006 A 
HETATM   36  C   UNK N   1      27.277  20.846   6.022  0.00  0.00     0.043 A 
HETATM   37  C   UNK N   1      27.384  19.585   6.620  0.00  0.00     0.127 A 
HETATM   38  F   UNK N   1      27.589  19.498   7.958  0.00  0.00    -0.205 F 
ENDBRANCH  30  31
ENDBRANCH   8  30
BRANCH   5  39
HETATM   39  C   UNK N   1      32.340  16.272   7.554  0.00  0.00     0.133 A 
HETATM   40  C   UNK N   1      33.189  17.331   7.201  0.00  0.00     0.055 A 
HETATM   41  C   UNK N   1      34.239  17.687   8.040  0.00  0.00     0.061 A 
HETATM   42  C   UNK N   1      34.421  16.994   9.232  0.00  0.00     0.156 A 
HETATM   43  N   UNK N   1      33.600  15.953   9.527  0.00  0.00    -0.278 N 
HETATM   44  N   UNK N   1      32.602  15.606   8.717  0.00  0.00    -0.283 N 
ATOM     45  HN  UNK N   1      33.752  15.425  10.388  1.00  0.00     0.189 HD
ATOM     46  HN  UNK N   1      32.012  14.816   8.974  1.00  0.00     0.188 HD
BRANCH  42  47
HETATM   47  O   UNK N   1      35.387  17.382  10.092  0.00  0.00    -0.340 OA
HETATM   48  C   UNK N   1      35.762  16.610  11.167  0.00  0.00     0.211 C 
ENDBRANCH  42  47
ENDBRANCH   5  39
TORSDOF 9
ENDMDL
MODEL 8
REMARK VINA RESULT:      -7.5      4.452      7.543
REMARK  9 active torsions:
REMARK  status: ('A' for Active; 'I' for Inactive)
REMARK    1  A    between atoms: N_2  and  C_4 
REMARK    2  A    between atoms: C_4  and  C_5 
REMARK    3  A    between atoms: N_9  and  C_37 
REMARK    4  A    between atoms: N_12  and  C_28 
REMARK    5  A    between atoms: C_15  and  C_16 
REMARK    6  A    between atoms: C_19  and  N_22 
REMARK       I    between atoms: N_22  and  C_23 
REMARK       I    between atoms: C_23  and  N_25 
REMARK    7  A    between atoms: N_25  and  O_26 
REMARK    8  A    between atoms: C_28  and  C_29 
REMARK    9  A    between atoms: C_40  and  O_45 
ROOT
HETATM    1  C   UNK N   1      35.385  14.323   6.614  0.00  0.00     0.006 A 
HETATM    2  C   UNK N   1      36.260  13.965   7.682  0.00  0.00     0.076 A 
HETATM    3  C   UNK N   1      37.371  13.141   7.609  0.00  0.00     0.271 A 
HETATM    4  O   UNK N   1      37.689  12.662   6.534  0.00  0.00    -0.266 OA
HETATM    5  N   UNK N   1      38.102  12.868   8.763  0.00  0.00    -0.212 N 
HETATM    6  C   UNK N   1      37.712  13.461   9.976  0.00  0.00     0.338 A 
HETATM    7  O   UNK N   1      38.345  13.232  10.989  0.00  0.00    -0.246 OA
HETATM    8  N   UNK N   1      36.584  14.277  10.044  0.00  0.00    -0.287 N 
HETATM    9  C   UNK N   1      35.899  14.504   8.898  0.00  0.00     0.097 A 
HETATM   10  S   UNK N   1      34.522  15.403   8.677  0.00  0.00    -0.070 SA
HETATM   11  C   UNK N   1      34.341  15.182   7.037  0.00  0.00     0.026 A 
ENDROOT
BRANCH  11  12
HETATM   12  C   UNK N   1      33.304  15.799   6.202  0.00  0.00    -0.018 A 
HETATM   13  C   UNK N   1      33.560  16.961   5.459  0.00  0.00     0.015 A 
HETATM   14  C   UNK N   1      32.537  17.548   4.706  0.00  0.00     0.030 A 
HETATM   15  C   UNK N   1      31.263  16.963   4.679  0.00  0.00     0.036 A 
HETATM   16  C   UNK N   1      31.042  15.774   5.382  0.00  0.00     0.030 A 
HETATM   17  C   UNK N   1      32.050  15.201   6.128  0.00  0.00     0.015 A 
BRANCH  15  18
HETATM   18  N   UNK N   1      30.185  17.673   4.087  0.00  0.00    -0.307 N 
HETATM   19  C   UNK N   1      29.164  18.226   4.799  0.00  0.00     0.344 C 
HETATM   20  O   UNK N   1      29.082  18.073   6.010  0.00  0.00    -0.245 OA
HETATM   21  N   UNK N   1      28.301  19.059   4.181  0.00  0.00    -0.217 N 
HETATM   22  H   UNK N   1      28.336  19.160   3.202  0.00  0.00     0.199 HD
HETATM   23  H   UNK N   1      30.173  17.770   3.107  0.00  0.00     0.170 HD
BRANCH  21  24
HETATM   24  O   UNK N   1      27.395  19.751   4.890  0.00  0.00    -0.281 OA
HETATM   25  C   UNK N   1      26.509  20.265   3.935  0.00  0.00     0.237 C 
ENDBRANCH  21  24
ENDBRANCH  15  18
ENDBRANCH  11  12
BRANCH   1  26
HETATM   26  C   UNK N   1      35.563  13.811   5.207  0.00  0.00     0.312 C 
BRANCH  26  27
HETATM   27  N   UNK N   1      34.522  12.844   4.868  0.00  0.00     0.084 N 
HETATM   28  C   UNK N   1      35.156  11.560   4.613  0.00  0.00     0.309 C 
HETATM   29  C   UNK N   1      33.936  13.264   3.608  0.00  0.00     0.309 C 
ENDBRANCH  26  27
ENDBRANCH   1  26
BRANCH   8  30
HETATM   30  C   UNK N   1      36.007  14.812  11.297  0.00  0.00     0.179 C 
BRANCH  30  31
HETATM   31  C   UNK N   1      35.716  13.849  12.414  0.00  0.00     0.037 A 
HETATM   32  C   UNK N   1      34.964  12.687  12.156  0.00  0.00     0.127 A 
HETATM   33  C   UNK N   1      34.649  11.811  13.196  0.00  0.00     0.043 A 
HETATM   34  F   UNK N   1      34.527  12.413  10.900  0.00  0.00    -0.205 F 
HETATM   35  C   UNK N   1      35.059  12.094  14.499  0.00  0.00     0.006 A 
HETATM   36  C   UNK N   1      35.775  13.263  14.768  0.00  0.00     0.043 A 
HETATM   37  C   UNK N   1      36.104  14.143  13.731  0.00  0.00     0.127 A 
HETATM   38  F   UNK N   1      36.774  15.287  14.015  0.00  0.00    -0.205 F 
ENDBRANCH  30  31
ENDBRANCH   8  30
BRANCH   5  39
HETATM   39  C   UNK N   1      39.197  11.890   8.699  0.00  0.00     0.133 A 
HETATM   40  C   UNK N   1      40.493  12.252   8.304  0.00  0.00     0.055 A 
HETATM   41  C   UNK N   1      41.532  11.334   8.412  0.00  0.00     0.061 A 
HETATM   42  C   UNK N   1      41.271  10.070   8.930  0.00  0.00     0.156 A 
HETATM   43  N   UNK N   1      39.998   9.742   9.272  0.00  0.00    -0.278 N 
HETATM   44  N   UNK N   1      39.002  10.619   9.157  0.00  0.00    -0.283 N 
ATOM     45  HN  UNK N   1      39.800   8.805   9.625  1.00  0.00     0.189 HD
ATOM     46  HN  UNK N   1      38.061  10.331   9.421  1.00  0.00     0.188 HD
BRANCH  42  47
HETATM   47  O   UNK N   1      42.286   9.198   9.115  0.00  0.00    -0.340 OA
HETATM   48  C   UNK N   1      43.473   9.302   8.429  0.00  0.00     0.211 C 
ENDBRANCH  42  47
ENDBRANCH   5  39
TORSDOF 9
ENDMDL
MODEL 9
REMARK VINA RESULT:      -7.4      8.277     14.763
REMARK  9 active torsions:
REMARK  status: ('A' for Active; 'I' for Inactive)
REMARK    1  A    between atoms: N_2  and  C_4 
REMARK    2  A    between atoms: C_4  and  C_5 
REMARK    3  A    between atoms: N_9  and  C_37 
REMARK    4  A    between atoms: N_12  and  C_28 
REMARK    5  A    between atoms: C_15  and  C_16 
REMARK    6  A    between atoms: C_19  and  N_22 
REMARK       I    between atoms: N_22  and  C_23 
REMARK       I    between atoms: C_23  and  N_25 
REMARK    7  A    between atoms: N_25  and  O_26 
REMARK    8  A    between atoms: C_28  and  C_29 
REMARK    9  A    between atoms: C_40  and  O_45 
ROOT
HETATM    1  C   UNK N   1      35.514  11.344  16.562  0.00  0.00     0.006 A 
HETATM    2  C   UNK N   1      36.030  11.315  15.232  0.00  0.00     0.076 A 
HETATM    3  C   UNK N   1      35.972  12.332  14.294  0.00  0.00     0.271 A 
HETATM    4  O   UNK N   1      35.454  13.394  14.594  0.00  0.00    -0.266 OA
HETATM    5  N   UNK N   1      36.500  12.125  13.021  0.00  0.00    -0.212 N 
HETATM    6  C   UNK N   1      37.108  10.892  12.726  0.00  0.00     0.338 A 
HETATM    7  O   UNK N   1      37.575  10.701  11.620  0.00  0.00    -0.246 OA
HETATM    8  N   UNK N   1      37.149   9.869  13.671  0.00  0.00    -0.287 N 
HETATM    9  C   UNK N   1      36.612  10.114  14.890  0.00  0.00     0.097 A 
HETATM   10  S   UNK N   1      36.495   9.093  16.193  0.00  0.00    -0.070 SA
HETATM   11  C   UNK N   1      35.738  10.129  17.254  0.00  0.00     0.026 A 
ENDROOT
BRANCH  11  12
HETATM   12  C   UNK N   1      35.406   9.827  18.651  0.00  0.00    -0.018 A 
HETATM   13  C   UNK N   1      34.174   9.253  19.001  0.00  0.00     0.015 A 
HETATM   14  C   UNK N   1      33.872   9.015  20.347  0.00  0.00     0.030 A 
HETATM   15  C   UNK N   1      34.808   9.333  21.341  0.00  0.00     0.036 A 
HETATM   16  C   UNK N   1      36.051   9.854  20.969  0.00  0.00     0.030 A 
HETATM   17  C   UNK N   1      36.345  10.092  19.643  0.00  0.00     0.015 A 
BRANCH  15  18
HETATM   18  N   UNK N   1      34.416   9.285  22.706  0.00  0.00    -0.307 N 
HETATM   19  C   UNK N   1      33.436  10.067  23.238  0.00  0.00     0.344 C 
HETATM   20  O   UNK N   1      32.880  10.927  22.568  0.00  0.00    -0.245 OA
HETATM   21  N   UNK N   1      32.985   9.807  24.483  0.00  0.00    -0.217 N 
HETATM   22  H   UNK N   1      33.449   9.143  25.042  0.00  0.00     0.199 HD
HETATM   23  H   UNK N   1      34.878   8.651  23.301  0.00  0.00     0.170 HD
BRANCH  21  24
HETATM   24  O   UNK N   1      31.908  10.448  24.964  0.00  0.00    -0.281 OA
HETATM   25  C   UNK N   1      32.382  11.162  26.073  0.00  0.00     0.237 C 
ENDBRANCH  21  24
ENDBRANCH  15  18
ENDBRANCH  11  12
BRANCH   1  26
HETATM   26  C   UNK N   1      34.795  12.541  17.133  0.00  0.00     0.312 C 
BRANCH  26  27
HETATM   27  N   UNK N   1      35.632  13.237  18.106  0.00  0.00     0.084 N 
HETATM   28  C   UNK N   1      34.945  13.228  19.388  0.00  0.00     0.309 C 
HETATM   29  C   UNK N   1      35.708  14.627  17.697  0.00  0.00     0.309 C 
ENDBRANCH  26  27
ENDBRANCH   1  26
BRANCH   8  30
HETATM   30  C   UNK N   1      37.620   8.492  13.402  0.00  0.00     0.179 C 
BRANCH  30  31
HETATM   31  C   UNK N   1      39.096   8.271  13.216  0.00  0.00     0.037 A 
HETATM   32  C   UNK N   1      39.591   7.892  11.954  0.00  0.00     0.127 A 
HETATM   33  C   UNK N   1      40.952   7.637  11.783  0.00  0.00     0.043 A 
HETATM   34  F   UNK N   1      38.751   7.756  10.895  0.00  0.00    -0.205 F 
HETATM   35  C   UNK N   1      41.826   7.736  12.866  0.00  0.00     0.006 A 
HETATM   36  C   UNK N   1      41.336   8.079  14.129  0.00  0.00     0.043 A 
HETATM   37  C   UNK N   1      39.974   8.344  14.309  0.00  0.00     0.127 A 
HETATM   38  F   UNK N   1      39.512   8.645  15.548  0.00  0.00    -0.205 F 
ENDBRANCH  30  31
ENDBRANCH   8  30
BRANCH   5  39
HETATM   39  C   UNK N   1      36.316  13.160  11.995  0.00  0.00     0.133 A 
HETATM   40  C   UNK N   1      35.294  13.085  11.038  0.00  0.00     0.055 A 
HETATM   41  C   UNK N   1      35.057  14.161  10.191  0.00  0.00     0.061 A 
HETATM   42  C   UNK N   1      35.830  15.310  10.319  0.00  0.00     0.156 A 
HETATM   43  N   UNK N   1      36.832  15.337  11.235  0.00  0.00    -0.278 N 
HETATM   44  N   UNK N   1      37.065  14.300  12.038  0.00  0.00    -0.283 N 
ATOM     45  HN  UNK N   1      37.419  16.169  11.309  1.00  0.00     0.189 HD
ATOM     46  HN  UNK N   1      37.831  14.361  12.709  1.00  0.00     0.188 HD
BRANCH  42  47
HETATM   47  O   UNK N   1      35.556  16.391   9.557  0.00  0.00    -0.340 OA
HETATM   48  C   UNK N   1      34.267  16.779   9.274  0.00  0.00     0.211 C 
ENDBRANCH  42  47
ENDBRANCH   5  39
TORSDOF 9
ENDMDL
